MODEL 1
REMARK VINA RESULT:       0.0      0.000      0.000
ROOT
ATOM      1  C1  Z9H D   1      33.590  58.232  67.5000  0.00  0.00     0.000 C
ATOM      2  C2  Z9H D   1      34.440  57.757  68.7020  0.00  0.00     0.000 C
ATOM      3  C3  Z9H D   1      35.489  56.914  67.9140  0.00  0.00     0.000 C
ATOM      4  C4  Z9H D   1      34.887  55.870  66.8850  0.00  0.00     0.000 C
ATOM      5  C5  Z9H D   1      33.749  56.234  65.8500  0.00  0.00     0.000 C
ATOM      6  O5  Z9H D   1      33.028  57.268  66.5670  0.00  0.00     0.000 O
ATOM      7   O  Z9H D   1      36.414  56.270  68.7920  0.00  0.00     0.000 O
ATOM      8   C  Z9H D   1      37.675  56.939  68.9560  0.00  0.00     0.000 C
ATOM      9   O  Z9H D   1      36.001  55.378  66.1330  0.00  0.00     0.000 O
ATOM     10   C  Z9H D   1      36.518  54.112  66.5520  0.00  0.00     0.000 C
ENDROOT
BRANCH 2 11
ATOM     11   O  Z9H D   1      35.114  58.932  69.0670  0.00  0.00     0.000 O
ATOM     12   O  Z9H D   1      34.819  59.867  70.6790  0.00  0.00     0.000 OA
ATOM     13   S  Z9H D   1      34.177  58.648  70.3180  0.00  0.00     0.000 S
ATOM     14   O  Z9H D   1      34.686  57.498  71.0100  0.00  0.00     0.000 OA
ATOM     15   O  Z9H D   1      32.786  58.884  70.0080  0.00  0.00     0.000 O
ENDBRANCH 2 11
BRANCH 5 16
ATOM     16   C  Z9H D   1      32.954  54.923  65.1810  0.00  0.00     0.000 C
ATOM     17   S  Z9H D   1      32.146  54.196  63.4890  0.00  0.00     0.000 S
ATOM     18   O  Z9H D   1      33.474  55.027  63.8770  0.00  0.00     0.000 O
ATOM     19   O  Z9H D   1      30.915  54.916  63.6550  0.00  0.00     0.000 O
ATOM     20   O  Z9H D   1      32.302  52.828  63.8420  0.00  0.00     0.000 OA
ATOM     21   O  Z9H D   1      32.700  54.377  62.1800  0.00  0.00     0.000 OA
ENDBRANCH 5 16
BRANCH 1 22
ATOM     22  O4  GU1 D   2      34.289  59.132  66.5660  0.00  0.00     0.000 O
BRANCH 22 26
ATOM     23  C1  GU1 D   2      33.873  62.372  64.0560  0.00  0.00     0.000 C
ATOM     24  C2  GU1 D   2      33.025  62.427  65.3170  0.00  0.00     0.000 C
ATOM     25  C3  GU1 D   2      33.536  61.419  66.3050  0.00  0.00     0.000 C
ATOM     26  C4  GU1 D   2      33.627  60.037  65.6740  0.00  0.00     0.000 C
ATOM     27  C5  GU1 D   2      34.411  60.111  64.3600  0.00  0.00     0.000 C
ATOM     28  O5  GU1 D   2      33.826  61.070  63.4840  0.00  0.00     0.000 O
ATOM     29   O  GU1 D   2      33.065  63.710  65.9300  0.00  0.00     0.000 O
ATOM     30   C  GU1 D   2      31.968  64.546  65.5870  0.00  0.00     0.000 C
ATOM     31   C  GU1 D   2      33.052  62.051  68.5760  0.00  0.00     0.000 C
ATOM     32   O  GU1 D   2      32.623  61.360  67.4050  0.00  0.00     0.000 O
BRANCH 27 33
ATOM     33   C  GU1 D   2      34.415  58.778  63.6510  0.00  0.00     0.000 C
ATOM     34   O  GU1 D   2      33.374  58.375  63.1710  0.00  0.00     0.000 OA
ATOM     35   O  GU1 D   2      35.443  58.125  63.5600  0.00  0.00     0.000 O
ENDBRANCH 27 33
BRANCH 23 36
ATOM     36  O4  GU6 D   3      33.442  63.063  62.8660  0.00  0.00     0.000 O
BRANCH 36 40
ATOM     37  C1  GU6 D   3      31.829  64.003  59.2320  0.00  0.00     0.000 C
ATOM     38  C2  GU6 D   3      32.978  64.912  59.6530  0.00  0.00     0.000 C
ATOM     39  C3  GU6 D   3      33.672  64.325  60.8540  0.00  0.00     0.000 C
ATOM     40  C4  GU6 D   3      33.034  63.183  61.5180  0.00  0.00     0.000 C
ATOM     41  C5  GU6 D   3      31.482  63.379  61.5220  0.00  0.00     0.000 C
ATOM     42  O5  GU6 D   3      30.916  63.898  60.3130  0.00  0.00     0.000 O
BRANCH 38 43
ATOM     43   O  GU6 D   3      33.900  65.071  58.5920  0.00  0.00     0.000 O
ATOM     44   S  GU6 D   3      34.170  66.520  58.2060  0.00  0.00     0.000 S
ATOM     45   O  GU6 D   3      33.085  66.978  57.3210  0.00  0.00     0.000 OA
ATOM     46   O  GU6 D   3      34.183  67.339  59.4310  0.00  0.00     0.000 O
ATOM     47   O  GU6 D   3      35.467  66.595  57.5400  0.00  0.00     0.000 OA
ENDBRANCH 38 43
BRANCH 39 48
ATOM     48   O  GU6 D   3      34.993  64.705  61.1880  0.00  0.00     0.000 O
ATOM     49   S  GU6 D   3      36.319  64.009  60.8850  0.00  0.00     0.000 S
ATOM     50   O  GU6 D   3      36.452  63.779  59.4420  0.00  0.00     0.000 OA
ATOM     51   O  GU6 D   3      37.318  64.975  61.3640  0.00  0.00     0.000 OA
ATOM     52   O  GU6 D   3      36.360  62.720  61.6100  0.00  0.00     0.000 O
ENDBRANCH 39 48
BRANCH 41 53
ATOM     53   C  GU6 D   3      30.492  63.083  62.6160  0.00  0.00     0.000 C
ATOM     54   O  GU6 D   3      30.659  61.689  62.6520  0.00  0.00     0.000 O
ATOM     55   S  GU6 D   3      29.772  60.822  63.5560  0.00  0.00     0.000 S
ATOM     56   O  GU6 D   3      28.392  60.925  63.0260  0.00  0.00     0.000 O
ATOM     57   O  GU6 D   3      30.252  59.434  63.4900  0.00  0.00     0.000 OA
ATOM     58   O  GU6 D   3      29.860  61.381  64.9230  0.00  0.00     0.000 OA
ENDBRANCH 41 53
BRANCH 37 59
ATOM     59  O4  Z9K D   4      31.981  62.683  58.6680  0.00  0.00     0.000 O
BRANCH 59 63
ATOM     60  C1  Z9K D   4      32.629  59.982  55.8880  0.00  0.00     0.000 C
ATOM     61  C2  Z9K D   4      32.439  61.261  55.0260  0.00  0.00     0.000 C
ATOM     62  C3  Z9K D   4      32.362  62.377  56.1560  0.00  0.00     0.000 C
ATOM     63  C4  Z9K D   4      31.463  62.123  57.4260  0.00  0.00     0.000 C
ATOM     64  C5  Z9K D   4      31.228  60.652  57.8030  0.00  0.00     0.000 C
ATOM     65  O5  Z9K D   4      32.460  60.011  57.3820  0.00  0.00     0.000 O
ATOM     66   O  Z9K D   4      31.945  63.662  55.6600  0.00  0.00     0.000 O
ATOM     67   C  Z9K D   4      32.996  64.458  55.1380  0.00  0.00     0.000 C
BRANCH 61 68
ATOM     68   O  Z9K D   4      33.642  61.478  54.3410  0.00  0.00     0.000 O
ATOM     69   O  Z9K D   4      31.631  62.216  52.9390  0.00  0.00     0.000 OA
ATOM     70   S  Z9K D   4      32.611  61.188  53.1250  0.00  0.00     0.000 S
ATOM     71   O  Z9K D   4      32.371  59.779  53.0440  0.00  0.00     0.000 OA
ATOM     72   O  Z9K D   4      33.819  61.505  52.4350  0.00  0.00     0.000 OA
ENDBRANCH 61 68
BRANCH 64 73
ATOM     73   C  Z9K D   4      30.791  60.526  59.2780  0.00  0.00     0.000 C
ATOM     74   O  Z9K D   4      29.639  60.890  59.6540  0.00  0.00     0.000 O
ATOM     75   O  Z9K D   4      31.555  60.055  60.1550  0.00  0.00     0.000 OA
ENDBRANCH 64 73
BRANCH 60 76
ATOM     76  O4  Z9L D   5      32.007  58.695  55.7270  0.00  0.00     0.000 O
BRANCH 76 80
ATOM     77  C1  Z9L D   5      32.620  54.750  55.9000  0.00  0.00     0.000 C
ATOM     78  C2  Z9L D   5      31.568  55.113  57.0540  0.00  0.00     0.000 C
ATOM     79  C3  Z9L D   5      30.966  56.653  56.6970  0.00  0.00     0.000 C
ATOM     80  C4  Z9L D   5      32.344  57.432  56.2400  0.00  0.00     0.000 C
ATOM     81  C5  Z9L D   5      33.533  56.978  55.2500  0.00  0.00     0.000 C
ATOM     82  O5  Z9L D   5      33.786  55.593  55.5310  0.00  0.00     0.000 O
ATOM     83   C  Z9L D   5      32.700  54.058  53.5740  0.00  0.00     0.000 C
ATOM     84   C  Z9L D   5      32.700  54.058  53.5740  0.00  0.00     0.000 C
BRANCH 78 85
ATOM     85   O  Z9L D   5      30.527  54.191  56.9950  0.00  0.00     0.000 O
ATOM     86   O  Z9L D   5      30.169  52.839  58.3200  0.00  0.00     0.000 OA
ATOM     87   S  Z9L D   5      31.158  53.867  58.4370  0.00  0.00     0.000 S
ATOM     88   O  Z9L D   5      30.679  54.729  59.4890  0.00  0.00     0.000 OA
ATOM     89   O  Z9L D   5      32.407  53.185  58.4430  0.00  0.00     0.000 OA
ENDBRANCH 78 85
BRANCH 79 90
ATOM     90   O  Z9L D   5      30.601  57.336  57.8540  0.00  0.00     0.000 O
ATOM     91   S  Z9L D   5      29.207  57.353  57.0830  0.00  0.00     0.000 S
ATOM     92   O  Z9L D   5      28.563  56.148  56.6300  0.00  0.00     0.000 OA
ATOM     93   O  Z9L D   5      29.088  58.582  56.3400  0.00  0.00     0.000 O
ATOM     94   O  Z9L D   5      28.738  57.612  58.4050  0.00  0.00     0.000 OA
ENDBRANCH 79 90
BRANCH 81 95
ATOM     95   C  Z9L D   5      34.843  58.014  55.0960  0.00  0.00     0.000 C
ATOM     96   S  Z9L D   5      36.683  58.416  55.7430  0.00  0.00     0.000 S
ATOM     97   O  Z9L D   5      35.355  57.875  56.3940  0.00  0.00     0.000 O
ATOM     98   O  Z9L D   5      36.476  59.818  55.4830  0.00  0.00     0.000 OA
ATOM     99   O  Z9L D   5      37.291  57.565  54.7770  0.00  0.00     0.000 OA
ATOM    100   O  Z9L D   5      37.149  58.269  57.1000  0.00  0.00     0.000 O
ENDBRANCH 81 95
ENDBRANCH 76 80
ENDBRANCH 60 76
ENDBRANCH 59 63
ENDBRANCH 37 59
ENDBRANCH 36 40
ENDBRANCH 23 36
ENDBRANCH 22 26
ENDBRANCH 1 22
TORSDOF 19
ENDMDL
MODEL 2
REMARK VINA RESULT:       0.0     94.895    101.202
ROOT
ATOM      1  C1  Z9H D   1     118.047  33.803   7.6760  0.00  0.00     0.000 C
ATOM      2  C2  Z9H D   1     118.404  32.587   6.7890  0.00  0.00     0.000 C
ATOM      3  C3  Z9H D   1     119.811  32.280   7.3890  0.00  0.00     0.000 C
ATOM      4  C4  Z9H D   1     120.791  33.521   7.4920  0.00  0.00     0.000 C
ATOM      5  C5  Z9H D   1     120.355  34.919   8.0880  0.00  0.00     0.000 C
ATOM      6  O5  Z9H D   1     118.944  34.946   7.7560  0.00  0.00     0.000 O
ATOM      7   O  Z9H D   1     120.449  31.199   6.7070  0.00  0.00     0.000 O
ATOM      8   C  Z9H D   1     120.344  29.917   7.3500  0.00  0.00     0.000 C
ATOM      9   O  Z9H D   1     121.913  33.068   8.2550  0.00  0.00     0.000 O
ATOM     10   C  Z9H D   1     123.065  32.690   7.4940  0.00  0.00     0.000 C
ENDROOT
BRANCH 2 11
ATOM     11   O  Z9H D   1     117.561  31.591   7.3060  0.00  0.00     0.000 O
ATOM     12   O  Z9H D   1     116.113  30.834   6.3630  0.00  0.00     0.000 OA
ATOM     13   S  Z9H D   1     117.005  31.810   5.8340  0.00  0.00     0.000 S
ATOM     14   O  Z9H D   1     117.963  31.278   4.9070  0.00  0.00     0.000 OA
ATOM     15   O  Z9H D   1     116.336  33.084   5.7000  0.00  0.00     0.000 O
ENDBRANCH 2 11
BRANCH 5 16
ATOM     16   C  Z9H D   1     121.364  36.198   7.7070  0.00  0.00     0.000 C
ATOM     17   S  Z9H D   1     122.142  37.920   8.3910  0.00  0.00     0.000 S
ATOM     18   O  Z9H D   1     121.846  36.456   9.0040  0.00  0.00     0.000 O
ATOM     19   O  Z9H D   1     120.973  38.687   8.0690  0.00  0.00     0.000 O
ATOM     20   O  Z9H D   1     123.300  37.882   7.5680  0.00  0.00     0.000 OA
ATOM     21   O  Z9H D   1     122.573  38.139   9.7410  0.00  0.00     0.000 OA
ENDBRANCH 5 16
BRANCH 1 22
ATOM     22  O4  GU1 D   2     117.876  33.497   9.1070  0.00  0.00     0.000 O
BRANCH 22 26
ATOM     23  C1  GU1 D   2     115.788  34.442  12.5300  0.00  0.00     0.000 C
ATOM     24  C2  GU1 D   2     114.980  34.527  11.2440  0.00  0.00     0.000 C
ATOM     25  C3  GU1 D   2     115.712  33.808  10.1480  0.00  0.00     0.000 C
ATOM     26  C4  GU1 D   2     117.140  34.317  10.0230  0.00  0.00     0.000 C
ATOM     27  C5  GU1 D   2     117.830  34.287  11.3900  0.00  0.00     0.000 C
ATOM     28  O5  GU1 D   2     117.073  35.023  12.3470  0.00  0.00     0.000 O
ATOM     29   O  GU1 D   2     113.694  33.935  11.3830  0.00  0.00     0.000 O
ATOM     30   C  GU1 D   2     112.661  34.866  11.6710  0.00  0.00     0.000 C
ATOM     31   C  GU1 D   2     114.216  32.971   8.4580  0.00  0.00     0.000 C
ATOM     32   O  GU1 D   2     115.030  34.050   8.9140  0.00  0.00     0.000 O
BRANCH 27 33
ATOM     33   C  GU1 D   2     119.209  34.899  11.3200  0.00  0.00     0.000 C
ATOM     34   O  GU1 D   2     119.301  36.103  11.1940  0.00  0.00     0.000 OA
ATOM     35   O  GU1 D   2     120.205  34.196  11.3930  0.00  0.00     0.000 O
ENDBRANCH 27 33
BRANCH 23 36
ATOM     36  O4  GU6 D   3     115.427  35.256  13.6640  0.00  0.00     0.000 O
BRANCH 36 40
ATOM     37  C1  GU6 D   3     115.209  38.225  16.4620  0.00  0.00     0.000 C
ATOM     38  C2  GU6 D   3     114.741  36.865  16.9650  0.00  0.00     0.000 C
ATOM     39  C3  GU6 D   3     115.112  35.801  15.9650  0.00  0.00     0.000 C
ATOM     40  C4  GU6 D   3     115.617  36.240  14.6590  0.00  0.00     0.000 C
ATOM     41  C5  GU6 D   3     114.838  37.517  14.2000  0.00  0.00     0.000 C
ATOM     42  O5  GU6 D   3     114.577  38.489  15.2190  0.00  0.00     0.000 O
BRANCH 38 43
ATOM     43   O  GU6 D   3     115.323  36.572  18.2210  0.00  0.00     0.000 O
ATOM     44   S  GU6 D   3     114.319  36.246  19.3190  0.00  0.00     0.000 S
ATOM     45   O  GU6 D   3     113.796  37.510  19.8650  0.00  0.00     0.000 OA
ATOM     46   O  GU6 D   3     113.212  35.471  18.7300  0.00  0.00     0.000 O
ATOM     47   O  GU6 D   3     114.988  35.458  20.3490  0.00  0.00     0.000 OA
ENDBRANCH 38 43
BRANCH 39 48
ATOM     48   O  GU6 D   3     115.194  34.442  16.3470  0.00  0.00     0.000 O
ATOM     49   S  GU6 D   3     116.412  33.602  16.7290  0.00  0.00     0.000 S
ATOM     50   O  GU6 D   3     117.145  34.243  17.8260  0.00  0.00     0.000 OA
ATOM     51   O  GU6 D   3     115.818  32.329  17.1600  0.00  0.00     0.000 OA
ATOM     52   O  GU6 D   3     117.290  33.465  15.5450  0.00  0.00     0.000 O
ENDBRANCH 39 48
BRANCH 41 53
ATOM     53   C  GU6 D   3     114.335  37.878  12.8290  0.00  0.00     0.000 C
ATOM     54   O  GU6 D   3     115.582  38.001  12.1940  0.00  0.00     0.000 O
ATOM     55   S  GU6 D   3     115.671  38.483  10.7400  0.00  0.00     0.000 S
ATOM     56   O  GU6 D   3     115.211  39.891  10.7280  0.00  0.00     0.000 O
ATOM     57   O  GU6 D   3     117.071  38.390  10.3010  0.00  0.00     0.000 OA
ATOM     58   O  GU6 D   3     114.774  37.623   9.9370  0.00  0.00     0.000 OA
ENDBRANCH 41 53
BRANCH 37 59
ATOM     59  O4  Z9K D   4     116.588  38.633  16.3380  0.00  0.00     0.000 O
BRANCH 59 63
ATOM     60  C1  Z9K D   4     120.091  39.976  17.5070  0.00  0.00     0.000 C
ATOM     61  C2  Z9K D   4     119.214  40.302  18.7480  0.00  0.00     0.000 C
ATOM     62  C3  Z9K D   4     117.848  39.594  18.3460  0.00  0.00     0.000 C
ATOM     63  C4  Z9K D   4     117.282  39.790  16.8880  0.00  0.00     0.000 C
ATOM     64  C5  Z9K D   4     118.319  40.100  15.7980  0.00  0.00     0.000 C
ATOM     65  O5  Z9K D   4     119.495  39.385  16.2590  0.00  0.00     0.000 O
ATOM     66   O  Z9K D   4     116.754  39.934  19.2160  0.00  0.00     0.000 O
ATOM     67   C  Z9K D   4     116.665  39.135  20.3850  0.00  0.00     0.000 C
BRANCH 61 68
ATOM     68   O  Z9K D   4     119.735  39.570  19.8230  0.00  0.00     0.000 O
ATOM     69   O  Z9K D   4     118.794  41.818  20.6030  0.00  0.00     0.000 OA
ATOM     70   S  Z9K D   4     119.993  41.096  20.3010  0.00  0.00     0.000 S
ATOM     71   O  Z9K D   4     121.130  41.616  19.6040  0.00  0.00     0.000 OA
ATOM     72   O  Z9K D   4     120.432  40.342  21.4310  0.00  0.00     0.000 OA
ENDBRANCH 61 68
BRANCH 64 73
ATOM     73   C  Z9K D   4     117.756  39.778  14.3970  0.00  0.00     0.000 C
ATOM     74   O  Z9K D   4     118.164  38.775  13.7420  0.00  0.00     0.000 O
ATOM     75   O  Z9K D   4     116.872  40.489  13.8600  0.00  0.00     0.000 OA
ENDBRANCH 64 73
BRANCH 60 76
ATOM     76  O4  Z9L D   5     121.000  40.839  16.8020  0.00  0.00     0.000 O
BRANCH 76 80
ATOM     77  C1  Z9L D   5     124.503  40.985  14.8840  0.00  0.00     0.000 C
ATOM     78  C2  Z9L D   5     123.363  41.324  13.8080  0.00  0.00     0.000 C
ATOM     79  C3  Z9L D   5     121.969  41.713  14.6830  0.00  0.00     0.000 C
ATOM     80  C4  Z9L D   5     122.002  40.560  15.8590  0.00  0.00     0.000 C
ATOM     81  C5  Z9L D   5     123.208  40.045  16.7970  0.00  0.00     0.000 C
ATOM     82  O5  Z9L D   5     124.368  39.966  15.9570  0.00  0.00     0.000 O
ATOM     83   C  Z9L D   5     125.996  42.079  16.4540  0.00  0.00     0.000 C
ATOM     84   C  Z9L D   5     125.996  42.079  16.4540  0.00  0.00     0.000 C
BRANCH 78 85
ATOM     85   O  Z9L D   5     123.773  42.438  13.0820  0.00  0.00     0.000 O
ATOM     86   O  Z9L D   5     124.273  42.425  11.2220  0.00  0.00     0.000 OA
ATOM     87   S  Z9L D   5     123.732  41.310  11.9380  0.00  0.00     0.000 S
ATOM     88   O  Z9L D   5     122.422  41.102  11.3730  0.00  0.00     0.000 OA
ATOM     89   O  Z9L D   5     124.775  40.342  11.9660  0.00  0.00     0.000 OA
ENDBRANCH 78 85
BRANCH 79 90
ATOM     90   O  Z9L D   5     120.817  41.388  13.9720  0.00  0.00     0.000 O
ATOM     91   S  Z9L D   5     120.559  42.942  14.2020  0.00  0.00     0.000 S
ATOM     92   O  Z9L D   5     121.497  43.950  13.7840  0.00  0.00     0.000 OA
ATOM     93   O  Z9L D   5     119.756  43.122  15.3870  0.00  0.00     0.000 O
ATOM     94   O  Z9L D   5     119.661  42.723  13.1150  0.00  0.00     0.000 OA
ENDBRANCH 79 90
BRANCH 81 95
ATOM     95   C  Z9L D   5     122.883  38.768  17.8350  0.00  0.00     0.000 C
ATOM     96   S  Z9L D   5     122.981  36.792  18.0610  0.00  0.00     0.000 S
ATOM     97   O  Z9L D   5     122.688  37.774  16.8660  0.00  0.00     0.000 O
ATOM     98   O  Z9L D   5     121.823  36.826  18.9180  0.00  0.00     0.000 OA
ATOM     99   O  Z9L D   5     124.300  36.842  18.5950  0.00  0.00     0.000 OA
ATOM    100   O  Z9L D   5     122.752  35.814  17.0260  0.00  0.00     0.000 O
ENDBRANCH 81 95
ENDBRANCH 76 80
ENDBRANCH 60 76
ENDBRANCH 59 63
ENDBRANCH 37 59
ENDBRANCH 36 40
ENDBRANCH 23 36
ENDBRANCH 22 26
ENDBRANCH 1 22
TORSDOF 19
ENDMDL
MODEL 3
REMARK VINA RESULT:       0.0    105.135    112.954
ROOT
ATOM      1  C1  Z9H D   1     122.290  29.143 108.9820  0.00  0.00     0.000 C
ATOM      2  C2  Z9H D   1     121.265  28.811 107.8720  0.00  0.00     0.000 C
ATOM      3  C3  Z9H D   1     121.918  27.493 107.3540  0.00  0.00     0.000 C
ATOM      4  C4  Z9H D   1     123.465  27.585 107.0250  0.00  0.00     0.000 C
ATOM      5  C5  Z9H D   1     124.519  28.241 108.0040  0.00  0.00     0.000 C
ATOM      6  O5  Z9H D   1     123.708  29.240 108.6710  0.00  0.00     0.000 O
ATOM      7   O  Z9H D   1     121.204  26.955 106.2390  0.00  0.00     0.000 O
ATOM      8   C  Z9H D   1     120.282  25.898 106.5510  0.00  0.00     0.000 C
ATOM      9   O  Z9H D   1     123.892  26.240 106.7850  0.00  0.00     0.000 O
ATOM     10   C  Z9H D   1     123.998  25.862 105.4090  0.00  0.00     0.000 C
ENDROOT
BRANCH 2 11
ATOM     11   O  Z9H D   1     120.150  28.399 108.6170  0.00  0.00     0.000 O
ATOM     12   O  Z9H D   1     118.523  29.349 108.7040  0.00  0.00     0.000 OA
ATOM     13   S  Z9H D   1     119.645  29.731 107.9140  0.00  0.00     0.000 S
ATOM     14   O  Z9H D   1     119.484  29.468 106.5130  0.00  0.00     0.000 OA
ATOM     15   O  Z9H D   1     120.279  30.903 108.4730  0.00  0.00     0.000 O
ENDBRANCH 2 11
BRANCH 5 16
ATOM     16   C  Z9H D   1     125.986  28.638 107.3030  0.00  0.00     0.000 C
ATOM     17   S  Z9H D   1     127.974  28.683 107.5980  0.00  0.00     0.000 S
ATOM     18   O  Z9H D   1     126.773  27.659 107.9390  0.00  0.00     0.000 O
ATOM     19   O  Z9H D   1     127.934  29.921 108.3230  0.00  0.00     0.000 O
ATOM     20   O  Z9H D   1     128.317  28.597 106.2220  0.00  0.00     0.000 OA
ATOM     21   O  Z9H D   1     128.716  27.676 108.2980  0.00  0.00     0.000 OA
ENDBRANCH 5 16
BRANCH 1 22
ATOM     22  O4  GU1 D   2     122.326  28.183 110.0990  0.00  0.00     0.000 O
BRANCH 22 26
ATOM     23  C1  GU1 D   2     122.842  27.753 114.1630  0.00  0.00     0.000 C
ATOM     24  C2  GU1 D   2     122.128  29.028 113.7400  0.00  0.00     0.000 C
ATOM     25  C3  GU1 D   2     121.666  28.891 112.3190  0.00  0.00     0.000 C
ATOM     26  C4  GU1 D   2     122.818  28.490 111.4090  0.00  0.00     0.000 C
ATOM     27  C5  GU1 D   2     123.533  27.261 111.9780  0.00  0.00     0.000 C
ATOM     28  O5  GU1 D   2     123.958  27.506 113.3160  0.00  0.00     0.000 O
ATOM     29   O  GU1 D   2     120.992  29.297 114.5530  0.00  0.00     0.000 O
ATOM     30   C  GU1 D   2     121.244  30.214 115.6080  0.00  0.00     0.000 C
ATOM     31   C  GU1 D   2     119.737  30.255 111.8590  0.00  0.00     0.000 C
ATOM     32   O  GU1 D   2     121.159  30.157 111.8840  0.00  0.00     0.000 O
BRANCH 27 33
ATOM     33   C  GU1 D   2     124.754  26.912 111.1610  0.00  0.00     0.000 C
ATOM     34   O  GU1 D   2     124.732  25.898 110.4930  0.00  0.00     0.000 OA
ATOM     35   O  GU1 D   2     125.736  27.637 111.1710  0.00  0.00     0.000 O
ENDBRANCH 27 33
BRANCH 23 36
ATOM     36  O4  GU6 D   3     123.592  27.721 115.3940  0.00  0.00     0.000 O
BRANCH 36 40
ATOM     37  C1  GU6 D   3     126.577  27.838 118.1810  0.00  0.00     0.000 C
ATOM     38  C2  GU6 D   3     125.370  27.008 118.6020  0.00  0.00     0.000 C
ATOM     39  C3  GU6 D   3     124.461  26.804 117.4180  0.00  0.00     0.000 C
ATOM     40  C4  GU6 D   3     124.742  27.575 116.2020  0.00  0.00     0.000 C
ATOM     41  C5  GU6 D   3     125.217  29.013 116.5930  0.00  0.00     0.000 C
ATOM     42  O5  GU6 D   3     126.118  29.093 117.7030  0.00  0.00     0.000 O
BRANCH 38 43
ATOM     43   O  GU6 D   3     125.782  25.756 119.1160  0.00  0.00     0.000 O
ATOM     44   S  GU6 D   3     125.266  25.450 120.5160  0.00  0.00     0.000 S
ATOM     45   O  GU6 D   3     126.133  26.129 121.4940  0.00  0.00     0.000 OA
ATOM     46   O  GU6 D   3     123.892  25.971 120.6350  0.00  0.00     0.000 O
ATOM     47   O  GU6 D   3     125.271  24.004 120.7130  0.00  0.00     0.000 OA
ENDBRANCH 38 43
BRANCH 39 48
ATOM     48   O  GU6 D   3     123.521  25.747 117.3980  0.00  0.00     0.000 O
ATOM     49   S  GU6 D   3     123.610  24.368 116.7460  0.00  0.00     0.000 S
ATOM     50   O  GU6 D   3     124.810  23.664 117.2150  0.00  0.00     0.000 OA
ATOM     51   O  GU6 D   3     122.387  23.700 117.2120  0.00  0.00     0.000 OA
ATOM     52   O  GU6 D   3     123.662  24.534 115.2770  0.00  0.00     0.000 O
ENDBRANCH 39 48
BRANCH 41 53
ATOM     53   C  GU6 D   3     124.871  30.332 115.9540  0.00  0.00     0.000 C
ATOM     54   O  GU6 D   3     125.486  30.108 114.7120  0.00  0.00     0.000 O
ATOM     55   S  GU6 D   3     125.539  31.223 113.6580  0.00  0.00     0.000 S
ATOM     56   O  GU6 D   3     126.405  32.291 114.2100  0.00  0.00     0.000 O
ATOM     57   O  GU6 D   3     126.116  30.673 112.4230  0.00  0.00     0.000 OA
ATOM     58   O  GU6 D   3     124.155  31.708 113.4620  0.00  0.00     0.000 OA
ENDBRANCH 41 53
BRANCH 37 59
ATOM     59  O4  Z9K D   4     127.618  27.392 117.2870  0.00  0.00     0.000 O
BRANCH 59 63
ATOM     60  C1  Z9K D   4     130.894  25.519 116.1890  0.00  0.00     0.000 C
ATOM     61  C2  Z9K D   4     131.002  25.431 117.7360  0.00  0.00     0.000 C
ATOM     62  C3  Z9K D   4     129.591  26.024 118.1710  0.00  0.00     0.000 C
ATOM     63  C4  Z9K D   4     129.062  27.336 117.4750  0.00  0.00     0.000 C
ATOM     64  C5  Z9K D   4     129.589  27.607 116.0580  0.00  0.00     0.000 C
ATOM     65  O5  Z9K D   4     129.775  26.271 115.5220  0.00  0.00     0.000 O
ATOM     66   O  Z9K D   4     129.496  26.289 119.5820  0.00  0.00     0.000 O
ATOM     67   C  Z9K D   4     129.113  25.170 120.3640  0.00  0.00     0.000 C
BRANCH 61 68
ATOM     68   O  Z9K D   4     130.978  24.072 118.0740  0.00  0.00     0.000 O
ATOM     69   O  Z9K D   4     132.460  25.399 119.6830  0.00  0.00     0.000 OA
ATOM     70   S  Z9K D   4     132.459  24.512 118.5600  0.00  0.00     0.000 S
ATOM     71   O  Z9K D   4     133.315  24.609 117.4170  0.00  0.00     0.000 OA
ATOM     72   O  Z9K D   4     132.388  23.151 118.9860  0.00  0.00     0.000 OA
ENDBRANCH 61 68
BRANCH 64 73
ATOM     73   C  Z9K D   4     128.663  28.586 115.3060  0.00  0.00     0.000 C
ATOM     74   O  Z9K D   4     128.617  29.813 115.6130  0.00  0.00     0.000 O
ATOM     75   O  Z9K D   4     127.927  28.207 114.3610  0.00  0.00     0.000 OA
ENDBRANCH 64 73
BRANCH 60 76
ATOM     76  O4  Z9L D   5     131.893  25.942 115.2450  0.00  0.00     0.000 O
BRANCH 76 80
ATOM     77  C1  Z9L D   5     133.507  25.188 111.6680  0.00  0.00     0.000 C
ATOM     78  C2  Z9L D   5     132.809  26.629 111.5740  0.00  0.00     0.000 C
ATOM     79  C3  Z9L D   5     132.541  27.142 113.1630  0.00  0.00     0.000 C
ATOM     80  C4  Z9L D   5     132.000  25.750 113.8580  0.00  0.00     0.000 C
ATOM     81  C5  Z9L D   5     132.563  24.242 113.7730  0.00  0.00     0.000 C
ATOM     82  O5  Z9L D   5     132.943  24.029 112.4060  0.00  0.00     0.000 O
ATOM     83   C  Z9L D   5     135.644  24.159 112.1830  0.00  0.00     0.000 C
ATOM     84   C  Z9L D   5     135.644  24.159 112.1830  0.00  0.00     0.000 C
BRANCH 78 85
ATOM     85   O  Z9L D   5     133.701  27.501 110.9570  0.00  0.00     0.000 O
ATOM     86   O  Z9L D   5     133.471  28.261 109.2020  0.00  0.00     0.000 OA
ATOM     87   S  Z9L D   5     132.500  27.466 109.8900  0.00  0.00     0.000 S
ATOM     88   O  Z9L D   5     131.422  28.374 110.1970  0.00  0.00     0.000 OA
ATOM     89   O  Z9L D   5     132.373  26.278 109.1180  0.00  0.00     0.000 OA
ENDBRANCH 78 85
BRANCH 79 90
ATOM     90   O  Z9L D   5     131.428  27.974 113.2460  0.00  0.00     0.000 O
ATOM     91   S  Z9L D   5     132.538  28.955 113.8310  0.00  0.00     0.000 S
ATOM     92   O  Z9L D   5     133.732  29.290 113.1010  0.00  0.00     0.000 OA
ATOM     93   O  Z9L D   5     132.550  28.857 115.2700  0.00  0.00     0.000 O
ATOM     94   O  Z9L D   5     131.545  29.919 113.4830  0.00  0.00     0.000 OA
ENDBRANCH 79 90
BRANCH 81 95
ATOM     95   C  Z9L D   5     131.682  23.047 114.5540  0.00  0.00     0.000 C
ATOM     96   S  Z9L D   5     130.271  21.659 114.3300  0.00  0.00     0.000 S
ATOM     97   O  Z9L D   5     130.530  23.102 113.7570  0.00  0.00     0.000 O
ATOM     98   O  Z9L D   5     129.881  21.823 115.7070  0.00  0.00     0.000 OA
ATOM     99   O  Z9L D   5     131.208  20.660 113.9400  0.00  0.00     0.000 OA
ATOM    100   O  Z9L D   5     129.094  21.780 113.5060  0.00  0.00     0.000 O
ENDBRANCH 81 95
ENDBRANCH 76 80
ENDBRANCH 60 76
ENDBRANCH 59 63
ENDBRANCH 37 59
ENDBRANCH 36 40
ENDBRANCH 23 36
ENDBRANCH 22 26
ENDBRANCH 1 22
TORSDOF 19
ENDMDL
MODEL 4
REMARK VINA RESULT:       0.0     56.749     63.881
ROOT
ATOM      1  C1  Z9H D   1      81.156  45.148  13.8200  0.00  0.00     0.000 C
ATOM      2  C2  Z9H D   1      82.279  44.857  12.7960  0.00  0.00     0.000 C
ATOM      3  C3  Z9H D   1      82.921  46.278  12.7590  0.00  0.00     0.000 C
ATOM      4  C4  Z9H D   1      81.908  47.475  12.5310  0.00  0.00     0.000 C
ATOM      5  C5  Z9H D   1      80.554  47.626  13.3320  0.00  0.00     0.000 C
ATOM      6  O5  Z9H D   1      80.221  46.240  13.5970  0.00  0.00     0.000 O
ATOM      7   O  Z9H D   1      83.993  46.347  11.8170  0.00  0.00     0.000 O
ATOM      8   C  Z9H D   1      85.311  46.209  12.3730  0.00  0.00     0.000 C
ATOM      9   O  Z9H D   1      82.664  48.671  12.7500  0.00  0.00     0.000 O
ATOM     10   C  Z9H D   1      83.135  49.328  11.5690  0.00  0.00     0.000 C
ENDROOT
BRANCH 2 11
ATOM     11   O  Z9H D   1      83.166  44.074  13.5500  0.00  0.00     0.000 O
ATOM     12   O  Z9H D   1      83.505  42.246  13.2260  0.00  0.00     0.000 OA
ATOM     13   S  Z9H D   1      82.644  43.064  12.4400  0.00  0.00     0.000 S
ATOM     14   O  Z9H D   1      83.206  43.452  11.1780  0.00  0.00     0.000 OA
ATOM     15   O  Z9H D   1      81.263  42.698  12.6580  0.00  0.00     0.000 O
ENDBRANCH 2 11
BRANCH 5 16
ATOM     16   C  Z9H D   1      79.441  48.674  12.6500  0.00  0.00     0.000 C
ATOM     17   S  Z9H D   1      78.062  50.078  13.0590  0.00  0.00     0.000 S
ATOM     18   O  Z9H D   1      79.532  49.701  13.6080  0.00  0.00     0.000 O
ATOM     19   O  Z9H D   1      77.039  49.120  13.3670  0.00  0.00     0.000 O
ATOM     20   O  Z9H D   1      78.161  50.734  11.8020  0.00  0.00     0.000 OA
ATOM     21   O  Z9H D   1      78.192  51.072  14.0830  0.00  0.00     0.000 OA
ENDBRANCH 5 16
BRANCH 1 22
ATOM     22  O4  GU1 D   2      81.626  45.472  15.1780  0.00  0.00     0.000 O
BRANCH 22 26
ATOM     23  C1  GU1 D   2      80.816  45.105  19.2010  0.00  0.00     0.000 C
ATOM     24  C2  GU1 D   2      80.405  43.910  18.3540  0.00  0.00     0.000 C
ATOM     25  C3  GU1 D   2      81.082  43.992  17.0170  0.00  0.00     0.000 C
ATOM     26  C4  GU1 D   2      80.825  45.340  16.3590  0.00  0.00     0.000 C
ATOM     27  C5  GU1 D   2      81.173  46.472  17.3300  0.00  0.00     0.000 C
ATOM     28  O5  GU1 D   2      80.456  46.319  18.5520  0.00  0.00     0.000 O
ATOM     29   O  GU1 D   2      80.770  42.677  18.9620  0.00  0.00     0.000 O
ATOM     30   C  GU1 D   2      79.718  42.064  19.6950  0.00  0.00     0.000 C
ATOM     31   C  GU1 D   2      81.387  41.821  16.0230  0.00  0.00     0.000 C
ATOM     32   O  GU1 D   2      80.548  42.964  16.1760  0.00  0.00     0.000 O
BRANCH 27 33
ATOM     33   C  GU1 D   2      80.815  47.820  16.7490  0.00  0.00     0.000 C
ATOM     34   O  GU1 D   2      79.641  48.104  16.6300  0.00  0.00     0.000 OA
ATOM     35   O  GU1 D   2      81.690  48.603  16.4130  0.00  0.00     0.000 O
ENDBRANCH 27 33
BRANCH 23 36
ATOM     36  O4  GU6 D   3      80.120  45.392  20.4300  0.00  0.00     0.000 O
BRANCH 36 40
ATOM     37  C1  GU6 D   3      77.586  46.917  23.2490  0.00  0.00     0.000 C
ATOM     38  C2  GU6 D   3      78.895  46.385  23.8180  0.00  0.00     0.000 C
ATOM     39  C3  GU6 D   3      79.857  46.103  22.6920  0.00  0.00     0.000 C
ATOM     40  C4  GU6 D   3      79.336  46.159  21.3220  0.00  0.00     0.000 C
ATOM     41  C5  GU6 D   3      77.888  45.569  21.2880  0.00  0.00     0.000 C
ATOM     42  O5  GU6 D   3      77.038  45.937  22.3810  0.00  0.00     0.000 O
BRANCH 38 43
ATOM     43   O  GU6 D   3      79.464  47.318  24.7160  0.00  0.00     0.000 O
ATOM     44   S  GU6 D   3      79.753  46.761  26.1030  0.00  0.00     0.000 S
ATOM     45   O  GU6 D   3      78.505  46.780  26.8850  0.00  0.00     0.000 OA
ATOM     46   O  GU6 D   3      80.223  45.370  25.9630  0.00  0.00     0.000 O
ATOM     47   O  GU6 D   3      80.787  47.577  26.7320  0.00  0.00     0.000 OA
ENDBRANCH 38 43
BRANCH 39 48
ATOM     48   O  GU6 D   3      81.249  46.019  22.9300  0.00  0.00     0.000 O
ATOM     49   S  GU6 D   3      82.341  47.071  22.7420  0.00  0.00     0.000 S
ATOM     50   O  GU6 D   3      82.004  48.288  23.4890  0.00  0.00     0.000 OA
ATOM     51   O  GU6 D   3      83.532  46.418  23.3000  0.00  0.00     0.000 OA
ATOM     52   O  GU6 D   3      82.466  47.380  21.3000  0.00  0.00     0.000 O
ENDBRANCH 39 48
BRANCH 41 53
ATOM     53   C  GU6 D   3      77.252  44.677  20.2560  0.00  0.00     0.000 C
ATOM     54   O  GU6 D   3      77.265  45.586  19.1850  0.00  0.00     0.000 O
ATOM     55   S  GU6 D   3      76.604  45.222  17.8480  0.00  0.00     0.000 S
ATOM     56   O  GU6 D   3      75.149  45.114  18.1060  0.00  0.00     0.000 O
ATOM     57   O  GU6 D   3      76.883  46.295  16.8820  0.00  0.00     0.000 OA
ATOM     58   O  GU6 D   3      77.167  43.922  17.4200  0.00  0.00     0.000 OA
ENDBRANCH 41 53
BRANCH 37 59
ATOM     59  O4  Z9K D   4      77.421  48.199  22.6080  0.00  0.00     0.000 O
BRANCH 59 63
ATOM     60  C1  Z9K D   4      76.919  52.089  22.3610  0.00  0.00     0.000 C
ATOM     61  C2  Z9K D   4      76.614  51.841  23.8640  0.00  0.00     0.000 C
ATOM     62  C3  Z9K D   4      76.997  50.303  23.9990  0.00  0.00     0.000 C
ATOM     63  C4  Z9K D   4      76.499  49.289  22.9010  0.00  0.00     0.000 C
ATOM     64  C5  Z9K D   4      76.234  49.879  21.5070  0.00  0.00     0.000 C
ATOM     65  O5  Z9K D   4      77.210  50.951  21.4210  0.00  0.00     0.000 O
ATOM     66   O  Z9K D   4      76.587  49.723  25.2510  0.00  0.00     0.000 O
ATOM     67   C  Z9K D   4      77.511  49.905  26.3110  0.00  0.00     0.000 C
BRANCH 61 68
ATOM     68   O  Z9K D   4      77.572  52.551  24.6010  0.00  0.00     0.000 O
ATOM     69   O  Z9K D   4      75.323  52.493  25.8200  0.00  0.00     0.000 OA
ATOM     70   S  Z9K D   4      76.200  53.300  25.0260  0.00  0.00     0.000 S
ATOM     71   O  Z9K D   4      75.801  54.177  23.9680  0.00  0.00     0.000 OA
ATOM     72   O  Z9K D   4      77.172  53.952  25.8430  0.00  0.00     0.000 OA
ENDBRANCH 61 68
BRANCH 64 73
ATOM     73   C  Z9K D   4      76.250  48.774  20.4310  0.00  0.00     0.000 C
ATOM     74   O  Z9K D   4      77.206  48.674  19.6070  0.00  0.00     0.000 O
ATOM     75   O  Z9K D   4      75.324  47.932  20.3340  0.00  0.00     0.000 OA
ENDBRANCH 64 73
BRANCH 60 76
ATOM     76  O4  Z9L D   5      76.146  52.833  21.4030  0.00  0.00     0.000 O
BRANCH 76 80
ATOM     77  C1  Z9L D   5      76.369  55.357  18.3120  0.00  0.00     0.000 C
ATOM     78  C2  Z9L D   5      75.734  53.992  17.7590  0.00  0.00     0.000 C
ATOM     79  C3  Z9L D   5      75.218  53.114  19.1100  0.00  0.00     0.000 C
ATOM     80  C4  Z9L D   5      76.482  53.350  20.1410  0.00  0.00     0.000 C
ATOM     81  C5  Z9L D   5      77.285  54.691  20.5340  0.00  0.00     0.000 C
ATOM     82  O5  Z9L D   5      77.462  55.428  19.3150  0.00  0.00     0.000 O
ATOM     83   C  Z9L D   5      75.710  57.499  19.2440  0.00  0.00     0.000 C
ATOM     84   C  Z9L D   5      75.710  57.499  19.2440  0.00  0.00     0.000 C
BRANCH 78 85
ATOM     85   O  Z9L D   5      74.629  54.316  16.9770  0.00  0.00     0.000 O
ATOM     86   O  Z9L D   5      74.526  54.103  15.0650  0.00  0.00     0.000 OA
ATOM     87   S  Z9L D   5      75.609  53.657  15.8880  0.00  0.00     0.000 S
ATOM     88   O  Z9L D   5      75.544  52.217  15.8420  0.00  0.00     0.000 OA
ATOM     89   O  Z9L D   5      76.729  54.438  15.4880  0.00  0.00     0.000 OA
ENDBRANCH 78 85
BRANCH 79 90
ATOM     90   O  Z9L D   5      75.272  51.743  18.8740  0.00  0.00     0.000 O
ATOM     91   S  Z9L D   5      73.728  51.892  19.2350  0.00  0.00     0.000 S
ATOM     92   O  Z9L D   5      72.855  52.790  18.5270  0.00  0.00     0.000 OA
ATOM     93   O  Z9L D   5      73.537  51.626  20.6390  0.00  0.00     0.000 O
ATOM     94   O  Z9L D   5      73.682  50.636  18.5580  0.00  0.00     0.000 OA
ENDBRANCH 79 90
BRANCH 81 95
ATOM     95   C  Z9L D   5      78.597  54.527  21.5670  0.00  0.00     0.000 C
ATOM     96   S  Z9L D   5      80.576  54.326  21.6620  0.00  0.00     0.000 S
ATOM     97   O  Z9L D   5      79.439  53.814  20.7010  0.00  0.00     0.000 O
ATOM     98   O  Z9L D   5      80.449  53.582  22.8890  0.00  0.00     0.000 OA
ATOM     99   O  Z9L D   5      80.795  55.733  21.6680  0.00  0.00     0.000 OA
ATOM    100   O  Z9L D   5      81.390  53.562  20.7480  0.00  0.00     0.000 O
ENDBRANCH 81 95
ENDBRANCH 76 80
ENDBRANCH 60 76
ENDBRANCH 59 63
ENDBRANCH 37 59
ENDBRANCH 36 40
ENDBRANCH 23 36
ENDBRANCH 22 26
ENDBRANCH 1 22
TORSDOF 19
ENDMDL
MODEL 5
REMARK VINA RESULT:       0.0     14.693     19.923
ROOT
ATOM      1  C1  Z9H D   1      35.856  57.346  77.2890  0.00  0.00     0.000 C
ATOM      2  C2  Z9H D   1      34.583  56.632  76.7730  0.00  0.00     0.000 C
ATOM      3  C3  Z9H D   1      34.121  57.715  75.7500  0.00  0.00     0.000 C
ATOM      4  C4  Z9H D   1      34.046  59.194  76.3140  0.00  0.00     0.000 C
ATOM      5  C5  Z9H D   1      35.207  59.856  77.1580  0.00  0.00     0.000 C
ATOM      6  O5  Z9H D   1      35.778  58.699  77.8180  0.00  0.00     0.000 O
ATOM      7   O  Z9H D   1      32.885  57.357  75.1280  0.00  0.00     0.000 O
ATOM      8   C  Z9H D   1      33.001  56.759  73.8260  0.00  0.00     0.000 C
ATOM      9   O  Z9H D   1      33.820  60.032  75.1760  0.00  0.00     0.000 O
ATOM     10   C  Z9H D   1      32.464  60.436  74.9660  0.00  0.00     0.000 C
ENDROOT
BRANCH 2 11
ATOM     11   O  Z9H D   1      35.125  55.599  75.9920  0.00  0.00     0.000 O
ATOM     12   O  Z9H D   1      34.999  53.767  76.4240  0.00  0.00     0.000 OA
ATOM     13   S  Z9H D   1      34.414  54.822  77.1820  0.00  0.00     0.000 S
ATOM     14   O  Z9H D   1      32.993  54.939  77.0120  0.00  0.00     0.000 OA
ATOM     15   O  Z9H D   1      35.119  54.997  78.4300  0.00  0.00     0.000 O
ENDBRANCH 2 11
BRANCH 5 16
ATOM     16   C  Z9H D   1      34.765  61.220  78.0210  0.00  0.00     0.000 C
ATOM     17   S  Z9H D   1      35.376  63.039  78.6190  0.00  0.00     0.000 S
ATOM     18   O  Z9H D   1      35.482  62.166  77.2650  0.00  0.00     0.000 O
ATOM     19   O  Z9H D   1      36.130  62.527  79.7270  0.00  0.00     0.000 O
ATOM     20   O  Z9H D   1      34.070  63.584  78.7500  0.00  0.00     0.000 OA
ATOM     21   O  Z9H D   1      36.149  63.943  77.8180  0.00  0.00     0.000 OA
ENDBRANCH 5 16
BRANCH 1 22
ATOM     22  O4  GU1 D   2      36.922  57.512  76.2860  0.00  0.00     0.000 O
BRANCH 22 26
ATOM     23  C1  GU1 D   2      40.996  57.575  75.6790  0.00  0.00     0.000 C
ATOM     24  C2  GU1 D   2      40.523  56.592  76.7390  0.00  0.00     0.000 C
ATOM     25  C3  GU1 D   2      39.043  56.384  76.5990  0.00  0.00     0.000 C
ATOM     26  C4  GU1 D   2      38.304  57.714  76.6070  0.00  0.00     0.000 C
ATOM     27  C5  GU1 D   2      38.924  58.665  75.5790  0.00  0.00     0.000 C
ATOM     28  O5  GU1 D   2      40.320  58.818  75.8190  0.00  0.00     0.000 O
ATOM     29   O  GU1 D   2      41.163  55.328  76.6160  0.00  0.00     0.000 O
ATOM     30   C  GU1 D   2      42.281  55.163  77.4760  0.00  0.00     0.000 C
ATOM     31   C  GU1 D   2      38.351  54.228  77.4130  0.00  0.00     0.000 C
ATOM     32   O  GU1 D   2      38.589  55.602  77.7080  0.00  0.00     0.000 O
BRANCH 27 33
ATOM     33   C  GU1 D   2      38.289  60.034  75.6480  0.00  0.00     0.000 C
ATOM     34   O  GU1 D   2      38.510  60.725  76.6210  0.00  0.00     0.000 OA
ATOM     35   O  GU1 D   2      37.575  60.434  74.7420  0.00  0.00     0.000 O
ENDBRANCH 27 33
BRANCH 23 36
ATOM     36  O4  GU6 D   3      42.325  58.129  75.7520  0.00  0.00     0.000 O
BRANCH 36 40
ATOM     37  C1  GU6 D   3      45.539  60.552  76.4580  0.00  0.00     0.000 C
ATOM     38  C2  GU6 D   3      45.734  59.589  75.2930  0.00  0.00     0.000 C
ATOM     39  C3  GU6 D   3      44.418  58.944  74.9450  0.00  0.00     0.000 C
ATOM     40  C4  GU6 D   3      43.293  59.153  75.8630  0.00  0.00     0.000 C
ATOM     41  C5  GU6 D   3      43.812  59.139  77.3390  0.00  0.00     0.000 C
ATOM     42  O5  GU6 D   3      45.049  59.821  77.5720  0.00  0.00     0.000 O
BRANCH 38 43
ATOM     43   O  GU6 D   3      46.251  60.269  74.1660  0.00  0.00     0.000 O
ATOM     44   S  GU6 D   3      47.541  59.678  73.6120  0.00  0.00     0.000 S
ATOM     45   O  GU6 D   3      48.669  60.174  74.4200  0.00  0.00     0.000 OA
ATOM     46   O  GU6 D   3      47.470  58.210  73.7190  0.00  0.00     0.000 O
ATOM     47   O  GU6 D   3      47.675  60.072  72.2130  0.00  0.00     0.000 OA
ENDBRANCH 38 43
BRANCH 39 48
ATOM     48   O  GU6 D   3      44.209  58.358  73.6740  0.00  0.00     0.000 O
ATOM     49   S  GU6 D   3      43.524  58.928  72.4330  0.00  0.00     0.000 S
ATOM     50   O  GU6 D   3      44.145  60.203  72.0530  0.00  0.00     0.000 OA
ATOM     51   O  GU6 D   3      43.767  57.896  71.4160  0.00  0.00     0.000 OA
ATOM     52   O  GU6 D   3      42.088  59.132  72.7280  0.00  0.00     0.000 O
ENDBRANCH 39 48
BRANCH 41 53
ATOM     53   C  GU6 D   3      43.184  58.519  78.5580  0.00  0.00     0.000 C
ATOM     54   O  GU6 D   3      42.045  59.336  78.6230  0.00  0.00     0.000 O
ATOM     55   S  GU6 D   3      41.062  59.210  79.7940  0.00  0.00     0.000 S
ATOM     56   O  GU6 D   3      41.788  59.646  81.0100  0.00  0.00     0.000 O
ATOM     57   O  GU6 D   3      39.909  60.085  79.5350  0.00  0.00     0.000 OA
ATOM     58   O  GU6 D   3      40.672  57.786  79.8890  0.00  0.00     0.000 OA
ENDBRANCH 41 53
BRANCH 37 59
ATOM     59  O4  Z9K D   4      44.796  61.788  76.3950  0.00  0.00     0.000 O
BRANCH 59 63
ATOM     60  C1  Z9K D   4      44.128  65.580  75.6090  0.00  0.00     0.000 C
ATOM     61  C2  Z9K D   4      45.668  65.500  75.4200  0.00  0.00     0.000 C
ATOM     62  C3  Z9K D   4      45.908  63.934  75.5570  0.00  0.00     0.000 C
ATOM     63  C4  Z9K D   4      45.200  63.148  76.7260  0.00  0.00     0.000 C
ATOM     64  C5  Z9K D   4      43.894  63.759  77.2560  0.00  0.00     0.000 C
ATOM     65  O5  Z9K D   4      43.332  64.392  76.0760  0.00  0.00     0.000 O
ATOM     66   O  Z9K D   4      47.298  63.578  75.6610  0.00  0.00     0.000 O
ATOM     67   C  Z9K D   4      47.960  63.432  74.4150  0.00  0.00     0.000 C
BRANCH 61 68
ATOM     68   O  Z9K D   4      45.935  65.824  74.0830  0.00  0.00     0.000 O
ATOM     69   O  Z9K D   4      47.811  66.633  75.6240  0.00  0.00     0.000 OA
ATOM     70   S  Z9K D   4      46.661  67.037  74.8730  0.00  0.00     0.000 S
ATOM     71   O  Z9K D   4      45.668  67.973  75.3030  0.00  0.00     0.000 OA
ATOM     72   O  Z9K D   4      47.008  67.304  73.5140  0.00  0.00     0.000 OA
ENDBRANCH 61 68
BRANCH 64 73
ATOM     73   C  Z9K D   4      43.055  62.700  78.0010  0.00  0.00     0.000 C
ATOM     74   O  Z9K D   4      43.407  62.265  79.1360  0.00  0.00     0.000 O
ATOM     75   O  Z9K D   4      41.994  62.236  77.5160  0.00  0.00     0.000 OA
ENDBRANCH 64 73
BRANCH 60 76
ATOM     76  O4  Z9L D   5      43.369  66.532  76.3740  0.00  0.00     0.000 O
BRANCH 76 80
ATOM     77  C1  Z9L D   5      40.052  68.761  76.4050  0.00  0.00     0.000 C
ATOM     78  C2  Z9L D   5      39.919  67.704  77.6040  0.00  0.00     0.000 C
ATOM     79  C3  Z9L D   5      41.469  67.089  77.8830  0.00  0.00     0.000 C
ATOM     80  C4  Z9L D   5      42.008  66.875  76.3410  0.00  0.00     0.000 C
ATOM     81  C5  Z9L D   5      41.941  67.848  75.0570  0.00  0.00     0.000 C
ATOM     82  O5  Z9L D   5      40.640  68.454  75.0760  0.00  0.00     0.000 O
ATOM     83   C  Z9L D   5      40.843  71.012  75.9570  0.00  0.00     0.000 C
ATOM     84   C  Z9L D   5      40.843  71.012  75.9570  0.00  0.00     0.000 C
BRANCH 78 85
ATOM     85   O  Z9L D   5      39.488  68.388  78.7360  0.00  0.00     0.000 O
ATOM     86   O  Z9L D   5      37.757  68.189  79.5580  0.00  0.00     0.000 OA
ATOM     87   S  Z9L D   5      38.249  67.399  78.4710  0.00  0.00     0.000 S
ATOM     88   O  Z9L D   5      38.432  66.078  79.0210  0.00  0.00     0.000 OA
ATOM     89   O  Z9L D   5      37.411  67.716  77.3670  0.00  0.00     0.000 OA
ENDBRANCH 78 85
BRANCH 79 90
ATOM     90   O  Z9L D   5      41.418  65.786  78.3700  0.00  0.00     0.000 O
ATOM     91   S  Z9L D   5      42.215  66.483  79.5590  0.00  0.00     0.000 S
ATOM     92   O  Z9L D   5      41.697  67.622  80.2700  0.00  0.00     0.000 OA
ATOM     93   O  Z9L D   5      43.632  66.328  79.3400  0.00  0.00     0.000 O
ATOM     94   O  Z9L D   5      41.764  65.316  80.2440  0.00  0.00     0.000 OA
ENDBRANCH 79 90
BRANCH 81 95
ATOM     95   C  Z9L D   5      42.520  67.243  73.6030  0.00  0.00     0.000 C
ATOM     96   S  Z9L D   5      42.013  66.355  71.8940  0.00  0.00     0.000 S
ATOM     97   O  Z9L D   5      41.536  66.267  73.3930  0.00  0.00     0.000 O
ATOM     98   O  Z9L D   5      43.304  65.720  71.8330  0.00  0.00     0.000 OA
ATOM     99   O  Z9L D   5      41.763  67.593  71.2370  0.00  0.00     0.000 OA
ATOM    100   O  Z9L D   5      40.999  65.340  71.7420  0.00  0.00     0.000 O
ENDBRANCH 81 95
ENDBRANCH 76 80
ENDBRANCH 60 76
ENDBRANCH 59 63
ENDBRANCH 37 59
ENDBRANCH 36 40
ENDBRANCH 23 36
ENDBRANCH 22 26
ENDBRANCH 1 22
TORSDOF 19
ENDMDL
MODEL 6
REMARK VINA RESULT:       0.0    131.511    136.469
ROOT
ATOM      1  C1  Z9H D   1     118.337 131.489 137.7920  0.00  0.00     0.000 C
ATOM      2  C2  Z9H D   1     117.609 132.118 139.0040  0.00  0.00     0.000 C
ATOM      3  C3  Z9H D   1     118.800 132.951 139.5700  0.00  0.00     0.000 C
ATOM      4  C4  Z9H D   1     120.155 132.153 139.7650  0.00  0.00     0.000 C
ATOM      5  C5  Z9H D   1     120.769 131.208 138.6560  0.00  0.00     0.000 C
ATOM      6  O5  Z9H D   1     119.573 130.746 137.9790  0.00  0.00     0.000 O
ATOM      7   O  Z9H D   1     118.443 133.626 140.7780  0.00  0.00     0.000 O
ATOM      8   C  Z9H D   1     118.078 135.008 140.6260  0.00  0.00     0.000 C
ATOM      9   O  Z9H D   1     121.146 133.138 140.0750  0.00  0.00     0.000 O
ATOM     10   C  Z9H D   1     121.459 133.282 141.4640  0.00  0.00     0.000 C
ENDROOT
BRANCH 2 11
ATOM     11   O  Z9H D   1     116.768 133.056 138.3850  0.00  0.00     0.000 O
ATOM     12   O  Z9H D   1     114.886 132.935 138.3550  0.00  0.00     0.000 OA
ATOM     13   S  Z9H D   1     115.749 132.017 139.0200  0.00  0.00     0.000 S
ATOM     14   O  Z9H D   1     115.774 132.173 140.4460  0.00  0.00     0.000 OA
ATOM     15   O  Z9H D   1     115.772 130.752 138.3210  0.00  0.00     0.000 O
ENDBRANCH 2 11
BRANCH 5 16
ATOM     16   C  Z9H D   1     121.930 130.134 139.2030  0.00  0.00     0.000 C
ATOM     17   S  Z9H D   1     123.651 129.212 138.7250  0.00  0.00     0.000 S
ATOM     18   O  Z9H D   1     123.037 130.693 138.5370  0.00  0.00     0.000 O
ATOM     19   O  Z9H D   1     123.000 128.188 137.9580  0.00  0.00     0.000 O
ATOM     20   O  Z9H D   1     124.081 129.025 140.0670  0.00  0.00     0.000 OA
ATOM     21   O  Z9H D   1     124.727 129.821 138.0010  0.00  0.00     0.000 OA
ENDBRANCH 5 16
BRANCH 1 22
ATOM     22  O4  GU1 D   2     118.756 132.449 136.7550  0.00  0.00     0.000 O
BRANCH 22 26
ATOM     23  C1  GU1 D   2     119.253 133.037 132.7080  0.00  0.00     0.000 C
ATOM     24  C2  GU1 D   2     118.065 132.165 133.0870  0.00  0.00     0.000 C
ATOM     25  C3  GU1 D   2     117.767 132.339 134.5480  0.00  0.00     0.000 C
ATOM     26  C4  GU1 D   2     119.011 132.098 135.3900  0.00  0.00     0.000 C
ATOM     27  C5  GU1 D   2     120.173 132.944 134.8620  0.00  0.00     0.000 C
ATOM     28  O5  GU1 D   2     120.394 132.681 133.4790  0.00  0.00     0.000 O
ATOM     29   O  GU1 D   2     116.898 132.508 132.3500  0.00  0.00     0.000 O
ATOM     30   C  GU1 D   2     116.676 131.690 131.2100  0.00  0.00     0.000 C
ATOM     31   C  GU1 D   2     115.452 131.914 135.0550  0.00  0.00     0.000 C
ATOM     32   O  GU1 D   2     116.769 131.384 134.9220  0.00  0.00     0.000 O
BRANCH 27 33
ATOM     33   C  GU1 D   2     121.453 132.636 135.6020  0.00  0.00     0.000 C
ATOM     34   O  GU1 D   2     121.979 131.557 135.4230  0.00  0.00     0.000 OA
ATOM     35   O  GU1 D   2     121.946 133.458 136.3590  0.00  0.00     0.000 O
ENDBRANCH 27 33
BRANCH 23 36
ATOM     36  O4  GU6 D   3     119.892 132.869 131.4270  0.00  0.00     0.000 O
BRANCH 36 40
ATOM     37  C1  GU6 D   3     122.413 131.782 128.4010  0.00  0.00     0.000 C
ATOM     38  C2  GU6 D   3     121.688 133.100 128.1590  0.00  0.00     0.000 C
ATOM     39  C3  GU6 D   3     121.007 133.542 129.4280  0.00  0.00     0.000 C
ATOM     40  C4  GU6 D   3     120.958 132.589 130.5420  0.00  0.00     0.000 C
ATOM     41  C5  GU6 D   3     120.729 131.145 129.9860  0.00  0.00     0.000 C
ATOM     42  O5  GU6 D   3     121.461 130.809 128.8020  0.00  0.00     0.000 O
BRANCH 38 43
ATOM     43   O  GU6 D   3     122.596 134.095 127.7270  0.00  0.00     0.000 O
ATOM     44   S  GU6 D   3     122.222 134.758 126.4080  0.00  0.00     0.000 S
ATOM     45   O  GU6 D   3     122.663 133.887 125.3050  0.00  0.00     0.000 OA
ATOM     46   O  GU6 D   3     120.757 134.910 126.3560  0.00  0.00     0.000 O
ATOM     47   O  GU6 D   3     122.864 136.067 126.3410  0.00  0.00     0.000 OA
ENDBRANCH 38 43
BRANCH 39 48
ATOM     48   O  GU6 D   3     120.637 134.894 129.6210  0.00  0.00     0.000 O
ATOM     49   S  GU6 D   3     121.357 136.009 130.3790  0.00  0.00     0.000 S
ATOM     50   O  GU6 D   3     122.725 136.164 129.8690  0.00  0.00     0.000 OA
ATOM     51   O  GU6 D   3     120.542 137.194 130.0810  0.00  0.00     0.000 OA
ATOM     52   O  GU6 D   3     121.389 135.668 131.8180  0.00  0.00     0.000 O
ENDBRANCH 39 48
BRANCH 41 53
ATOM     53   C  GU6 D   3     119.855 130.047 130.5300  0.00  0.00     0.000 C
ATOM     54   O  GU6 D   3     120.540 129.839 131.7380  0.00  0.00     0.000 O
ATOM     55   S  GU6 D   3     120.126 128.703 132.6820  0.00  0.00     0.000 S
ATOM     56   O  GU6 D   3     120.415 127.433 131.9750  0.00  0.00     0.000 O
ATOM     57   O  GU6 D   3     120.922 128.804 133.9140  0.00  0.00     0.000 OA
ATOM     58   O  GU6 D   3     118.676 128.851 132.9390  0.00  0.00     0.000 OA
ENDBRANCH 41 53
BRANCH 37 59
ATOM     59  O4  Z9K D   4     123.575 131.617 129.2420  0.00  0.00     0.000 O
BRANCH 59 63
ATOM     60  C1  Z9K D   4     127.376 131.714 130.2350  0.00  0.00     0.000 C
ATOM     61  C2  Z9K D   4     127.460 131.935 128.7000  0.00  0.00     0.000 C
ATOM     62  C3  Z9K D   4     125.920 132.079 128.3310  0.00  0.00     0.000 C
ATOM     63  C4  Z9K D   4     124.886 131.058 128.9400  0.00  0.00     0.000 C
ATOM     64  C5  Z9K D   4     125.283 130.411 130.2760  0.00  0.00     0.000 C
ATOM     65  O5  Z9K D   4     126.062 131.454 130.9190  0.00  0.00     0.000 O
ATOM     66   O  Z9K D   4     125.670 132.058 126.9140  0.00  0.00     0.000 O
ATOM     67   C  Z9K D   4     125.800 133.318 126.2770  0.00  0.00     0.000 C
BRANCH 61 68
ATOM     68   O  Z9K D   4     128.034 133.197 128.4970  0.00  0.00     0.000 O
ATOM     69   O  Z9K D   4     128.715 131.563 126.6490  0.00  0.00     0.000 OA
ATOM     70   S  Z9K D   4     129.147 132.215 127.8480  0.00  0.00     0.000 S
ATOM     71   O  Z9K D   4     129.907 131.614 128.9000  0.00  0.00     0.000 OA
ATOM     72   O  Z9K D   4     129.675 133.510 127.5620  0.00  0.00     0.000 OA
ENDBRANCH 61 68
BRANCH 64 73
ATOM     73   C  Z9K D   4     124.043 129.854 131.0060  0.00  0.00     0.000 C
ATOM     74   O  Z9K D   4     123.442 128.823 130.5840  0.00  0.00     0.000 O
ATOM     75   O  Z9K D   4     123.588 130.393 132.0440  0.00  0.00     0.000 OA
ENDBRANCH 64 73
BRANCH 60 76
ATOM     76  O4  Z9L D   5     128.113 130.784 131.0470  0.00  0.00     0.000 O
BRANCH 76 80
ATOM     77  C1  Z9L D   5     130.024 130.318 134.5260  0.00  0.00     0.000 C
ATOM     78  C2  Z9L D   5     128.762 129.329 134.5480  0.00  0.00     0.000 C
ATOM     79  C3  Z9L D   5     128.234 129.180 132.9470  0.00  0.00     0.000 C
ATOM     80  C4  Z9L D   5     128.345 130.741 132.4320  0.00  0.00     0.000 C
ATOM     81  C5  Z9L D   5     129.523 131.828 132.6050  0.00  0.00     0.000 C
ATOM     82  O5  Z9L D   5     130.008 131.687 133.9490  0.00  0.00     0.000 O
ATOM     83   C  Z9L D   5     132.375 130.360 133.9250  0.00  0.00     0.000 C
ATOM     84   C  Z9L D   5     132.375 130.360 133.9250  0.00  0.00     0.000 C
BRANCH 78 85
ATOM     85   O  Z9L D   5     129.194 128.087 135.0030  0.00  0.00     0.000 O
ATOM     86   O  Z9L D   5     128.717 127.302 136.6960  0.00  0.00     0.000 OA
ATOM     87   S  Z9L D   5     128.177 128.518 136.1700  0.00  0.00     0.000 S
ATOM     88   O  Z9L D   5     126.797 128.219 135.8780  0.00  0.00     0.000 OA
ATOM     89   O  Z9L D   5     128.623 129.539 137.0540  0.00  0.00     0.000 OA
ENDBRANCH 78 85
BRANCH 79 90
ATOM     90   O  Z9L D   5     126.865 128.937 132.8850  0.00  0.00     0.000 O
ATOM     91   S  Z9L D   5     127.400 127.648 132.1170  0.00  0.00     0.000 S
ATOM     92   O  Z9L D   5     128.347 126.738 132.7050  0.00  0.00     0.000 OA
ATOM     93   O  Z9L D   5     127.402 127.905 130.6980  0.00  0.00     0.000 O
ATOM     94   O  Z9L D   5     126.096 127.181 132.4590  0.00  0.00     0.000 OA
ENDBRANCH 79 90
BRANCH 81 95
ATOM     95   C  Z9L D   5     129.238 133.372 132.0160  0.00  0.00     0.000 C
ATOM     96   S  Z9L D   5     128.627 135.207 132.4930  0.00  0.00     0.000 S
ATOM     97   O  Z9L D   5     128.234 133.744 132.9220  0.00  0.00     0.000 O
ATOM     98   O  Z9L D   5     128.126 135.395 131.1550  0.00  0.00     0.000 OA
ATOM     99   O  Z9L D   5     129.936 135.629 132.8600  0.00  0.00     0.000 OA
ATOM    100   O  Z9L D   5     127.573 135.528 133.4230  0.00  0.00     0.000 O
ENDBRANCH 81 95
ENDBRANCH 76 80
ENDBRANCH 60 76
ENDBRANCH 59 63
ENDBRANCH 37 59
ENDBRANCH 36 40
ENDBRANCH 23 36
ENDBRANCH 22 26
ENDBRANCH 1 22
TORSDOF 19
ENDMDL
MODEL 7
REMARK VINA RESULT:       0.0     55.052     62.347
ROOT
ATOM      1  C1  Z9H D   1      58.173  92.876  96.7760  0.00  0.00     0.000 C
ATOM      2  C2  Z9H D   1      57.229  91.869  96.0780  0.00  0.00     0.000 C
ATOM      3  C3  Z9H D   1      57.315  90.719  97.1280  0.00  0.00     0.000 C
ATOM      4  C4  Z9H D   1      58.782  90.294  97.5500  0.00  0.00     0.000 C
ATOM      5  C5  Z9H D   1      59.904  91.335  97.9470  0.00  0.00     0.000 C
ATOM      6  O5  Z9H D   1      59.524  92.484  97.1490  0.00  0.00     0.000 O
ATOM      7   O  Z9H D   1      56.565  89.574  96.7180  0.00  0.00     0.000 O
ATOM      8   C  Z9H D   1      55.254  89.457  97.2970  0.00  0.00     0.000 C
ATOM      9   O  Z9H D   1      58.624  89.400  98.6580  0.00  0.00     0.000 O
ATOM     10   C  Z9H D   1      58.706  88.007  98.3430  0.00  0.00     0.000 C
ENDROOT
BRANCH 2 11
ATOM     11   O  Z9H D   1      55.971  92.457  96.2830  0.00  0.00     0.000 O
ATOM     12   O  Z9H D   1      54.900  93.174  94.9060  0.00  0.00     0.000 OA
ATOM     13   S  Z9H D   1      56.155  92.532  94.7070  0.00  0.00     0.000 S
ATOM     14   O  Z9H D   1      56.049  91.202  94.1770  0.00  0.00     0.000 OA
ATOM     15   O  Z9H D   1      57.162  93.498  94.3320  0.00  0.00     0.000 O
ENDBRANCH 2 11
BRANCH 5 16
ATOM     16   C  Z9H D   1      61.466  90.737  97.9240  0.00  0.00     0.000 C
ATOM     17   S  Z9H D   1      63.268  90.849  98.8080  0.00  0.00     0.000 S
ATOM     18   O  Z9H D   1      61.731  90.837  99.3020  0.00  0.00     0.000 O
ATOM     19   O  Z9H D   1      63.658  92.023  98.0810  0.00  0.00     0.000 O
ATOM     20   O  Z9H D   1      63.677  89.537  98.4480  0.00  0.00     0.000 OA
ATOM     21   O  Z9H D   1      63.474  90.999 100.2190  0.00  0.00     0.000 OA
ENDBRANCH 5 16
BRANCH 1 22
ATOM     22  O4  GU1 D   2      57.681  93.396  98.0640  0.00  0.00     0.000 O
BRANCH 22 26
ATOM     23  C1  GU1 D   2      57.535  96.688 100.5360  0.00  0.00     0.000 C
ATOM     24  C2  GU1 D   2      57.485  97.003  99.0490  0.00  0.00     0.000 C
ATOM     25  C3  GU1 D   2      57.161  95.751  98.2860  0.00  0.00     0.000 C
ATOM     26  C4  GU1 D   2      58.117  94.626  98.6550  0.00  0.00     0.000 C
ATOM     27  C5  GU1 D   2      58.172  94.461 100.1760  0.00  0.00     0.000 C
ATOM     28  O5  GU1 D   2      58.518  95.695 100.8000  0.00  0.00     0.000 O
ATOM     29   O  GU1 D   2      56.496  97.978  98.7430  0.00  0.00     0.000 O
ATOM     30   C  GU1 D   2      57.005  99.300  98.6400  0.00  0.00     0.000 C
ATOM     31   C  GU1 D   2      56.063  96.223  96.1970  0.00  0.00     0.000 C
ATOM     32   O  GU1 D   2      57.294  96.025  96.8880  0.00  0.00     0.000 O
BRANCH 27 33
ATOM     33   C  GU1 D   2      59.203  93.434 100.5780  0.00  0.00     0.000 C
ATOM     34   O  GU1 D   2      60.377  93.702 100.4220  0.00  0.00     0.000 OA
ATOM     35   O  GU1 D   2      58.860  92.362 101.0530  0.00  0.00     0.000 O
ENDBRANCH 27 33
BRANCH 23 36
ATOM     36  O4  GU6 D   3      58.065  97.659 101.4610  0.00  0.00     0.000 O
BRANCH 36 40
ATOM     37  C1  GU6 D   3      60.496  99.789 103.9590  0.00  0.00     0.000 C
ATOM     38  C2  GU6 D   3      59.014  99.907 104.2900  0.00  0.00     0.000 C
ATOM     39  C3  GU6 D   3      58.237  98.887 103.4990  0.00  0.00     0.000 C
ATOM     40  C4  GU6 D   3      58.949  98.157 102.4440  0.00  0.00     0.000 C
ATOM     41  C5  GU6 D   3      59.946  99.122 101.7220  0.00  0.00     0.000 C
ATOM     42  O5  GU6 D   3      60.670 100.021 102.5700  0.00  0.00     0.000 O
BRANCH 38 43
ATOM     43   O  GU6 D   3      58.795  99.713 105.6740  0.00  0.00     0.000 O
ATOM     44   S  GU6 D   3      58.046 100.849 106.3580  0.00  0.00     0.000 S
ATOM     45   O  GU6 D   3      59.004 101.924 106.6670  0.00  0.00     0.000 OA
ATOM     46   O  GU6 D   3      57.019 101.360 105.4320  0.00  0.00     0.000 O
ATOM     47   O  GU6 D   3      57.415 100.334 107.5700  0.00  0.00     0.000 OA
ENDBRANCH 38 43
BRANCH 39 48
ATOM     48   O  GU6 D   3      56.945  98.481 103.9080  0.00  0.00     0.000 O
ATOM     49   S  GU6 D   3      56.509  97.253 104.7070  0.00  0.00     0.000 S
ATOM     50   O  GU6 D   3      57.235  97.195 105.9810  0.00  0.00     0.000 OA
ATOM     51   O  GU6 D   3      55.075  97.488 104.9220  0.00  0.00     0.000 OA
ATOM     52   O  GU6 D   3      56.789  96.038 103.9090  0.00  0.00     0.000 O
ENDBRANCH 39 48
BRANCH 41 53
ATOM     53   C  GU6 D   3      60.265  99.231 100.2550  0.00  0.00     0.000 C
ATOM     54   O  GU6 D   3      60.861  97.969 100.0960  0.00  0.00     0.000 O
ATOM     55   S  GU6 D   3      61.498  97.573  98.7580  0.00  0.00     0.000 S
ATOM     56   O  GU6 D   3      62.668  98.461  98.5620  0.00  0.00     0.000 O
ATOM     57   O  GU6 D   3      61.921  96.167  98.8380  0.00  0.00     0.000 OA
ATOM     58   O  GU6 D   3      60.482  97.792  97.7050  0.00  0.00     0.000 OA
ENDBRANCH 41 53
BRANCH 37 59
ATOM     59  O4  Z9K D   4      61.338  98.673 104.3170  0.00  0.00     0.000 O
BRANCH 59 63
ATOM     60  C1  Z9K D   4      63.575  96.433 106.6460  0.00  0.00     0.000 C
ATOM     61  C2  Z9K D   4      63.462  97.730 107.4940  0.00  0.00     0.000 C
ATOM     62  C3  Z9K D   4      62.410  98.559 106.6370  0.00  0.00     0.000 C
ATOM     63  C4  Z9K D   4      62.584  98.635 105.0730  0.00  0.00     0.000 C
ATOM     64  C5  Z9K D   4      63.330  97.461 104.4190  0.00  0.00     0.000 C
ATOM     65  O5  Z9K D   4      62.975  96.340 105.2700  0.00  0.00     0.000 O
ATOM     66   O  Z9K D   4      62.285  99.928 107.0620  0.00  0.00     0.000 O
ATOM     67   C  Z9K D   4      61.370 100.130 108.1260  0.00  0.00     0.000 C
BRANCH 61 68
ATOM     68   O  Z9K D   4      62.813  97.386 108.6880  0.00  0.00     0.000 O
ATOM     69   O  Z9K D   4      64.529  99.246 109.0690  0.00  0.00     0.000 OA
ATOM     70   S  Z9K D   4      64.273  97.845 109.2200  0.00  0.00     0.000 S
ATOM     71   O  Z9K D   4      65.210  96.792 108.9760  0.00  0.00     0.000 OA
ATOM     72   O  Z9K D   4      63.571  97.584 110.4350  0.00  0.00     0.000 OA
ENDBRANCH 61 68
BRANCH 64 73
ATOM     73   C  Z9K D   4      63.009  97.379 102.9120  0.00  0.00     0.000 C
ATOM     74   O  Z9K D   4      62.289  96.449 102.4440  0.00  0.00     0.000 O
ATOM     75   O  Z9K D   4      63.442  98.229 102.0960  0.00  0.00     0.000 OA
ENDBRANCH 64 73
BRANCH 60 76
ATOM     76  O4  Z9L D   5      64.756  95.687 106.3060  0.00  0.00     0.000 O
BRANCH 76 80
ATOM     77  C1  Z9L D   5      66.195  92.027 105.5930  0.00  0.00     0.000 C
ATOM     78  C2  Z9L D   5      66.320  92.855 104.2260  0.00  0.00     0.000 C
ATOM     79  C3  Z9L D   5      66.155  94.489 104.6300  0.00  0.00     0.000 C
ATOM     80  C4  Z9L D   5      64.918  94.423 105.7160  0.00  0.00     0.000 C
ATOM     81  C5  Z9L D   5      64.665  93.438 106.9680  0.00  0.00     0.000 C
ATOM     82  O5  Z9L D   5      65.049  92.125 106.5320  0.00  0.00     0.000 O
ATOM     83   C  Z9L D   5      67.465  91.487 107.5910  0.00  0.00     0.000 C
ATOM     84   C  Z9L D   5      67.465  91.487 107.5910  0.00  0.00     0.000 C
BRANCH 78 85
ATOM     85   O  Z9L D   5      67.593  92.640 103.7050  0.00  0.00     0.000 O
ATOM     86   O  Z9L D   5      67.980  91.642 102.1040  0.00  0.00     0.000 OA
ATOM     87   S  Z9L D   5      66.668  91.972 102.5730  0.00  0.00     0.000 S
ATOM     88   O  Z9L D   5      66.153  92.915 101.6120  0.00  0.00     0.000 OA
ATOM     89   O  Z9L D   5      66.065  90.727 102.9020  0.00  0.00     0.000 OA
ENDBRANCH 78 85
BRANCH 79 90
ATOM     90   O  Z9L D   5      65.599  95.218 103.5820  0.00  0.00     0.000 O
ATOM     91   S  Z9L D   5      66.957  96.027 103.7800  0.00  0.00     0.000 S
ATOM     92   O  Z9L D   5      68.248  95.394 103.7160  0.00  0.00     0.000 OA
ATOM     93   O  Z9L D   5      66.722  97.146 104.6590  0.00  0.00     0.000 O
ATOM     94   O  Z9L D   5      66.629  96.455 102.4580  0.00  0.00     0.000 OA
ENDBRANCH 79 90
BRANCH 81 95
ATOM     95   C  Z9L D   5      63.223  93.612 107.8050  0.00  0.00     0.000 C
ATOM     96   S  Z9L D   5      61.362  92.929 107.9990  0.00  0.00     0.000 S
ATOM     97   O  Z9L D   5      62.357  93.157 106.8000  0.00  0.00     0.000 O
ATOM     98   O  Z9L D   5      60.920  94.233 108.4230  0.00  0.00     0.000 OA
ATOM     99   O  Z9L D   5      61.745  91.933 108.9410  0.00  0.00     0.000 OA
ATOM    100   O  Z9L D   5      60.511  92.488 106.9210  0.00  0.00     0.000 O
ENDBRANCH 81 95
ENDBRANCH 76 80
ENDBRANCH 60 76
ENDBRANCH 59 63
ENDBRANCH 37 59
ENDBRANCH 36 40
ENDBRANCH 23 36
ENDBRANCH 22 26
ENDBRANCH 1 22
TORSDOF 19
ENDMDL
MODEL 8
REMARK VINA RESULT:       0.0     34.375     39.704
ROOT
ATOM      1  C1  Z9H D   1      58.543  74.097  46.8760  0.00  0.00     0.000 C
ATOM      2  C2  Z9H D   1      57.994  73.259  48.0550  0.00  0.00     0.000 C
ATOM      3  C3  Z9H D   1      59.334  73.052  48.8240  0.00  0.00     0.000 C
ATOM      4  C4  Z9H D   1      60.545  72.522  47.9500  0.00  0.00     0.000 C
ATOM      5  C5  Z9H D   1      60.935  73.141  46.5490  0.00  0.00     0.000 C
ATOM      6  O5  Z9H D   1      59.646  73.599  46.0680  0.00  0.00     0.000 O
ATOM      7   O  Z9H D   1      59.157  72.229  49.9790  0.00  0.00     0.000 O
ATOM      8   C  Z9H D   1      59.020  72.935  51.2230  0.00  0.00     0.000 C
ATOM      9   O  Z9H D   1      61.700  72.615  48.7890  0.00  0.00     0.000 O
ATOM     10   C  Z9H D   1      62.103  71.397  49.4230  0.00  0.00     0.000 C
ENDROOT
BRANCH 2 11
ATOM     11   O  Z9H D   1      57.291  74.222  48.7950  0.00  0.00     0.000 O
ATOM     12   O  Z9H D   1      55.416  74.246  48.9940  0.00  0.00     0.000 OA
ATOM     13   S  Z9H D   1      56.144  73.248  48.2860  0.00  0.00     0.000 S
ATOM     14   O  Z9H D   1      56.262  72.005  48.9920  0.00  0.00     0.000 OA
ATOM     15   O  Z9H D   1      55.926  73.379  46.8630  0.00  0.00     0.000 O
ENDBRANCH 2 11
BRANCH 5 16
ATOM     16   C  Z9H D   1      61.926  72.181  45.6020  0.00  0.00     0.000 C
ATOM     17   S  Z9H D   1      63.465  72.205  44.3090  0.00  0.00     0.000 S
ATOM     18   O  Z9H D   1      63.088  72.971  45.6790  0.00  0.00     0.000 O
ATOM     19   O  Z9H D   1      62.639  72.540  43.1840  0.00  0.00     0.000 O
ATOM     20   O  Z9H D   1      63.898  70.881  44.5900  0.00  0.00     0.000 OA
ATOM     21   O  Z9H D   1      64.604  73.069  44.4150  0.00  0.00     0.000 OA
ENDBRANCH 5 16
BRANCH 1 22
ATOM     22  O4  GU1 D   2      59.064  75.424  47.2500  0.00  0.00     0.000 O
BRANCH 22 26
ATOM     23  C1  GU1 D   2      59.465  79.345  46.0530  0.00  0.00     0.000 C
ATOM     24  C2  GU1 D   2      58.176  78.670  45.6110  0.00  0.00     0.000 C
ATOM     25  C3  GU1 D   2      57.972  77.415  46.4090  0.00  0.00     0.000 C
ATOM     26  C4  GU1 D   2      59.201  76.520  46.3380  0.00  0.00     0.000 C
ATOM     27  C5  GU1 D   2      60.455  77.321  46.7000  0.00  0.00     0.000 C
ATOM     28  O5  GU1 D   2      60.571  78.470  45.8650  0.00  0.00     0.000 O
ATOM     29   O  GU1 D   2      57.043  79.509  45.8040  0.00  0.00     0.000 O
ATOM     30   C  GU1 D   2      56.648  80.220  44.6390  0.00  0.00     0.000 C
ATOM     31   C  GU1 D   2      55.645  76.832  46.6000  0.00  0.00     0.000 C
ATOM     32   O  GU1 D   2      56.857  76.706  45.8600  0.00  0.00     0.000 O
BRANCH 27 33
ATOM     33   C  GU1 D   2      61.704  76.491  46.5210  0.00  0.00     0.000 C
ATOM     34   O  GU1 D   2      62.308  76.136  47.5120  0.00  0.00     0.000 OA
ATOM     35   O  GU1 D   2      62.091  76.184  45.4040  0.00  0.00     0.000 O
ENDBRANCH 27 33
BRANCH 23 36
ATOM     36  O4  GU6 D   3      60.013  80.431  45.2780  0.00  0.00     0.000 O
BRANCH 36 40
ATOM     37  C1  GU6 D   3      62.188  82.674  42.6460  0.00  0.00     0.000 C
ATOM     38  C2  GU6 D   3      61.662  83.460  43.8410  0.00  0.00     0.000 C
ATOM     39  C3  GU6 D   3      61.119  82.506  44.8720  0.00  0.00     0.000 C
ATOM     40  C4  GU6 D   3      60.979  81.096  44.4900  0.00  0.00     0.000 C
ATOM     41  C5  GU6 D   3      60.506  81.002  43.0020  0.00  0.00     0.000 C
ATOM     42  O5  GU6 D   3      61.119  81.922  42.0930  0.00  0.00     0.000 O
BRANCH 38 43
ATOM     43   O  GU6 D   3      62.690  84.250  44.4080  0.00  0.00     0.000 O
ATOM     44   S  GU6 D   3      62.357  85.733  44.5120  0.00  0.00     0.000 S
ATOM     45   O  GU6 D   3      62.606  86.362  43.2030  0.00  0.00     0.000 OA
ATOM     46   O  GU6 D   3      60.932  85.872  44.8600  0.00  0.00     0.000 O
ATOM     47   O  GU6 D   3      63.187  86.328  45.5540  0.00  0.00     0.000 OA
ENDBRANCH 38 43
BRANCH 39 48
ATOM     48   O  GU6 D   3      60.970  82.903  46.2220  0.00  0.00     0.000 O
ATOM     49   S  GU6 D   3      61.887  82.664  47.4210  0.00  0.00     0.000 S
ATOM     50   O  GU6 D   3      63.237  83.160  47.1330  0.00  0.00     0.000 OA
ATOM     51   O  GU6 D   3      61.249  83.447  48.4890  0.00  0.00     0.000 OA
ATOM     52   O  GU6 D   3      61.931  81.213  47.7090  0.00  0.00     0.000 O
ENDBRANCH 39 48
BRANCH 41 53
ATOM     53   C  GU6 D   3      59.502  80.066  42.3850  0.00  0.00     0.000 C
ATOM     54   O  GU6 D   3      60.211  78.870  42.5810  0.00  0.00     0.000 O
ATOM     55   S  GU6 D   3      59.676  77.547  42.0170  0.00  0.00     0.000 S
ATOM     56   O  GU6 D   3      59.724  77.662  40.5400  0.00  0.00     0.000 O
ATOM     57   O  GU6 D   3      60.544  76.455  42.4820  0.00  0.00     0.000 OA
ATOM     58   O  GU6 D   3      58.283  77.397  42.4940  0.00  0.00     0.000 OA
ENDBRANCH 41 53
BRANCH 37 59
ATOM     59  O4  Z9K D   4      63.351  81.818  42.6630  0.00  0.00     0.000 O
BRANCH 59 63
ATOM     60  C1  Z9K D   4      67.170  80.898  42.5480  0.00  0.00     0.000 C
ATOM     61  C2  Z9K D   4      67.202  82.376  42.0700  0.00  0.00     0.000 C
ATOM     62  C3  Z9K D   4      65.685  82.798  42.2940  0.00  0.00     0.000 C
ATOM     63  C4  Z9K D   4      64.539  81.825  41.8200  0.00  0.00     0.000 C
ATOM     64  C5  Z9K D   4      64.904  80.334  41.7550  0.00  0.00     0.000 C
ATOM     65  O5  Z9K D   4      65.871  80.192  42.8280  0.00  0.00     0.000 O
ATOM     66   O  Z9K D   4      65.356  84.070  41.7070  0.00  0.00     0.000 O
ATOM     67   C  Z9K D   4      65.645  85.188  42.5300  0.00  0.00     0.000 C
BRANCH 61 68
ATOM     68   O  Z9K D   4      67.953  83.096  43.0080  0.00  0.00     0.000 O
ATOM     69   O  Z9K D   4      68.270  84.038  40.6500  0.00  0.00     0.000 OA
ATOM     70   S  Z9K D   4      68.863  83.233  41.6750  0.00  0.00     0.000 S
ATOM     71   O  Z9K D   4      69.576  82.009  41.4690  0.00  0.00     0.000 OA
ATOM     72   O  Z9K D   4      69.570  84.043  42.6130  0.00  0.00     0.000 OA
ENDBRANCH 61 68
BRANCH 64 73
ATOM     73   C  Z9K D   4      63.635  79.457  41.7790  0.00  0.00     0.000 C
ATOM     74   O  Z9K D   4      63.326  78.778  42.8010  0.00  0.00     0.000 O
ATOM     75   O  Z9K D   4      62.860  79.387  40.7940  0.00  0.00     0.000 OA
ENDBRANCH 64 73
BRANCH 60 76
ATOM     76  O4  Z9L D   5      67.796  79.751  41.9500  0.00  0.00     0.000 O
BRANCH 76 80
ATOM     77  C1  Z9L D   5      69.667  76.305  42.7220  0.00  0.00     0.000 C
ATOM     78  C2  Z9L D   5      68.296  75.938  41.9750  0.00  0.00     0.000 C
ATOM     79  C3  Z9L D   5      67.742  77.362  41.2510  0.00  0.00     0.000 C
ATOM     80  C4  Z9L D   5      68.033  78.458  42.4460  0.00  0.00     0.000 C
ATOM     81  C5  Z9L D   5      69.334  78.690  43.3690  0.00  0.00     0.000 C
ATOM     82  O5  Z9L D   5      69.810  77.385  43.7310  0.00  0.00     0.000 O
ATOM     83   C  Z9L D   5      72.002  76.776  42.2510  0.00  0.00     0.000 C
ATOM     84   C  Z9L D   5      72.002  76.776  42.2510  0.00  0.00     0.000 C
BRANCH 78 85
ATOM     85   O  Z9L D   5      68.581  75.003  40.9840  0.00  0.00     0.000 O
ATOM     86   O  Z9L D   5      68.027  73.158  41.0110  0.00  0.00     0.000 OA
ATOM     87   S  Z9L D   5      67.631  74.152  41.9620  0.00  0.00     0.000 S
ATOM     88   O  Z9L D   5      66.223  74.356  41.7270  0.00  0.00     0.000 OA
ATOM     89   O  Z9L D   5      68.202  73.736  43.1970  0.00  0.00     0.000 OA
ENDBRANCH 78 85
BRANCH 79 90
ATOM     90   O  Z9L D   5      66.353  77.376  41.1590  0.00  0.00     0.000 O
ATOM     91   S  Z9L D   5      66.723  77.555  39.6210  0.00  0.00     0.000 S
ATOM     92   O  Z9L D   5      67.561  76.620  38.9160  0.00  0.00     0.000 OA
ATOM     93   O  Z9L D   5      66.743  78.960  39.2950  0.00  0.00     0.000 O
ATOM     94   O  Z9L D   5      65.376  77.108  39.4780  0.00  0.00     0.000 OA
ENDBRANCH 79 90
BRANCH 81 95
ATOM     95   C  Z9L D   5      69.231  79.863  44.5640  0.00  0.00     0.000 C
ATOM     96   S  Z9L D   5      68.854  80.191  46.4920  0.00  0.00     0.000 S
ATOM     97   O  Z9L D   5      68.292  79.222  45.3860  0.00  0.00     0.000 O
ATOM     98   O  Z9L D   5      68.361  81.508  46.1790  0.00  0.00     0.000 OA
ATOM     99   O  Z9L D   5      70.210  79.978  46.8710  0.00  0.00     0.000 OA
ATOM    100   O  Z9L D   5      67.861  79.509  47.2840  0.00  0.00     0.000 O
ENDBRANCH 81 95
ENDBRANCH 76 80
ENDBRANCH 60 76
ENDBRANCH 59 63
ENDBRANCH 37 59
ENDBRANCH 36 40
ENDBRANCH 23 36
ENDBRANCH 22 26
ENDBRANCH 1 22
TORSDOF 19
ENDMDL
MODEL 9
REMARK VINA RESULT:       0.0     57.877     63.885
ROOT
ATOM      1  C1  Z9H D   1      84.910  89.896  25.2260  0.00  0.00     0.000 C
ATOM      2  C2  Z9H D   1      86.135  89.879  24.2800  0.00  0.00     0.000 C
ATOM      3  C3  Z9H D   1      86.301  88.333  24.1590  0.00  0.00     0.000 C
ATOM      4  C4  Z9H D   1      86.329  87.543  25.5330  0.00  0.00     0.000 C
ATOM      5  C5  Z9H D   1      85.277  87.782  26.6880  0.00  0.00     0.000 C
ATOM      6  O5  Z9H D   1      84.947  89.180  26.4920  0.00  0.00     0.000 O
ATOM      7   O  Z9H D   1      87.437  87.987  23.3640  0.00  0.00     0.000 O
ATOM      8   C  Z9H D   1      87.151  87.656  21.9940  0.00  0.00     0.000 C
ATOM      9   O  Z9H D   1      86.267  86.156  25.1850  0.00  0.00     0.000 O
ATOM     10   C  Z9H D   1      87.519  85.464  25.1830  0.00  0.00     0.000 C
ENDROOT
BRANCH 2 11
ATOM     11   O  Z9H D   1      85.568  90.283  23.0610  0.00  0.00     0.000 O
ATOM     12   O  Z9H D   1      85.951  91.919  22.2050  0.00  0.00     0.000 OA
ATOM     13   S  Z9H D   1      86.554  91.477  23.4170  0.00  0.00     0.000 S
ATOM     14   O  Z9H D   1      87.902  91.011  23.2570  0.00  0.00     0.000 OA
ATOM     15   O  Z9H D   1      86.070  92.254  24.5340  0.00  0.00     0.000 O
ENDBRANCH 2 11
BRANCH 5 16
ATOM     16   C  Z9H D   1      85.729  87.197  28.1900  0.00  0.00     0.000 C
ATOM     17   S  Z9H D   1      85.058  86.294  29.8560  0.00  0.00     0.000 S
ATOM     18   O  Z9H D   1      84.804  86.139  28.2690  0.00  0.00     0.000 O
ATOM     19   O  Z9H D   1      84.560  87.511  30.4290  0.00  0.00     0.000 O
ATOM     20   O  Z9H D   1      86.309  85.719  30.2100  0.00  0.00     0.000 OA
ATOM     21   O  Z9H D   1      84.076  85.250  29.8770  0.00  0.00     0.000 OA
ENDBRANCH 5 16
BRANCH 1 22
ATOM     22  O4  GU1 D   2      83.672  89.348  24.6450  0.00  0.00     0.000 O
BRANCH 22 26
ATOM     23  C1  GU1 D   2      79.569  89.691  24.5180  0.00  0.00     0.000 C
ATOM     24  C2  GU1 D   2      80.317  91.008  24.6590  0.00  0.00     0.000 C
ATOM     25  C3  GU1 D   2      81.762  90.798  24.3110  0.00  0.00     0.000 C
ATOM     26  C4  GU1 D   2      82.356  89.655  25.1200  0.00  0.00     0.000 C
ATOM     27  C5  GU1 D   2      81.473  88.409  24.9940  0.00  0.00     0.000 C
ATOM     28  O5  GU1 D   2      80.134  88.707  25.3770  0.00  0.00     0.000 O
ATOM     29   O  GU1 D   2      79.793  92.012  23.7980  0.00  0.00     0.000 O
ATOM     30   C  GU1 D   2      78.866  92.884  24.4280  0.00  0.00     0.000 C
ATOM     31   C  GU1 D   2      82.797  92.812  23.4930  0.00  0.00     0.000 C
ATOM     32   O  GU1 D   2      82.480  91.998  24.6190  0.00  0.00     0.000 O
BRANCH 27 33
ATOM     33   C  GU1 D   2      81.972  87.294  25.8820  0.00  0.00     0.000 C
ATOM     34   O  GU1 D   2      82.469  86.318  25.3590  0.00  0.00     0.000 OA
ATOM     35   O  GU1 D   2      81.878  87.378  27.0960  0.00  0.00     0.000 O
ENDBRANCH 27 33
BRANCH 23 36
ATOM     36  O4  GU6 D   3      78.226  89.566  25.0270  0.00  0.00     0.000 O
BRANCH 36 40
ATOM     37  C1  GU6 D   3      74.962  88.770  27.3530  0.00  0.00     0.000 C
ATOM     38  C2  GU6 D   3      74.662  88.814  25.8590  0.00  0.00     0.000 C
ATOM     39  C3  GU6 D   3      75.954  88.840  25.0850  0.00  0.00     0.000 C
ATOM     40  C4  GU6 D   3      77.196  89.040  25.8390  0.00  0.00     0.000 C
ATOM     41  C5  GU6 D   3      76.948  90.067  26.9930  0.00  0.00     0.000 C
ATOM     42  O5  GU6 D   3      75.709  89.926  27.6980  0.00  0.00     0.000 O
BRANCH 38 43
ATOM     43   O  GU6 D   3      73.890  87.693  25.4740  0.00  0.00     0.000 O
ATOM     44   S  GU6 D   3      72.585  88.040  24.7680  0.00  0.00     0.000 S
ATOM     45   O  GU6 D   3      71.577  88.375  25.7880  0.00  0.00     0.000 OA
ATOM     46   O  GU6 D   3      72.815  89.212  23.9030  0.00  0.00     0.000 O
ATOM     47   O  GU6 D   3      72.168  86.897  23.9630  0.00  0.00     0.000 OA
ENDBRANCH 38 43
BRANCH 39 48
ATOM     48   O  GU6 D   3      75.993  88.455  23.7250  0.00  0.00     0.000 O
ATOM     49   S  GU6 D   3      76.389  87.120  23.0940  0.00  0.00     0.000 S
ATOM     50   O  GU6 D   3      75.589  86.032  23.6680  0.00  0.00     0.000 OA
ATOM     51   O  GU6 D   3      76.076  87.318  21.6720  0.00  0.00     0.000 OA
ATOM     52   O  GU6 D   3      77.827  86.878  23.3470  0.00  0.00     0.000 O
ENDBRANCH 39 48
BRANCH 41 53
ATOM     53   C  GU6 D   3      77.838  91.178  27.4800  0.00  0.00     0.000 C
ATOM     54   O  GU6 D   3      78.889  90.383  27.9650  0.00  0.00     0.000 O
ATOM     55   S  GU6 D   3      80.072  91.022  28.7040  0.00  0.00     0.000 S
ATOM     56   O  GU6 D   3      79.536  91.577  29.9680  0.00  0.00     0.000 O
ATOM     57   O  GU6 D   3      81.072  89.980  28.9760  0.00  0.00     0.000 OA
ATOM     58   O  GU6 D   3      80.605  92.095  27.8350  0.00  0.00     0.000 OA
ENDBRANCH 41 53
BRANCH 37 59
ATOM     59  O4  Z9K D   4      75.556  87.652  28.0460  0.00  0.00     0.000 O
BRANCH 59 63
ATOM     60  C1  Z9K D   4      75.706  84.160  29.8430  0.00  0.00     0.000 C
ATOM     61  C2  Z9K D   4      74.171  84.389  29.7570  0.00  0.00     0.000 C
ATOM     62  C3  Z9K D   4      74.112  85.707  28.8690  0.00  0.00     0.000 C
ATOM     63  C4  Z9K D   4      75.085  86.901  29.2030  0.00  0.00     0.000 C
ATOM     64  C5  Z9K D   4      76.397  86.526  29.9080  0.00  0.00     0.000 C
ATOM     65  O5  Z9K D   4      76.682  85.205  29.3770  0.00  0.00     0.000 O
ATOM     66   O  Z9K D   4      72.803  86.300  28.8170  0.00  0.00     0.000 O
ATOM     67   C  Z9K D   4      71.952  85.756  27.8210  0.00  0.00     0.000 C
BRANCH 61 68
ATOM     68   O  Z9K D   4      73.646  83.358  28.9660  0.00  0.00     0.000 O
ATOM     69   O  Z9K D   4      71.995  84.057  30.7920  0.00  0.00     0.000 OA
ATOM     70   S  Z9K D   4      72.953  83.066  30.4000  0.00  0.00     0.000 S
ATOM     71   O  Z9K D   4      73.909  82.440  31.2620  0.00  0.00     0.000 OA
ATOM     72   O  Z9K D   4      72.351  82.080  29.5620  0.00  0.00     0.000 OA
ENDBRANCH 61 68
BRANCH 64 73
ATOM     73   C  Z9K D   4      77.452  87.639  29.7330  0.00  0.00     0.000 C
ATOM     74   O  Z9K D   4      77.347  88.744  30.3410  0.00  0.00     0.000 O
ATOM     75   O  Z9K D   4      78.453  87.491  28.9900  0.00  0.00     0.000 OA
ENDBRANCH 64 73
BRANCH 60 76
ATOM     76  O4  Z9L D   5      76.489  83.774  30.9860  0.00  0.00     0.000 O
BRANCH 76 80
ATOM     77  C1  Z9L D   5      79.559  81.526  32.2070  0.00  0.00     0.000 C
ATOM     78  C2  Z9L D   5      79.977  83.057  32.4400  0.00  0.00     0.000 C
ATOM     79  C3  Z9L D   5      78.551  83.965  32.3670  0.00  0.00     0.000 C
ATOM     80  C4  Z9L D   5      77.792  83.260  31.0860  0.00  0.00     0.000 C
ATOM     81  C5  Z9L D   5      77.565  81.706  30.7210  0.00  0.00     0.000 C
ATOM     82  O5  Z9L D   5      78.794  81.033  31.0340  0.00  0.00     0.000 O
ATOM     83   C  Z9L D   5      78.512  79.664  33.3590  0.00  0.00     0.000 C
ATOM     84   C  Z9L D   5      78.512  79.664  33.3590  0.00  0.00     0.000 C
BRANCH 78 85
ATOM     85   O  Z9L D   5      80.523  83.167  33.7150  0.00  0.00     0.000 O
ATOM     86   O  Z9L D   5      82.376  83.527  34.0970  0.00  0.00     0.000 OA
ATOM     87   S  Z9L D   5      81.787  83.537  32.7930  0.00  0.00     0.000 S
ATOM     88   O  Z9L D   5      81.819  84.918  32.3790  0.00  0.00     0.000 OA
ATOM     89   O  Z9L D   5      82.400  82.459  32.0960  0.00  0.00     0.000 OA
ENDBRANCH 78 85
BRANCH 79 90
ATOM     90   O  Z9L D   5      78.795  85.254  31.9020  0.00  0.00     0.000 O
ATOM     91   S  Z9L D   5      78.137  85.599  33.3110  0.00  0.00     0.000 S
ATOM     92   O  Z9L D   5      78.658  85.085  34.5500  0.00  0.00     0.000 OA
ATOM     93   O  Z9L D   5      76.724  85.821  33.1360  0.00  0.00     0.000 O
ATOM     94   O  Z9L D   5      78.794  86.841  33.0580  0.00  0.00     0.000 OA
ENDBRANCH 79 90
BRANCH 81 95
ATOM     95   C  Z9L D   5      76.814  81.361  29.2610  0.00  0.00     0.000 C
ATOM     96   S  Z9L D   5      77.115  80.889  27.3500  0.00  0.00     0.000 S
ATOM     97   O  Z9L D   5      77.833  81.809  28.4070  0.00  0.00     0.000 O
ATOM     98   O  Z9L D   5      75.890  81.555  26.9860  0.00  0.00     0.000 OA
ATOM     99   O  Z9L D   5      77.147  79.492  27.6210  0.00  0.00     0.000 OA
ATOM    100   O  Z9L D   5      78.175  81.397  26.5140  0.00  0.00     0.000 O
ENDBRANCH 81 95
ENDBRANCH 76 80
ENDBRANCH 60 76
ENDBRANCH 59 63
ENDBRANCH 37 59
ENDBRANCH 36 40
ENDBRANCH 23 36
ENDBRANCH 22 26
ENDBRANCH 1 22
TORSDOF 19
ENDMDL
MODEL 10
REMARK VINA RESULT:       0.0     47.627     54.911
ROOT
ATOM      1  C1  Z9H D   1      76.214  38.652  26.8130  0.00  0.00     0.000 C
ATOM      2  C2  Z9H D   1      77.721  38.809  26.5000  0.00  0.00     0.000 C
ATOM      3  C3  Z9H D   1      78.255  38.792  27.9650  0.00  0.00     0.000 C
ATOM      4  C4  Z9H D   1      77.528  39.784  28.9650  0.00  0.00     0.000 C
ATOM      5  C5  Z9H D   1      75.956  39.905  29.0720  0.00  0.00     0.000 C
ATOM      6  O5  Z9H D   1      75.549  39.575  27.7200  0.00  0.00     0.000 O
ATOM      7   O  Z9H D   1      79.670  38.987  28.0120  0.00  0.00     0.000 O
ATOM      8   C  Z9H D   1      80.452  37.788  28.1430  0.00  0.00     0.000 C
ATOM      9   O  Z9H D   1      78.017  39.450  30.2680  0.00  0.00     0.000 O
ATOM     10   C  Z9H D   1      79.059  40.291  30.7710  0.00  0.00     0.000 C
ENDROOT
BRANCH 2 11
ATOM     11   O  Z9H D   1      78.044  37.547  25.9780  0.00  0.00     0.000 O
ATOM     12   O  Z9H D   1      78.533  37.235  24.1840  0.00  0.00     0.000 OA
ATOM     13   S  Z9H D   1      78.250  38.517  24.7370  0.00  0.00     0.000 S
ATOM     14   O  Z9H D   1      79.417  39.316  24.9780  0.00  0.00     0.000 OA
ATOM     15   O  Z9H D   1      76.990  39.015  24.2350  0.00  0.00     0.000 O
ENDBRANCH 2 11
BRANCH 5 16
ATOM     16   C  Z9H D   1      75.402  41.287  29.8350  0.00  0.00     0.000 C
ATOM     17   S  Z9H D   1      73.984  42.015  31.0600  0.00  0.00     0.000 S
ATOM     18   O  Z9H D   1      74.878  40.673  30.9880  0.00  0.00     0.000 O
ATOM     19   O  Z9H D   1      73.013  42.149  30.0120  0.00  0.00     0.000 O
ATOM     20   O  Z9H D   1      74.766  43.100  31.5410  0.00  0.00     0.000 OA
ATOM     21   O  Z9H D   1      73.454  41.320  32.1960  0.00  0.00     0.000 OA
ENDBRANCH 5 16
BRANCH 1 22
ATOM     22  O4  GU1 D   2      75.839  37.363  27.4210  0.00  0.00     0.000 O
BRANCH 22 26
ATOM     23  C1  GU1 D   2      72.926  34.457  27.6320  0.00  0.00     0.000 C
ATOM     24  C2  GU1 D   2      73.079  35.111  26.2670  0.00  0.00     0.000 C
ATOM     25  C3  GU1 D   2      74.386  35.848  26.2120  0.00  0.00     0.000 C
ATOM     26  C4  GU1 D   2      74.517  36.811  27.3830  0.00  0.00     0.000 C
ATOM     27  C5  GU1 D   2      74.243  36.076  28.6990  0.00  0.00     0.000 C
ATOM     28  O5  GU1 D   2      72.968  35.441  28.6590  0.00  0.00     0.000 O
ATOM     29   O  GU1 D   2      73.064  34.155  25.2140  0.00  0.00     0.000 O
ATOM     30   C  GU1 D   2      71.793  33.999  24.5980  0.00  0.00     0.000 C
ATOM     31   C  GU1 D   2      75.233  36.024  23.9660  0.00  0.00     0.000 C
ATOM     32   O  GU1 D   2      74.432  36.599  24.9950  0.00  0.00     0.000 O
BRANCH 27 33
ATOM     33   C  GU1 D   2      74.247  37.031  29.8690  0.00  0.00     0.000 C
ATOM     34   O  GU1 D   2      73.334  37.824  29.9710  0.00  0.00     0.000 OA
ATOM     35   O  GU1 D   2      75.148  37.000  30.6930  0.00  0.00     0.000 O
ENDBRANCH 27 33
BRANCH 23 36
ATOM     36  O4  GU6 D   3      71.657  33.899  28.0250  0.00  0.00     0.000 O
BRANCH 36 40
ATOM     37  C1  GU6 D   3      67.953  33.312  29.6480  0.00  0.00     0.000 C
ATOM     38  C2  GU6 D   3      68.730  32.025  29.3990  0.00  0.00     0.000 C
ATOM     39  C3  GU6 D   3      70.161  32.356  29.0630  0.00  0.00     0.000 C
ATOM     40  C4  GU6 D   3      70.495  33.764  28.8190  0.00  0.00     0.000 C
ATOM     41  C5  GU6 D   3      69.324  34.452  28.0440  0.00  0.00     0.000 C
ATOM     42  O5  GU6 D   3      68.002  34.105  28.4720  0.00  0.00     0.000 O
BRANCH 38 43
ATOM     43   O  GU6 D   3      68.683  31.187  30.5370  0.00  0.00     0.000 O
ATOM     44   S  GU6 D   3      68.156  29.784  30.2640  0.00  0.00     0.000 S
ATOM     45   O  GU6 D   3      66.684  29.831  30.2460  0.00  0.00     0.000 OA
ATOM     46   O  GU6 D   3      68.648  29.345  28.9450  0.00  0.00     0.000 O
ATOM     47   O  GU6 D   3      68.647  28.886  31.3050  0.00  0.00     0.000 OA
ENDBRANCH 38 43
BRANCH 39 48
ATOM     48   O  GU6 D   3      71.183  31.389  29.2070  0.00  0.00     0.000 O
ATOM     49   S  GU6 D   3      72.176  31.173  30.3490  0.00  0.00     0.000 S
ATOM     50   O  GU6 D   3      71.458  31.010  31.6180  0.00  0.00     0.000 OA
ATOM     51   O  GU6 D   3      72.862  29.933  29.9630  0.00  0.00     0.000 OA
ATOM     52   O  GU6 D   3      73.080  32.342  30.4260  0.00  0.00     0.000 O
ENDBRANCH 39 48
BRANCH 41 53
ATOM     53   C  GU6 D   3      69.389  35.445  26.9150  0.00  0.00     0.000 C
ATOM     54   O  GU6 D   3      69.982  36.502  27.6240  0.00  0.00     0.000 O
ATOM     55   S  GU6 D   3      70.189  37.868  26.9570  0.00  0.00     0.000 S
ATOM     56   O  GU6 D   3      68.841  38.426  26.7000  0.00  0.00     0.000 O
ATOM     57   O  GU6 D   3      70.941  38.731  27.8800  0.00  0.00     0.000 OA
ATOM     58   O  GU6 D   3      70.918  37.633  25.6910  0.00  0.00     0.000 OA
ENDBRANCH 41 53
BRANCH 37 59
ATOM     59  O4  Z9K D   4      68.153  34.196  30.7710  0.00  0.00     0.000 O
BRANCH 59 63
ATOM     60  C1  Z9K D   4      67.820  35.521  34.4560  0.00  0.00     0.000 C
ATOM     61  C2  Z9K D   4      66.747  34.398  34.4420  0.00  0.00     0.000 C
ATOM     62  C3  Z9K D   4      67.012  33.745  33.0160  0.00  0.00     0.000 C
ATOM     63  C4  Z9K D   4      67.208  34.686  31.7660  0.00  0.00     0.000 C
ATOM     64  C5  Z9K D   4      67.740  36.096  32.0600  0.00  0.00     0.000 C
ATOM     65  O5  Z9K D   4      68.591  35.885  33.2170  0.00  0.00     0.000 O
ATOM     66   O  Z9K D   4      65.992  32.811  32.6200  0.00  0.00     0.000 O
ATOM     67   C  Z9K D   4      66.185  31.493  33.1060  0.00  0.00     0.000 C
BRANCH 61 68
ATOM     68   O  Z9K D   4      67.138  33.443  35.3900  0.00  0.00     0.000 O
ATOM     69   O  Z9K D   4      64.589  33.627  35.2590  0.00  0.00     0.000 OA
ATOM     70   S  Z9K D   4      65.748  33.988  36.0180  0.00  0.00     0.000 S
ATOM     71   O  Z9K D   4      65.982  35.259  36.6340  0.00  0.00     0.000 OA
ATOM     72   O  Z9K D   4      66.108  32.947  36.9260  0.00  0.00     0.000 OA
ENDBRANCH 61 68
BRANCH 64 73
ATOM     73   C  Z9K D   4      68.355  36.726  30.7920  0.00  0.00     0.000 C
ATOM     74   O  Z9K D   4      69.606  36.872  30.6730  0.00  0.00     0.000 O
ATOM     75   O  Z9K D   4      67.643  37.110  29.8330  0.00  0.00     0.000 OA
ENDBRANCH 64 73
BRANCH 60 76
ATOM     76  O4  Z9L D   5      67.688  36.879  34.9110  0.00  0.00     0.000 O
BRANCH 76 80
ATOM     77  C1  Z9L D   5      69.524  39.836  36.8730  0.00  0.00     0.000 C
ATOM     78  C2  Z9L D   5      69.326  40.329  35.3600  0.00  0.00     0.000 C
ATOM     79  C3  Z9L D   5      68.170  39.308  34.6650  0.00  0.00     0.000 C
ATOM     80  C4  Z9L D   5      68.653  37.844  35.2450  0.00  0.00     0.000 C
ATOM     81  C5  Z9L D   5      69.080  37.387  36.7310  0.00  0.00     0.000 C
ATOM     82  O5  Z9L D   5      69.883  38.449  37.2650  0.00  0.00     0.000 O
ATOM     83   C  Z9L D   5      68.418  39.895  39.0330  0.00  0.00     0.000 C
ATOM     84   C  Z9L D   5      68.418  39.895  39.0330  0.00  0.00     0.000 C
BRANCH 78 85
ATOM     85   O  Z9L D   5      68.828  41.628  35.3900  0.00  0.00     0.000 O
ATOM     86   O  Z9L D   5      69.798  43.198  34.8380  0.00  0.00     0.000 OA
ATOM     87   S  Z9L D   5      70.258  41.851  34.6920  0.00  0.00     0.000 S
ATOM     88   O  Z9L D   5      70.255  41.607  33.2700  0.00  0.00     0.000 OA
ATOM     89   O  Z9L D   5      71.398  41.751  35.5360  0.00  0.00     0.000 OA
ENDBRANCH 78 85
BRANCH 79 90
ATOM     90   O  Z9L D   5      68.372  39.173  33.2940  0.00  0.00     0.000 O
ATOM     91   S  Z9L D   5      66.884  39.740  33.2900  0.00  0.00     0.000 S
ATOM     92   O  Z9L D   5      66.531  40.982  33.9260  0.00  0.00     0.000 OA
ATOM     93   O  Z9L D   5      65.954  38.640  33.2440  0.00  0.00     0.000 O
ATOM     94   O  Z9L D   5      67.246  40.043  31.9430  0.00  0.00     0.000 OA
ENDBRANCH 79 90
BRANCH 81 95
ATOM     95   C  Z9L D   5      69.610  35.808  36.9280  0.00  0.00     0.000 C
ATOM     96   S  Z9L D   5      71.213  34.631  37.0230  0.00  0.00     0.000 S
ATOM     97   O  Z9L D   5      70.806  35.912  36.2030  0.00  0.00     0.000 O
ATOM     98   O  Z9L D   5      70.449  33.534  36.4860  0.00  0.00     0.000 OA
ATOM     99   O  Z9L D   5      71.358  34.815  38.4280  0.00  0.00     0.000 OA
ATOM    100   O  Z9L D   5      72.414  34.778  36.2370  0.00  0.00     0.000 O
ENDBRANCH 81 95
ENDBRANCH 76 80
ENDBRANCH 60 76
ENDBRANCH 59 63
ENDBRANCH 37 59
ENDBRANCH 36 40
ENDBRANCH 23 36
ENDBRANCH 22 26
ENDBRANCH 1 22
TORSDOF 19
ENDMDL
MODEL 11
REMARK VINA RESULT:       0.0     33.894     39.854
ROOT
ATOM      1  C1  Z9H D   1      60.256  76.483  48.6030  0.00  0.00     0.000 C
ATOM      2  C2  Z9H D   1      59.825  75.047  48.9880  0.00  0.00     0.000 C
ATOM      3  C3  Z9H D   1      60.601  74.937  50.3360  0.00  0.00     0.000 C
ATOM      4  C4  Z9H D   1      62.134  75.332  50.2720  0.00  0.00     0.000 C
ATOM      5  C5  Z9H D   1      62.659  76.648  49.5710  0.00  0.00     0.000 C
ATOM      6  O5  Z9H D   1      61.665  76.835  48.5320  0.00  0.00     0.000 O
ATOM      7   O  Z9H D   1      60.444  73.646  50.9290  0.00  0.00     0.000 O
ATOM      8   C  Z9H D   1      59.448  73.559  51.9620  0.00  0.00     0.000 C
ATOM      9   O  Z9H D   1      62.582  75.370  51.6310  0.00  0.00     0.000 O
ATOM     10   C  Z9H D   1      63.280  74.205  52.0840  0.00  0.00     0.000 C
ENDROOT
BRANCH 2 11
ATOM     11   O  Z9H D   1      58.483  75.232  49.3520  0.00  0.00     0.000 O
ATOM     12   O  Z9H D   1      57.017  74.541  48.3860  0.00  0.00     0.000 OA
ATOM     13   S  Z9H D   1      58.385  74.320  48.0550  0.00  0.00     0.000 S
ATOM     14   O  Z9H D   1      58.858  73.008  48.3900  0.00  0.00     0.000 OA
ATOM     15   O  Z9H D   1      58.738  75.052  46.8600  0.00  0.00     0.000 O
ENDBRANCH 2 11
BRANCH 5 16
ATOM     16   C  Z9H D   1      64.296  76.660  49.2230  0.00  0.00     0.000 C
ATOM     17   S  Z9H D   1      65.943  77.812  49.1750  0.00  0.00     0.000 S
ATOM     18   O  Z9H D   1      64.686  77.625  50.1710  0.00  0.00     0.000 O
ATOM     19   O  Z9H D   1      65.621  78.385  47.8990  0.00  0.00     0.000 O
ATOM     20   O  Z9H D   1      66.861  76.740  49.3380  0.00  0.00     0.000 OA
ATOM     21   O  Z9H D   1      66.264  78.815  50.1480  0.00  0.00     0.000 OA
ENDBRANCH 5 16
BRANCH 1 22
ATOM     22  O4  GU1 D   2      59.760  77.539  49.5020  0.00  0.00     0.000 O
BRANCH 22 26
ATOM     23  C1  GU1 D   2      58.396  81.421  49.7100  0.00  0.00     0.000 C
ATOM     24  C2  GU1 D   2      57.995  80.669  48.4500  0.00  0.00     0.000 C
ATOM     25  C3  GU1 D   2      58.210  79.198  48.6600  0.00  0.00     0.000 C
ATOM     26  C4  GU1 D   2      59.629  78.916  49.1290  0.00  0.00     0.000 C
ATOM     27  C5  GU1 D   2      59.968  79.798  50.3350  0.00  0.00     0.000 C
ATOM     28  O5  GU1 D   2      59.762  81.172  50.0210  0.00  0.00     0.000 O
ATOM     29   O  GU1 D   2      56.627  80.876  48.1190  0.00  0.00     0.000 O
ATOM     30   C  GU1 D   2      56.419  81.892  47.1480  0.00  0.00     0.000 C
ATOM     31   C  GU1 D   2      56.742  77.866  47.2940  0.00  0.00     0.000 C
ATOM     32   O  GU1 D   2      57.998  78.528  47.4130  0.00  0.00     0.000 O
BRANCH 27 33
ATOM     33   C  GU1 D   2      61.410  79.628  50.7480  0.00  0.00     0.000 C
ATOM     34   O  GU1 D   2      61.649  79.057  51.7930  0.00  0.00     0.000 OA
ATOM     35   O  GU1 D   2      62.312  80.053  50.0430  0.00  0.00     0.000 O
ENDBRANCH 27 33
BRANCH 23 36
ATOM     36  O4  GU6 D   3      58.518  82.857  49.6850  0.00  0.00     0.000 O
BRANCH 36 40
ATOM     37  C1  GU6 D   3      59.948  86.679  49.4730  0.00  0.00     0.000 C
ATOM     38  C2  GU6 D   3      58.649  86.547  50.2580  0.00  0.00     0.000 C
ATOM     39  C3  GU6 D   3      58.356  85.091  50.5090  0.00  0.00     0.000 C
ATOM     40  C4  GU6 D   3      59.180  84.100  49.8080  0.00  0.00     0.000 C
ATOM     41  C5  GU6 D   3      59.487  84.605  48.3590  0.00  0.00     0.000 C
ATOM     42  O5  GU6 D   3      59.800  85.997  48.2370  0.00  0.00     0.000 O
BRANCH 38 43
ATOM     43   O  GU6 D   3      58.739  87.239  51.4890  0.00  0.00     0.000 O
ATOM     44   S  GU6 D   3      57.641  88.272  51.7110  0.00  0.00     0.000 S
ATOM     45   O  GU6 D   3      58.008  89.507  50.9970  0.00  0.00     0.000 OA
ATOM     46   O  GU6 D   3      56.380  87.743  51.1610  0.00  0.00     0.000 O
ATOM     47   O  GU6 D   3      57.501  88.508  53.1450  0.00  0.00     0.000 OA
ENDBRANCH 38 43
BRANCH 39 48
ATOM     48   O  GU6 D   3      57.483  84.694  51.5490  0.00  0.00     0.000 O
ATOM     49   S  GU6 D   3      57.800  84.210  52.9640  0.00  0.00     0.000 S
ATOM     50   O  GU6 D   3      58.632  85.197  53.6610  0.00  0.00     0.000 OA
ATOM     51   O  GU6 D   3      56.472  84.102  53.5840  0.00  0.00     0.000 OA
ATOM     52   O  GU6 D   3      58.512  82.916  52.8800  0.00  0.00     0.000 O
ENDBRANCH 39 48
BRANCH 41 53
ATOM     53   C  GU6 D   3      59.514  83.828  47.0710  0.00  0.00     0.000 C
ATOM     54   O  GU6 D   3      60.610  83.002  47.3700  0.00  0.00     0.000 O
ATOM     55   S  GU6 D   3      61.171  82.041  46.3130  0.00  0.00     0.000 S
ATOM     56   O  GU6 D   3      61.740  82.880  45.2320  0.00  0.00     0.000 O
ATOM     57   O  GU6 D   3      62.217  81.218  46.9370  0.00  0.00     0.000 OA
ATOM     58   O  GU6 D   3      60.040  81.227  45.8150  0.00  0.00     0.000 OA
ENDBRANCH 41 53
BRANCH 37 59
ATOM     59  O4  Z9K D   4      61.261  86.363  49.9830  0.00  0.00     0.000 O
BRANCH 59 63
ATOM     60  C1  Z9K D   4      64.605  86.931  51.9680  0.00  0.00     0.000 C
ATOM     61  C2  Z9K D   4      64.010  88.367  51.9630  0.00  0.00     0.000 C
ATOM     62  C3  Z9K D   4      62.579  88.098  51.3240  0.00  0.00     0.000 C
ATOM     63  C4  Z9K D   4      62.467  87.177  50.0500  0.00  0.00     0.000 C
ATOM     64  C5  Z9K D   4      63.579  86.132  49.8730  0.00  0.00     0.000 C
ATOM     65  O5  Z9K D   4      63.930  85.800  51.2430  0.00  0.00     0.000 O
ATOM     66   O  Z9K D   4      61.878  89.304  50.9710  0.00  0.00     0.000 O
ATOM     67   C  Z9K D   4      61.142  89.887  52.0340  0.00  0.00     0.000 C
BRANCH 61 68
ATOM     68   O  Z9K D   4      63.784  88.724  53.2990  0.00  0.00     0.000 O
ATOM     69   O  Z9K D   4      64.459  90.757  51.8990  0.00  0.00     0.000 OA
ATOM     70   S  Z9K D   4      64.917  89.793  52.8530  0.00  0.00     0.000 S
ATOM     71   O  Z9K D   4      66.192  89.143  52.8400  0.00  0.00     0.000 OA
ATOM     72   O  Z9K D   4      64.609  90.208  54.1840  0.00  0.00     0.000 OA
ENDBRANCH 61 68
BRANCH 64 73
ATOM     73   C  Z9K D   4      63.123  85.000  48.9290  0.00  0.00     0.000 C
ATOM     74   O  Z9K D   4      62.988  85.197  47.6860  0.00  0.00     0.000 O
ATOM     75   O  Z9K D   4      62.877  83.844  49.3530  0.00  0.00     0.000 OA
ENDBRANCH 64 73
BRANCH 60 76
ATOM     76  O4  Z9L D   5      65.935  86.513  51.6190  0.00  0.00     0.000 O
BRANCH 76 80
ATOM     77  C1  Z9L D   5      68.905  84.012  52.5660  0.00  0.00     0.000 C
ATOM     78  C2  Z9L D   5      68.394  83.602  51.1020  0.00  0.00     0.000 C
ATOM     79  C3  Z9L D   5      67.488  84.906  50.5210  0.00  0.00     0.000 C
ATOM     80  C4  Z9L D   5      66.626  85.315  51.8640  0.00  0.00     0.000 C
ATOM     81  C5  Z9L D   5      67.090  85.506  53.3970  0.00  0.00     0.000 C
ATOM     82  O5  Z9L D   5      68.016  84.445  53.6740  0.00  0.00     0.000 O
ATOM     83   C  Z9L D   5      70.547  85.424  53.6620  0.00  0.00     0.000 C
ATOM     84   C  Z9L D   5      70.547  85.424  53.6620  0.00  0.00     0.000 C
BRANCH 78 85
ATOM     85   O  Z9L D   5      69.510  83.424  50.2890  0.00  0.00     0.000 O
ATOM     86   O  Z9L D   5      70.114  81.733  49.5920  0.00  0.00     0.000 OA
ATOM     87   S  Z9L D   5      68.900  81.938  50.3220  0.00  0.00     0.000 S
ATOM     88   O  Z9L D   5      67.846  81.722  49.3620  0.00  0.00     0.000 OA
ATOM     89   O  Z9L D   5      69.065  81.212  51.5340  0.00  0.00     0.000 OA
ENDBRANCH 78 85
BRANCH 79 90
ATOM     90   O  Z9L D   5      66.495  84.482  49.6420  0.00  0.00     0.000 O
ATOM     91   S  Z9L D   5      67.277  85.495  48.6930  0.00  0.00     0.000 S
ATOM     92   O  Z9L D   5      68.686  85.370  48.4270  0.00  0.00     0.000 OA
ATOM     93   O  Z9L D   5      66.646  86.790  48.7550  0.00  0.00     0.000 O
ATOM     94   O  Z9L D   5      66.590  84.738  47.6980  0.00  0.00     0.000 OA
ENDBRANCH 79 90
BRANCH 81 95
ATOM     95   C  Z9L D   5      65.895  85.840  54.5260  0.00  0.00     0.000 C
ATOM     96   S  Z9L D   5      64.670  85.045  55.8800  0.00  0.00     0.000 S
ATOM     97   O  Z9L D   5      65.228  84.607  54.4740  0.00  0.00     0.000 O
ATOM     98   O  Z9L D   5      63.711  86.092  55.6380  0.00  0.00     0.000 OA
ATOM     99   O  Z9L D   5      65.634  85.150  56.9240  0.00  0.00     0.000 OA
ATOM    100   O  Z9L D   5      63.998  83.775  55.7640  0.00  0.00     0.000 O
ENDBRANCH 81 95
ENDBRANCH 76 80
ENDBRANCH 60 76
ENDBRANCH 59 63
ENDBRANCH 37 59
ENDBRANCH 36 40
ENDBRANCH 23 36
ENDBRANCH 22 26
ENDBRANCH 1 22
TORSDOF 19
ENDMDL
MODEL 12
REMARK VINA RESULT:       0.0     93.959    101.917
ROOT
ATOM      1  C1  Z9H D   1     109.815  34.311 112.8150  0.00  0.00     0.000 C
ATOM      2  C2  Z9H D   1     108.731  33.208 112.7620  0.00  0.00     0.000 C
ATOM      3  C3  Z9H D   1     109.571  32.041 113.3660  0.00  0.00     0.000 C
ATOM      4  C4  Z9H D   1     110.992  31.813 112.7020  0.00  0.00     0.000 C
ATOM      5  C5  Z9H D   1     112.012  32.986 112.4170  0.00  0.00     0.000 C
ATOM      6  O5  Z9H D   1     111.112  34.100 112.1910  0.00  0.00     0.000 O
ATOM      7   O  Z9H D   1     108.832  30.819 113.3920  0.00  0.00     0.000 O
ATOM      8   C  Z9H D   1     108.223  30.494 114.6530  0.00  0.00     0.000 C
ATOM      9   O  Z9H D   1     111.663  30.863 113.5370  0.00  0.00     0.000 O
ATOM     10   C  Z9H D   1     111.637  29.509 113.0750  0.00  0.00     0.000 C
ENDROOT
BRANCH 2 11
ATOM     11   O  Z9H D   1     107.861  33.603 113.7900  0.00  0.00     0.000 O
ATOM     12   O  Z9H D   1     106.099  34.214 113.5110  0.00  0.00     0.000 OA
ATOM     13   S  Z9H D   1     106.975  33.765 112.4810  0.00  0.00     0.000 S
ATOM     14   O  Z9H D   1     106.662  32.456 111.9830  0.00  0.00     0.000 OA
ATOM     15   O  Z9H D   1     107.415  34.879 111.6730  0.00  0.00     0.000 O
ENDBRANCH 2 11
BRANCH 5 16
ATOM     16   C  Z9H D   1     113.231  32.618 111.3320  0.00  0.00     0.000 C
ATOM     17   S  Z9H D   1     115.182  32.878 110.9220  0.00  0.00     0.000 S
ATOM     18   O  Z9H D   1     114.301  32.596 112.2460  0.00  0.00     0.000 O
ATOM     19   O  Z9H D   1     114.982  34.170 110.3300  0.00  0.00     0.000 O
ATOM     20   O  Z9H D   1     115.320  31.685 110.1620  0.00  0.00     0.000 OA
ATOM     21   O  Z9H D   1     116.225  32.894 111.9050  0.00  0.00     0.000 OA
ENDBRANCH 5 16
BRANCH 1 22
ATOM     22  O4  GU1 D   2     110.231  34.704 114.1730  0.00  0.00     0.000 O
BRANCH 22 26
ATOM     23  C1  GU1 D   2     111.450  37.838 116.5520  0.00  0.00     0.000 C
ATOM     24  C2  GU1 D   2     110.418  38.201 115.4950  0.00  0.00     0.000 C
ATOM     25  C3  GU1 D   2     109.784  36.947 114.9690  0.00  0.00     0.000 C
ATOM     26  C4  GU1 D   2     110.841  35.960 114.4950  0.00  0.00     0.000 C
ATOM     27  C5  GU1 D   2     111.886  35.744 115.5930  0.00  0.00     0.000 C
ATOM     28  O5  GU1 D   2     112.448  36.989 115.9980  0.00  0.00     0.000 O
ATOM     29   O  GU1 D   2     109.391  39.034 116.0190  0.00  0.00     0.000 O
ATOM     30   C  GU1 D   2     109.595  40.419 115.7800  0.00  0.00     0.000 C
ATOM     31   C  GU1 D   2     107.556  37.337 114.1460  0.00  0.00     0.000 C
ATOM     32   O  GU1 D   2     108.951  37.294 113.8570  0.00  0.00     0.000 O
BRANCH 27 33
ATOM     33   C  GU1 D   2     113.013  34.862 115.1100  0.00  0.00     0.000 C
ATOM     34   O  GU1 D   2     113.108  33.743 115.5680  0.00  0.00     0.000 OA
ATOM     35   O  GU1 D   2     113.804  35.270 114.2730  0.00  0.00     0.000 O
ENDBRANCH 27 33
BRANCH 23 36
ATOM     36  O4  GU6 D   3     112.370  38.838 117.0360  0.00  0.00     0.000 O
BRANCH 36 40
ATOM     37  C1  GU6 D   3     115.650  41.198 117.6350  0.00  0.00     0.000 C
ATOM     38  C2  GU6 D   3     114.735  41.091 118.8490  0.00  0.00     0.000 C
ATOM     39  C3  GU6 D   3     113.721  40.000 118.6220  0.00  0.00     0.000 C
ATOM     40  C4  GU6 D   3     113.635  39.420 117.2770  0.00  0.00     0.000 C
ATOM     41  C5  GU6 D   3     113.836  40.544 116.2080  0.00  0.00     0.000 C
ATOM     42  O5  GU6 D   3     114.858  41.505 116.4980  0.00  0.00     0.000 O
BRANCH 38 43
ATOM     43   O  GU6 D   3     115.487  40.816 120.0160  0.00  0.00     0.000 O
ATOM     44   S  GU6 D   3     115.275  41.810 121.1490  0.00  0.00     0.000 S
ATOM     45   O  GU6 D   3     116.114  42.994 120.8970  0.00  0.00     0.000 OA
ATOM     46   O  GU6 D   3     113.856  42.210 121.1660  0.00  0.00     0.000 O
ATOM     47   O  GU6 D   3     115.628  41.168 122.4110  0.00  0.00     0.000 OA
ENDBRANCH 38 43
BRANCH 39 48
ATOM     48   O  GU6 D   3     113.045  39.399 119.7090  0.00  0.00     0.000 O
ATOM     49   S  GU6 D   3     113.336  38.089 120.4420  0.00  0.00     0.000 S
ATOM     50   O  GU6 D   3     114.718  38.083 120.9350  0.00  0.00     0.000 OA
ATOM     51   O  GU6 D   3     112.375  38.109 121.5530  0.00  0.00     0.000 OA
ATOM     52   O  GU6 D   3     113.127  36.960 119.5080  0.00  0.00     0.000 O
ENDBRANCH 39 48
BRANCH 41 53
ATOM     53   C  GU6 D   3     113.115  40.752 114.9040  0.00  0.00     0.000 C
ATOM     54   O  GU6 D   3     113.559  39.591 114.2530  0.00  0.00     0.000 O
ATOM     55   S  GU6 D   3     113.201  39.338 112.7820  0.00  0.00     0.000 S
ATOM     56   O  GU6 D   3     113.889  40.383 111.9890  0.00  0.00     0.000 O
ATOM     57   O  GU6 D   3     113.682  38.000 112.4070  0.00  0.00     0.000 OA
ATOM     58   O  GU6 D   3     111.731  39.458 112.6610  0.00  0.00     0.000 OA
ENDBRANCH 41 53
BRANCH 37 59
ATOM     59  O4  Z9K D   4     116.613  40.202 117.2320  0.00  0.00     0.000 O
BRANCH 59 63
ATOM     60  C1  Z9K D   4     120.011  38.227 117.2480  0.00  0.00     0.000 C
ATOM     61  C2  Z9K D   4     120.375  39.460 118.1210  0.00  0.00     0.000 C
ATOM     62  C3  Z9K D   4     118.954  40.158 118.2640  0.00  0.00     0.000 C
ATOM     63  C4  Z9K D   4     118.045  40.318 116.9860  0.00  0.00     0.000 C
ATOM     64  C5  Z9K D   4     118.270  39.293 115.8650  0.00  0.00     0.000 C
ATOM     65  O5  Z9K D   4     118.663  38.100 116.5940  0.00  0.00     0.000 O
ATOM     66   O  Z9K D   4     119.023  41.477 118.8360  0.00  0.00     0.000 O
ATOM     67   C  Z9K D   4     119.025  41.501 120.2540  0.00  0.00     0.000 C
BRANCH 61 68
ATOM     68   O  Z9K D   4     120.708  38.979 119.3940  0.00  0.00     0.000 O
ATOM     69   O  Z9K D   4     122.087  41.051 118.7980  0.00  0.00     0.000 OA
ATOM     70   S  Z9K D   4     122.111  39.623 118.9020  0.00  0.00     0.000 S
ATOM     71   O  Z9K D   4     122.736  38.727 117.9790  0.00  0.00     0.000 OA
ATOM     72   O  Z9K D   4     122.411  39.215 120.2370  0.00  0.00     0.000 OA
ENDBRANCH 61 68
BRANCH 64 73
ATOM     73   C  Z9K D   4     117.044  39.222 114.9310  0.00  0.00     0.000 C
ATOM     74   O  Z9K D   4     116.777  40.162 114.1270  0.00  0.00     0.000 O
ATOM     75   O  Z9K D   4     116.271  38.232 114.9280  0.00  0.00     0.000 OA
ENDBRANCH 64 73
BRANCH 60 76
ATOM     76  O4  Z9L D   5     120.732  37.676 116.1330  0.00  0.00     0.000 O
BRANCH 76 80
ATOM     77  C1  Z9L D   5     121.886  34.281 114.3690  0.00  0.00     0.000 C
ATOM     78  C2  Z9L D   5     120.883  35.018 113.3580  0.00  0.00     0.000 C
ATOM     79  C3  Z9L D   5     120.762  36.623 113.8770  0.00  0.00     0.000 C
ATOM     80  C4  Z9L D   5     120.658  36.420 115.5090  0.00  0.00     0.000 C
ATOM     81  C5  Z9L D   5     121.519  35.499 116.5140  0.00  0.00     0.000 C
ATOM     82  O5  Z9L D   5     121.716  34.245 115.8430  0.00  0.00     0.000 O
ATOM     83   C  Z9L D   5     124.252  34.115 114.8870  0.00  0.00     0.000 C
ATOM     84   C  Z9L D   5     124.252  34.115 114.8870  0.00  0.00     0.000 C
BRANCH 78 85
ATOM     85   O  Z9L D   5     121.452  34.991 112.0880  0.00  0.00     0.000 O
ATOM     86   O  Z9L D   5     120.788  33.965 110.5990  0.00  0.00     0.000 OA
ATOM     87   S  Z9L D   5     120.137  34.094 111.8670  0.00  0.00     0.000 S
ATOM     88   O  Z9L D   5     118.947  34.863 111.6000  0.00  0.00     0.000 OA
ATOM     89   O  Z9L D   5     120.158  32.789 112.4330  0.00  0.00     0.000 OA
ENDBRANCH 78 85
BRANCH 79 90
ATOM     90   O  Z9L D   5     119.520  37.167 113.5600  0.00  0.00     0.000 O
ATOM     91   S  Z9L D   5     120.465  38.195 112.7940  0.00  0.00     0.000 S
ATOM     92   O  Z9L D   5     121.427  37.772 111.8100  0.00  0.00     0.000 OA
ATOM     93   O  Z9L D   5     120.725  39.329 113.6450  0.00  0.00     0.000 O
ATOM     94   O  Z9L D   5     119.243  38.456 112.1050  0.00  0.00     0.000 OA
ENDBRANCH 79 90
BRANCH 81 95
ATOM     95   C  Z9L D   5     121.057  35.480 118.1260  0.00  0.00     0.000 C
ATOM     96   S  Z9L D   5     119.991  34.510 119.5000  0.00  0.00     0.000 S
ATOM     97   O  Z9L D   5     119.824  34.830 117.9680  0.00  0.00     0.000 O
ATOM     98   O  Z9L D   5     119.768  35.744 120.2090  0.00  0.00     0.000 OA
ATOM     99   O  Z9L D   5     121.071  33.646 119.8390  0.00  0.00     0.000 OA
ATOM    100   O  Z9L D   5     118.715  33.873 119.2820  0.00  0.00     0.000 O
ENDBRANCH 81 95
ENDBRANCH 76 80
ENDBRANCH 60 76
ENDBRANCH 59 63
ENDBRANCH 37 59
ENDBRANCH 36 40
ENDBRANCH 23 36
ENDBRANCH 22 26
ENDBRANCH 1 22
TORSDOF 19
ENDMDL
MODEL 13
REMARK VINA RESULT:       0.0    119.071    124.611
ROOT
ATOM      1  C1  Z9H D   1     132.386 140.525  40.8070  0.00  0.00     0.000 C
ATOM      2  C2  Z9H D   1     133.436 141.606  40.4540  0.00  0.00     0.000 C
ATOM      3  C3  Z9H D   1     134.712 140.715  40.5490  0.00  0.00     0.000 C
ATOM      4  C4  Z9H D   1     134.847 139.860  41.8760  0.00  0.00     0.000 C
ATOM      5  C5  Z9H D   1     133.665 138.996  42.4710  0.00  0.00     0.000 C
ATOM      6  O5  Z9H D   1     132.508 139.753  42.0340  0.00  0.00     0.000 O
ATOM      7   O  Z9H D   1     135.902 141.475  40.3250  0.00  0.00     0.000 O
ATOM      8   C  Z9H D   1     136.440 141.398  38.9940  0.00  0.00     0.000 C
ATOM      9   O  Z9H D   1     135.949 138.974  41.6570  0.00  0.00     0.000 O
ATOM     10   C  Z9H D   1     137.194 139.383  42.2320  0.00  0.00     0.000 C
ENDROOT
BRANCH 2 11
ATOM     11   O  Z9H D   1     133.217 141.787  39.0800  0.00  0.00     0.000 O
ATOM     12   O  Z9H D   1     132.527 143.368  38.3160  0.00  0.00     0.000 OA
ATOM     13   S  Z9H D   1     132.798 143.187  39.7020  0.00  0.00     0.000 S
ATOM     14   O  Z9H D   1     133.987 143.855  40.1530  0.00  0.00     0.000 OA
ATOM     15   O  Z9H D   1     131.565 143.092  40.4490  0.00  0.00     0.000 O
ENDBRANCH 2 11
BRANCH 5 16
ATOM     16   C  Z9H D   1     133.854 138.541  44.0700  0.00  0.00     0.000 C
ATOM     17   S  Z9H D   1     133.576 137.044  45.3830  0.00  0.00     0.000 S
ATOM     18   O  Z9H D   1     134.080 137.169  43.8540  0.00  0.00     0.000 O
ATOM     19   O  Z9H D   1     132.190 137.353  45.5870  0.00  0.00     0.000 O
ATOM     20   O  Z9H D   1     134.606 137.454  46.2740  0.00  0.00     0.000 OA
ATOM     21   O  Z9H D   1     133.779 135.656  45.0890  0.00  0.00     0.000 OA
ENDBRANCH 5 16
BRANCH 1 22
ATOM     22  O4  GU1 D   2     132.260 139.439  39.8190  0.00  0.00     0.000 O
BRANCH 22 26
ATOM     23  C1  GU1 D   2     129.645 136.839  37.9820  0.00  0.00     0.000 C
ATOM     24  C2  GU1 D   2     129.069 138.212  38.2940  0.00  0.00     0.000 C
ATOM     25  C3  GU1 D   2     130.189 139.165  38.5930  0.00  0.00     0.000 C
ATOM     26  C4  GU1 D   2     131.100 138.610  39.6790  0.00  0.00     0.000 C
ATOM     27  C5  GU1 D   2     131.540 137.188  39.3190  0.00  0.00     0.000 C
ATOM     28  O5  GU1 D   2     130.404 136.359  39.0860  0.00  0.00     0.000 O
ATOM     29   O  GU1 D   2     128.320 138.735  37.2030  0.00  0.00     0.000 O
ATOM     30   C  GU1 D   2     126.920 138.519  37.3110  0.00  0.00     0.000 C
ATOM     31   C  GU1 D   2     129.599 141.443  38.0880  0.00  0.00     0.000 C
ATOM     32   O  GU1 D   2     129.624 140.396  39.0550  0.00  0.00     0.000 O
BRANCH 27 33
ATOM     33   C  GU1 D   2     132.346 136.566  40.4340  0.00  0.00     0.000 C
ATOM     34   O  GU1 D   2     133.532 136.380  40.2540  0.00  0.00     0.000 OA
ATOM     35   O  GU1 D   2     131.814 136.264  41.4900  0.00  0.00     0.000 O
ENDBRANCH 27 33
BRANCH 23 36
ATOM     36  O4  GU6 D   3     128.774 135.693  37.9030  0.00  0.00     0.000 O
BRANCH 36 40
ATOM     37  C1  GU6 D   3     126.656 132.298  38.7290  0.00  0.00     0.000 C
ATOM     38  C2  GU6 D   3     126.967 132.489  37.2500  0.00  0.00     0.000 C
ATOM     39  C3  GU6 D   3     127.968 133.602  37.0830  0.00  0.00     0.000 C
ATOM     40  C4  GU6 D   3     128.281 134.418  38.2610  0.00  0.00     0.000 C
ATOM     41  C5  GU6 D   3     126.981 134.646  39.1010  0.00  0.00     0.000 C
ATOM     42  O5  GU6 D   3     126.120 133.510  39.2380  0.00  0.00     0.000 O
BRANCH 38 43
ATOM     43   O  GU6 D   3     127.477 131.293  36.6910  0.00  0.00     0.000 O
ATOM     44   S  GU6 D   3     126.709 130.789  35.4760  0.00  0.00     0.000 S
ATOM     45   O  GU6 D   3     125.522 130.054  35.9450  0.00  0.00     0.000 OA
ATOM     46   O  GU6 D   3     126.282 131.949  34.6740  0.00  0.00     0.000 O
ATOM     47   O  GU6 D   3     127.588 129.931  34.6870  0.00  0.00     0.000 OA
ENDBRANCH 38 43
BRANCH 39 48
ATOM     48   O  GU6 D   3     128.747 133.709  35.9070  0.00  0.00     0.000 O
ATOM     49   S  GU6 D   3     130.177 133.248  35.6320  0.00  0.00     0.000 S
ATOM     50   O  GU6 D   3     130.312 131.816  35.9240  0.00  0.00     0.000 OA
ATOM     51   O  GU6 D   3     130.343 133.515  34.1970  0.00  0.00     0.000 OA
ATOM     52   O  GU6 D   3     131.105 134.028  36.4820  0.00  0.00     0.000 O
ENDBRANCH 39 48
BRANCH 41 53
ATOM     53   C  GU6 D   3     126.511 135.892  39.8010  0.00  0.00     0.000 C
ATOM     54   O  GU6 D   3     127.547 135.982  40.7450  0.00  0.00     0.000 O
ATOM     55   S  GU6 D   3     127.512 137.058  41.8390  0.00  0.00     0.000 S
ATOM     56   O  GU6 D   3     126.361 136.738  42.7160  0.00  0.00     0.000 O
ATOM     57   O  GU6 D   3     128.772 137.000  42.5930  0.00  0.00     0.000 OA
ATOM     58   O  GU6 D   3     127.322 138.362  41.1660  0.00  0.00     0.000 OA
ENDBRANCH 41 53
BRANCH 37 59
ATOM     59  O4  Z9K D   4     127.584 131.793  39.7120  0.00  0.00     0.000 O
BRANCH 59 63
ATOM     60  C1  Z9K D   4     129.609 129.101  41.7360  0.00  0.00     0.000 C
ATOM     61  C2  Z9K D   4     128.566 128.208  41.0080  0.00  0.00     0.000 C
ATOM     62  C3  Z9K D   4     127.872 129.274  40.0530  0.00  0.00     0.000 C
ATOM     63  C4  Z9K D   4     127.458 130.677  40.6410  0.00  0.00     0.000 C
ATOM     64  C5  Z9K D   4     128.266 131.165  41.8530  0.00  0.00     0.000 C
ATOM     65  O5  Z9K D   4     129.581 130.600  41.6130  0.00  0.00     0.000 O
ATOM     66   O  Z9K D   4     126.683 128.775  39.4150  0.00  0.00     0.000 O
ATOM     67   C  Z9K D   4     126.919 128.058  38.2150  0.00  0.00     0.000 C
BRANCH 61 68
ATOM     68   O  Z9K D   4     129.281 127.338  40.1730  0.00  0.00     0.000 O
ATOM     69   O  Z9K D   4     127.171 126.217  41.0910  0.00  0.00     0.000 OA
ATOM     70   S  Z9K D   4     128.594 126.310  41.2200  0.00  0.00     0.000 S
ATOM     71   O  Z9K D   4     129.322 126.344  42.4520  0.00  0.00     0.000 OA
ATOM     72   O  Z9K D   4     129.247 125.429  40.3070  0.00  0.00     0.000 OA
ENDBRANCH 61 68
BRANCH 64 73
ATOM     73   C  Z9K D   4     128.135 132.694  42.0200  0.00  0.00     0.000 C
ATOM     74   O  Z9K D   4     127.058 133.219  42.4280  0.00  0.00     0.000 O
ATOM     75   O  Z9K D   4     129.087 133.471  41.7660  0.00  0.00     0.000 OA
ENDBRANCH 64 73
BRANCH 60 76
ATOM     76  O4  Z9L D   5     129.963 129.108  43.1300  0.00  0.00     0.000 O
BRANCH 76 80
ATOM     77  C1  Z9L D   5     133.005 129.393  45.7060  0.00  0.00     0.000 C
ATOM     78  C2  Z9L D   5     132.072 130.677  45.9370  0.00  0.00     0.000 C
ATOM     79  C3  Z9L D   5     130.586 130.335  45.2040  0.00  0.00     0.000 C
ATOM     80  C4  Z9L D   5     131.082 129.629  43.8000  0.00  0.00     0.000 C
ATOM     81  C5  Z9L D   5     132.192 128.492  43.5270  0.00  0.00     0.000 C
ATOM     82  O5  Z9L D   5     133.307 128.803  44.3760  0.00  0.00     0.000 O
ATOM     83   C  Z9L D   5     133.321 127.124  46.5080  0.00  0.00     0.000 C
ATOM     84   C  Z9L D   5     133.321 127.124  46.5080  0.00  0.00     0.000 C
BRANCH 78 85
ATOM     85   O  Z9L D   5     131.880 130.830  47.3070  0.00  0.00     0.000 O
ATOM     86   O  Z9L D   5     132.600 132.264  48.3720  0.00  0.00     0.000 OA
ATOM     87   S  Z9L D   5     132.689 132.171  46.9470  0.00  0.00     0.000 S
ATOM     88   O  Z9L D   5     131.855 133.237  46.4490  0.00  0.00     0.000 OA
ATOM     89   O  Z9L D   5     134.075 132.018  46.6680  0.00  0.00     0.000 OA
ENDBRANCH 78 85
BRANCH 79 90
ATOM     90   O  Z9L D   5     129.964 131.496  44.7550  0.00  0.00     0.000 O
ATOM     91   S  Z9L D   5     128.836 130.952  45.7390  0.00  0.00     0.000 S
ATOM     92   O  Z9L D   5     129.094 130.670  47.1260  0.00  0.00     0.000 OA
ATOM     93   O  Z9L D   5     127.884 130.172  44.9880  0.00  0.00     0.000 O
ATOM     94   O  Z9L D   5     128.423 132.316  45.6540  0.00  0.00     0.000 OA
ENDBRANCH 79 90
BRANCH 81 95
ATOM     95   C  Z9L D   5     132.495 128.080  41.9300  0.00  0.00     0.000 C
ATOM     96   S  Z9L D   5     133.676 128.412  40.3610  0.00  0.00     0.000 S
ATOM     97   O  Z9L D   5     133.079 129.289  41.5240  0.00  0.00     0.000 O
ATOM     98   O  Z9L D   5     132.587 128.110  39.4680  0.00  0.00     0.000 OA
ATOM     99   O  Z9L D   5     134.609 127.411  40.7560  0.00  0.00     0.000 OA
ATOM    100   O  Z9L D   5     134.236 129.686  39.9830  0.00  0.00     0.000 O
ENDBRANCH 81 95
ENDBRANCH 76 80
ENDBRANCH 60 76
ENDBRANCH 59 63
ENDBRANCH 37 59
ENDBRANCH 36 40
ENDBRANCH 23 36
ENDBRANCH 22 26
ENDBRANCH 1 22
TORSDOF 19
ENDMDL
MODEL 14
REMARK VINA RESULT:       0.0    104.723    110.598
ROOT
ATOM      1  C1  Z9H D   1      99.180 130.226 118.6980  0.00  0.00     0.000 C
ATOM      2  C2  Z9H D   1      97.853 130.994 118.9080  0.00  0.00     0.000 C
ATOM      3  C3  Z9H D   1      97.077 130.436 117.6750  0.00  0.00     0.000 C
ATOM      4  C4  Z9H D   1      97.848 130.516 116.2940  0.00  0.00     0.000 C
ATOM      5  C5  Z9H D   1      99.349 130.052 116.1130  0.00  0.00     0.000 C
ATOM      6  O5  Z9H D   1      99.891 130.315 117.4320  0.00  0.00     0.000 O
ATOM      7   O  Z9H D   1      95.782 131.028 117.5570  0.00  0.00     0.000 O
ATOM      8   C  Z9H D   1      94.696 130.246 118.0830  0.00  0.00     0.000 C
ATOM      9   O  Z9H D   1      97.060 129.765 115.3640  0.00  0.00     0.000 O
ATOM     10   C  Z9H D   1      96.207 130.537 114.5130  0.00  0.00     0.000 C
ENDROOT
BRANCH 2 11
ATOM     11   O  Z9H D   1      97.304 130.331 120.0160  0.00  0.00     0.000 O
ATOM     12   O  Z9H D   1      97.089 131.113 121.7190  0.00  0.00     0.000 OA
ATOM     13   S  Z9H D   1      97.600 131.789 120.5740  0.00  0.00     0.000 S
ATOM     14   O  Z9H D   1      96.667 132.699 119.9730  0.00  0.00     0.000 OA
ATOM     15   O  Z9H D   1      99.017 132.027 120.7200  0.00  0.00     0.000 O
ENDBRANCH 2 11
BRANCH 5 16
ATOM     16   C  Z9H D   1     100.105 130.620 114.7330  0.00  0.00     0.000 C
ATOM     17   S  Z9H D   1     101.380 130.135 113.2570  0.00  0.00     0.000 S
ATOM     18   O  Z9H D   1     100.172 129.399 114.0350  0.00  0.00     0.000 O
ATOM     19   O  Z9H D   1     102.547 130.385 114.0530  0.00  0.00     0.000 O
ATOM     20   O  Z9H D   1     100.862 131.068 112.3180  0.00  0.00     0.000 OA
ATOM     21   O  Z9H D   1     101.433 128.854 112.6150  0.00  0.00     0.000 OA
ENDBRANCH 5 16
BRANCH 1 22
ATOM     22  O4  GU1 D   2      99.079 128.764 118.8470  0.00  0.00     0.000 O
BRANCH 22 26
ATOM     23  C1  GU1 D   2     101.024 125.363 120.1200  0.00  0.00     0.000 C
ATOM     24  C2  GU1 D   2     101.306 126.609 120.9470  0.00  0.00     0.000 C
ATOM     25  C3  GU1 D   2     100.275 127.655 120.6370  0.00  0.00     0.000 C
ATOM     26  C4  GU1 D   2     100.190 127.907 119.1380  0.00  0.00     0.000 C
ATOM     27  C5  GU1 D   2     100.010 126.581 118.3930  0.00  0.00     0.000 C
ATOM     28  O5  GU1 D   2     101.055 125.673 118.7320  0.00  0.00     0.000 O
ATOM     29   O  GU1 D   2     101.262 126.342 122.3430  0.00  0.00     0.000 O
ATOM     30   C  GU1 D   2     102.537 126.105 122.9240  0.00  0.00     0.000 C
ATOM     31   C  GU1 D   2      99.938 129.167 122.4790  0.00  0.00     0.000 C
ATOM     32   O  GU1 D   2     100.658 128.872 121.2840  0.00  0.00     0.000 O
BRANCH 27 33
ATOM     33   C  GU1 D   2     100.043 126.786 116.8970  0.00  0.00     0.000 C
ATOM     34   O  GU1 D   2      99.010 126.650 116.2730  0.00  0.00     0.000 OA
ATOM     35   O  GU1 D   2     101.084 127.086 116.3340  0.00  0.00     0.000 O
ENDBRANCH 27 33
BRANCH 23 36
ATOM     36  O4  GU6 D   3     102.004 124.308 120.0500  0.00  0.00     0.000 O
BRANCH 36 40
ATOM     37  C1  GU6 D   3     105.057 121.851 118.8960  0.00  0.00     0.000 C
ATOM     38  C2  GU6 D   3     104.026 121.176 119.7920  0.00  0.00     0.000 C
ATOM     39  C3  GU6 D   3     102.821 122.069 119.9350  0.00  0.00     0.000 C
ATOM     40  C4  GU6 D   3     102.922 123.439 119.4190  0.00  0.00     0.000 C
ATOM     41  C5  GU6 D   3     104.356 123.998 119.7010  0.00  0.00     0.000 C
ATOM     42  O5  GU6 D   3     105.436 123.083 119.4890  0.00  0.00     0.000 O
BRANCH 38 43
ATOM     43   O  GU6 D   3     103.640 119.926 119.2540  0.00  0.00     0.000 O
ATOM     44   S  GU6 D   3     103.823 118.749 120.2040  0.00  0.00     0.000 S
ATOM     45   O  GU6 D   3     105.233 118.326 120.1580  0.00  0.00     0.000 OA
ATOM     46   O  GU6 D   3     103.487 119.190 121.5700  0.00  0.00     0.000 O
ATOM     47   O  GU6 D   3     102.930 117.671 119.7930  0.00  0.00     0.000 OA
ENDBRANCH 38 43
BRANCH 39 48
ATOM     48   O  GU6 D   3     101.570 121.542 120.3340  0.00  0.00     0.000 O
ATOM     49   S  GU6 D   3     100.366 121.126 119.4890  0.00  0.00     0.000 S
ATOM     50   O  GU6 D   3     100.773 120.141 118.4800  0.00  0.00     0.000 OA
ATOM     51   O  GU6 D   3      99.457 120.529 120.4770  0.00  0.00     0.000 OA
ATOM     52   O  GU6 D   3      99.805 122.326 118.8290  0.00  0.00     0.000 O
ENDBRANCH 39 48
BRANCH 41 53
ATOM     53   C  GU6 D   3     104.763 125.375 120.1510  0.00  0.00     0.000 C
ATOM     54   O  GU6 D   3     104.342 126.081 119.0120  0.00  0.00     0.000 O
ATOM     55   S  GU6 D   3     104.626 127.583 118.8770  0.00  0.00     0.000 S
ATOM     56   O  GU6 D   3     106.096 127.731 118.7700  0.00  0.00     0.000 O
ATOM     57   O  GU6 D   3     103.963 128.078 117.6620  0.00  0.00     0.000 OA
ATOM     58   O  GU6 D   3     104.113 128.238 120.1010  0.00  0.00     0.000 OA
ENDBRANCH 41 53
BRANCH 37 59
ATOM     59  O4  Z9K D   4     104.897 122.087 117.4810  0.00  0.00     0.000 O
BRANCH 59 63
ATOM     60  C1  Z9K D   4     104.912 121.259 113.6390  0.00  0.00     0.000 C
ATOM     61  C2  Z9K D   4     105.657 120.024 114.2160  0.00  0.00     0.000 C
ATOM     62  C3  Z9K D   4     105.486 120.271 115.7770  0.00  0.00     0.000 C
ATOM     63  C4  Z9K D   4     105.749 121.712 116.3600  0.00  0.00     0.000 C
ATOM     64  C5  Z9K D   4     105.544 122.881 115.3850  0.00  0.00     0.000 C
ATOM     65  O5  Z9K D   4     104.481 122.398 114.5220  0.00  0.00     0.000 O
ATOM     66   O  Z9K D   4     106.292 119.393 116.5840  0.00  0.00     0.000 O
ATOM     67   C  Z9K D   4     105.696 118.136 116.8570  0.00  0.00     0.000 C
BRANCH 61 68
ATOM     68   O  Z9K D   4     104.882 118.897 113.9090  0.00  0.00     0.000 O
ATOM     69   O  Z9K D   4     107.380 118.342 113.8690  0.00  0.00     0.000 OA
ATOM     70   S  Z9K D   4     106.232 118.617 113.0580  0.00  0.00     0.000 S
ATOM     71   O  Z9K D   4     106.216 119.427 111.8790  0.00  0.00     0.000 OA
ATOM     72   O  Z9K D   4     105.474 117.430 112.8300  0.00  0.00     0.000 OA
ENDBRANCH 61 68
BRANCH 64 73
ATOM     73   C  Z9K D   4     105.333 124.204 116.1520  0.00  0.00     0.000 C
ATOM     74   O  Z9K D   4     106.291 124.774 116.7520  0.00  0.00     0.000 O
ATOM     75   O  Z9K D   4     104.213 124.767 116.2040  0.00  0.00     0.000 OA
ENDBRANCH 64 73
BRANCH 60 76
ATOM     76  O4  Z9L D   5     105.299 122.105 112.5420  0.00  0.00     0.000 O
BRANCH 76 80
ATOM     77  C1  Z9L D   5     103.946 124.198 109.4180  0.00  0.00     0.000 C
ATOM     78  C2  Z9L D   5     104.568 125.251 110.4550  0.00  0.00     0.000 C
ATOM     79  C3  Z9L D   5     105.531 124.366 111.5270  0.00  0.00     0.000 C
ATOM     80  C4  Z9L D   5     104.575 123.053 111.8010  0.00  0.00     0.000 C
ATOM     81  C5  Z9L D   5     103.752 122.116 110.7780  0.00  0.00     0.000 C
ATOM     82  O5  Z9L D   5     103.165 122.997 109.8080  0.00  0.00     0.000 O
ATOM     83   C  Z9L D   5     104.570 122.860 107.4900  0.00  0.00     0.000 C
ATOM     84   C  Z9L D   5     104.570 122.860 107.4900  0.00  0.00     0.000 C
BRANCH 78 85
ATOM     85   O  Z9L D   5     105.372 126.136 109.7420  0.00  0.00     0.000 O
ATOM     86   O  Z9L D   5     104.981 127.999 109.4510  0.00  0.00     0.000 OA
ATOM     87   S  Z9L D   5     104.223 127.118 110.2860  0.00  0.00     0.000 S
ATOM     88   O  Z9L D   5     104.449 127.590 111.6300  0.00  0.00     0.000 OA
ATOM     89   O  Z9L D   5     102.950 127.011 109.6600  0.00  0.00     0.000 OA
ENDBRANCH 78 85
BRANCH 79 90
ATOM     90   O  Z9L D   5     105.581 124.970 112.7800  0.00  0.00     0.000 O
ATOM     91   S  Z9L D   5     107.136 124.946 112.4340  0.00  0.00     0.000 S
ATOM     92   O  Z9L D   5     107.668 125.543 111.2370  0.00  0.00     0.000 OA
ATOM     93   O  Z9L D   5     107.732 123.761 113.0000  0.00  0.00     0.000 O
ATOM     94   O  Z9L D   5     107.147 125.949 113.4480  0.00  0.00     0.000 OA
ENDBRANCH 79 90
BRANCH 81 95
ATOM     95   C  Z9L D   5     102.798 120.906 111.4410  0.00  0.00     0.000 C
ATOM     96   S  Z9L D   5     100.956 120.424 112.0250  0.00  0.00     0.000 S
ATOM     97   O  Z9L D   5     101.841 121.727 112.0540  0.00  0.00     0.000 O
ATOM     98   O  Z9L D   5     101.497 119.534 113.0190  0.00  0.00     0.000 OA
ATOM     99   O  Z9L D   5     100.588 119.955 110.7320  0.00  0.00     0.000 OA
ATOM    100   O  Z9L D   5     100.018 121.311 112.6680  0.00  0.00     0.000 O
ENDBRANCH 81 95
ENDBRANCH 76 80
ENDBRANCH 60 76
ENDBRANCH 59 63
ENDBRANCH 37 59
ENDBRANCH 36 40
ENDBRANCH 23 36
ENDBRANCH 22 26
ENDBRANCH 1 22
TORSDOF 19
ENDMDL
MODEL 15
REMARK VINA RESULT:       0.0    113.908    118.473
ROOT
ATOM      1  C1  Z9H D   1     105.146 117.903 137.9750  0.00  0.00     0.000 C
ATOM      2  C2  Z9H D   1     105.383 119.328 138.5300  0.00  0.00     0.000 C
ATOM      3  C3  Z9H D   1     106.676 119.034 139.3510  0.00  0.00     0.000 C
ATOM      4  C4  Z9H D   1     106.593 117.789 140.3270  0.00  0.00     0.000 C
ATOM      5  C5  Z9H D   1     106.024 116.381 139.8860  0.00  0.00     0.000 C
ATOM      6  O5  Z9H D   1     105.056 116.766 138.8780  0.00  0.00     0.000 O
ATOM      7   O  Z9H D   1     107.125 120.191 140.0580  0.00  0.00     0.000 O
ATOM      8   C  Z9H D   1     108.183 120.929 139.4240  0.00  0.00     0.000 C
ATOM      9   O  Z9H D   1     107.927 117.575 140.8010  0.00  0.00     0.000 O
ATOM     10   C  Z9H D   1     108.214 118.107 142.0980  0.00  0.00     0.000 C
ENDROOT
BRANCH 2 11
ATOM     11   O  Z9H D   1     105.823 120.017 137.3890  0.00  0.00     0.000 O
ATOM     12   O  Z9H D   1     104.849 121.391 136.5390  0.00  0.00     0.000 OA
ATOM     13   S  Z9H D   1     104.437 120.717 137.7250  0.00  0.00     0.000 S
ATOM     14   O  Z9H D   1     104.602 121.493 138.9200  0.00  0.00     0.000 OA
ATOM     15   O  Z9H D   1     103.318 119.847 137.4460  0.00  0.00     0.000 O
ENDBRANCH 2 11
BRANCH 5 16
ATOM     16   C  Z9H D   1     105.610 115.358 141.1440  0.00  0.00     0.000 C
ATOM     17   S  Z9H D   1     105.632 113.447 141.7650  0.00  0.00     0.000 S
ATOM     18   O  Z9H D   1     106.651 114.425 140.9830  0.00  0.00     0.000 O
ATOM     19   O  Z9H D   1     104.451 113.095 141.0300  0.00  0.00     0.000 O
ATOM     20   O  Z9H D   1     105.623 113.756 143.1530  0.00  0.00     0.000 OA
ATOM     21   O  Z9H D   1     106.705 112.527 141.5290  0.00  0.00     0.000 OA
ENDBRANCH 5 16
BRANCH 1 22
ATOM     22  O4  GU1 D   2     106.180 117.422 137.0410  0.00  0.00     0.000 O
BRANCH 22 26
ATOM     23  C1  GU1 D   2     106.891 115.166 133.6690  0.00  0.00     0.000 C
ATOM     24  C2  GU1 D   2     105.571 115.922 133.6660  0.00  0.00     0.000 C
ATOM     25  C3  GU1 D   2     105.601 116.978 134.7320  0.00  0.00     0.000 C
ATOM     26  C4  GU1 D   2     105.973 116.380 136.0810  0.00  0.00     0.000 C
ATOM     27  C5  GU1 D   2     107.257 115.555 135.9520  0.00  0.00     0.000 C
ATOM     28  O5  GU1 D   2     107.113 114.563 134.9390  0.00  0.00     0.000 O
ATOM     29   O  GU1 D   2     105.325 116.557 132.4170  0.00  0.00     0.000 O
ATOM     30   C  GU1 D   2     104.486 115.809 131.5470  0.00  0.00     0.000 C
ATOM     31   C  GU1 D   2     104.155 118.830 134.2110  0.00  0.00     0.000 C
ATOM     32   O  GU1 D   2     104.295 117.555 134.8330  0.00  0.00     0.000 O
BRANCH 27 33
ATOM     33   C  GU1 D   2     107.586 114.850 137.2460  0.00  0.00     0.000 C
ATOM     34   O  GU1 D   2     108.547 115.231 137.8830  0.00  0.00     0.000 OA
ATOM     35   O  GU1 D   2     106.897 113.922 137.6400  0.00  0.00     0.000 O
ENDBRANCH 27 33
BRANCH 23 36
ATOM     36  O4  GU6 D   3     107.026 113.947 132.9110  0.00  0.00     0.000 O
BRANCH 36 40
ATOM     37  C1  GU6 D   3     107.164 110.028 131.7650  0.00  0.00     0.000 C
ATOM     38  C2  GU6 D   3     107.990 110.959 130.8860  0.00  0.00     0.000 C
ATOM     39  C3  GU6 D   3     108.094 112.311 131.5410  0.00  0.00     0.000 C
ATOM     40  C4  GU6 D   3     107.252 112.566 132.7150  0.00  0.00     0.000 C
ATOM     41  C5  GU6 D   3     105.854 111.893 132.5120  0.00  0.00     0.000 C
ATOM     42  O5  GU6 D   3     105.869 110.588 131.9240  0.00  0.00     0.000 O
BRANCH 38 43
ATOM     43   O  GU6 D   3     109.283 110.425 130.6730  0.00  0.00     0.000 O
ATOM     44   S  GU6 D   3     109.669 110.276 129.2080  0.00  0.00     0.000 S
ATOM     45   O  GU6 D   3     109.077 109.030 128.6910  0.00  0.00     0.000 OA
ATOM     46   O  GU6 D   3     109.125 111.424 128.4590  0.00  0.00     0.000 O
ATOM     47   O  GU6 D   3     111.125 110.256 129.1050  0.00  0.00     0.000 OA
ENDBRANCH 38 43
BRANCH 39 48
ATOM     48   O  GU6 D   3     109.125 113.213 131.1870  0.00  0.00     0.000 O
ATOM     49   S  GU6 D   3     110.461 113.495 131.8740  0.00  0.00     0.000 S
ATOM     50   O  GU6 D   3     111.222 112.250 132.0290  0.00  0.00     0.000 OA
ATOM     51   O  GU6 D   3     111.128 114.412 130.9400  0.00  0.00     0.000 OA
ATOM     52   O  GU6 D   3     110.200 114.098 133.2000  0.00  0.00     0.000 O
ENDBRANCH 39 48
BRANCH 41 53
ATOM     53   C  GU6 D   3     104.489 112.421 132.8620  0.00  0.00     0.000 C
ATOM     54   O  GU6 D   3     104.646 112.444 134.2580  0.00  0.00     0.000 O
ATOM     55   S  GU6 D   3     103.466 112.812 135.1670  0.00  0.00     0.000 S
ATOM     56   O  GU6 D   3     102.458 111.737 135.0160  0.00  0.00     0.000 O
ATOM     57   O  GU6 D   3     103.948 112.882 136.5540  0.00  0.00     0.000 OA
ATOM     58   O  GU6 D   3     102.935 114.110 134.6940  0.00  0.00     0.000 OA
ENDBRANCH 41 53
BRANCH 37 59
ATOM     59  O4  Z9K D   4     107.574 109.522 133.0520  0.00  0.00     0.000 O
BRANCH 59 63
ATOM     60  C1  Z9K D   4     109.441 107.178 135.5950  0.00  0.00     0.000 C
ATOM     61  C2  Z9K D   4     109.621 106.388 134.2700  0.00  0.00     0.000 C
ATOM     62  C3  Z9K D   4     109.029 107.424 133.2190  0.00  0.00     0.000 C
ATOM     63  C4  Z9K D   4     107.669 108.152 133.5410  0.00  0.00     0.000 C
ATOM     64  C5  Z9K D   4     107.325 108.310 135.0300  0.00  0.00     0.000 C
ATOM     65  O5  Z9K D   4     108.630 108.444 135.6500  0.00  0.00     0.000 O
ATOM     66   O  Z9K D   4     108.845 106.861 131.9070  0.00  0.00     0.000 O
ATOM     67   C  Z9K D   4     110.001 106.898 131.0860  0.00  0.00     0.000 C
BRANCH 61 68
ATOM     68   O  Z9K D   4     110.998 106.315 134.0180  0.00  0.00     0.000 O
ATOM     69   O  Z9K D   4     109.795 104.211 133.1980  0.00  0.00     0.000 OA
ATOM     70   S  Z9K D   4     110.615 104.757 134.2370  0.00  0.00     0.000 S
ATOM     71   O  Z9K D   4     110.467 104.506 135.6380  0.00  0.00     0.000 OA
ATOM     72   O  Z9K D   4     111.997 104.687 133.8860  0.00  0.00     0.000 OA
ENDBRANCH 61 68
BRANCH 64 73
ATOM     73   C  Z9K D   4     106.286 109.433 135.2370  0.00  0.00     0.000 C
ATOM     74   O  Z9K D   4     105.079 109.281 134.8910  0.00  0.00     0.000 O
ATOM     75   O  Z9K D   4     106.595 110.531 135.7600  0.00  0.00     0.000 OA
ENDBRANCH 64 73
BRANCH 60 76
ATOM     76  O4  Z9L D   5     108.982 106.694 136.8690  0.00  0.00     0.000 O
BRANCH 76 80
ATOM     77  C1  Z9L D   5     109.526 106.947 140.8200  0.00  0.00     0.000 C
ATOM     78  C2  Z9L D   5     108.054 107.504 140.5130  0.00  0.00     0.000 C
ATOM     79  C3  Z9L D   5     107.653 106.981 138.9550  0.00  0.00     0.000 C
ATOM     80  C4  Z9L D   5     109.071 107.245 138.1580  0.00  0.00     0.000 C
ATOM     81  C5  Z9L D   5     110.591 106.893 138.5660  0.00  0.00     0.000 C
ATOM     82  O5  Z9L D   5     110.714 107.195 139.9640  0.00  0.00     0.000 O
ATOM     83   C  Z9L D   5     110.680 104.890 141.3960  0.00  0.00     0.000 C
ATOM     84   C  Z9L D   5     110.680 104.890 141.3960  0.00  0.00     0.000 C
BRANCH 78 85
ATOM     85   O  Z9L D   5     107.175 106.930 141.4270  0.00  0.00     0.000 O
ATOM     86   O  Z9L D   5     106.278 107.877 142.8440  0.00  0.00     0.000 OA
ATOM     87   S  Z9L D   5     107.083 108.484 141.8270  0.00  0.00     0.000 S
ATOM     88   O  Z9L D   5     106.157 109.238 141.0180  0.00  0.00     0.000 OA
ATOM     89   O  Z9L D   5     108.204 109.029 142.5120  0.00  0.00     0.000 OA
ENDBRANCH 78 85
BRANCH 79 90
ATOM     90   O  Z9L D   5     106.784 107.870 138.3290  0.00  0.00     0.000 O
ATOM     91   S  Z9L D   5     105.903 106.545 138.2640  0.00  0.00     0.000 S
ATOM     92   O  Z9L D   5     105.561 105.789 139.4400  0.00  0.00     0.000 OA
ATOM     93   O  Z9L D   5     106.117 105.891 136.9970  0.00  0.00     0.000 O
ATOM     94   O  Z9L D   5     104.871 107.513 138.0690  0.00  0.00     0.000 OA
ENDBRANCH 79 90
BRANCH 81 95
ATOM     95   C  Z9L D   5     111.804 107.407 137.5280  0.00  0.00     0.000 C
ATOM     96   S  Z9L D   5     113.136 108.843 137.1670  0.00  0.00     0.000 S
ATOM     97   O  Z9L D   5     111.669 108.787 137.7370  0.00  0.00     0.000 O
ATOM     98   O  Z9L D   5     113.041 108.586 135.7530  0.00  0.00     0.000 OA
ATOM     99   O  Z9L D   5     114.136 108.221 137.9680  0.00  0.00     0.000 OA
ATOM    100   O  Z9L D   5     112.934 110.253 137.3880  0.00  0.00     0.000 O
ENDBRANCH 81 95
ENDBRANCH 76 80
ENDBRANCH 60 76
ENDBRANCH 59 63
ENDBRANCH 37 59
ENDBRANCH 36 40
ENDBRANCH 23 36
ENDBRANCH 22 26
ENDBRANCH 1 22
TORSDOF 19
ENDMDL
MODEL 16
REMARK VINA RESULT:       0.0     44.725     49.903
ROOT
ATOM      1  C1  Z9H D   1      46.960  78.136  99.9910  0.00  0.00     0.000 C
ATOM      2  C2  Z9H D   1      48.022  79.039  99.3180  0.00  0.00     0.000 C
ATOM      3  C3  Z9H D   1      47.733  80.350 100.1120  0.00  0.00     0.000 C
ATOM      4  C4  Z9H D   1      46.212  80.792 100.1650  0.00  0.00     0.000 C
ATOM      5  C5  Z9H D   1      45.036  79.797 100.5180  0.00  0.00     0.000 C
ATOM      6  O5  Z9H D   1      45.563  78.540 100.0230  0.00  0.00     0.000 O
ATOM      7   O  Z9H D   1      48.549  81.432  99.6560  0.00  0.00     0.000 O
ATOM      8   C  Z9H D   1      49.722  81.693 100.4450  0.00  0.00     0.000 C
ATOM      9   O  Z9H D   1      46.152  81.869 101.1060  0.00  0.00     0.000 O
ATOM     10   C  Z9H D   1      46.132  83.183 100.5400  0.00  0.00     0.000 C
ENDROOT
BRANCH 2 11
ATOM     11   O  Z9H D   1      49.216  78.539  99.8600  0.00  0.00     0.000 O
ATOM     12   O  Z9H D   1      50.534  77.632  98.8610  0.00  0.00     0.000 OA
ATOM     13   S  Z9H D   1      49.341  78.187  98.3160  0.00  0.00     0.000 S
ATOM     14   O  Z9H D   1      49.547  79.407  97.5900  0.00  0.00     0.000 OA
ATOM     15   O  Z9H D   1      48.427  77.136  97.9320  0.00  0.00     0.000 O
ENDBRANCH 2 11
BRANCH 5 16
ATOM     16   C  Z9H D   1      43.507  80.327 100.0920  0.00  0.00     0.000 C
ATOM     17   S  Z9H D   1      41.574  80.341 100.6430  0.00  0.00     0.000 S
ATOM     18   O  Z9H D   1      42.995  80.503 101.3910  0.00  0.00     0.000 O
ATOM     19   O  Z9H D   1      41.316  79.031 100.1160  0.00  0.00     0.000 O
ATOM     20   O  Z9H D   1      41.244  81.538  99.9510  0.00  0.00     0.000 OA
ATOM     21   O  Z9H D   1      41.113  80.476 101.9940  0.00  0.00     0.000 OA
ENDBRANCH 5 16
BRANCH 1 22
ATOM     22  O4  GU1 D   2      47.194  77.865 101.4200  0.00  0.00     0.000 O
BRANCH 22 26
ATOM     23  C1  GU1 D   2      46.857  75.061 104.4190  0.00  0.00     0.000 C
ATOM     24  C2  GU1 D   2      47.193  74.494 103.0480  0.00  0.00     0.000 C
ATOM     25  C3  GU1 D   2      47.660  75.604 102.1520  0.00  0.00     0.000 C
ATOM     26  C4  GU1 D   2      46.651  76.743 102.1250  0.00  0.00     0.000 C
ATOM     27  C5  GU1 D   2      46.302  77.168 103.5540  0.00  0.00     0.000 C
ATOM     28  O5  GU1 D   2      45.841  76.051 104.3090  0.00  0.00     0.000 O
ATOM     29   O  GU1 D   2      48.223  73.515 103.1150  0.00  0.00     0.000 O
ATOM     30   C  GU1 D   2      47.743  72.178 103.1530  0.00  0.00     0.000 C
ATOM     31   C  GU1 D   2      49.142  74.813 100.4270  0.00  0.00     0.000 C
ATOM     32   O  GU1 D   2      47.800  75.086 100.8250  0.00  0.00     0.000 O
BRANCH 27 33
ATOM     33   C  GU1 D   2      45.213  78.214 103.5630  0.00  0.00     0.000 C
ATOM     34   O  GU1 D   2      44.089  77.880 103.2510  0.00  0.00     0.000 OA
ATOM     35   O  GU1 D   2      45.462  79.367 103.8820  0.00  0.00     0.000 O
ENDBRANCH 27 33
BRANCH 23 36
ATOM     36  O4  GU6 D   3      46.157  74.249 105.3820  0.00  0.00     0.000 O
BRANCH 36 40
ATOM     37  C1  GU6 D   3      43.282  72.499 107.6990  0.00  0.00     0.000 C
ATOM     38  C2  GU6 D   3      44.671  72.493 108.3260  0.00  0.00     0.000 C
ATOM     39  C3  GU6 D   3      45.587  73.387 107.5330  0.00  0.00     0.000 C
ATOM     40  C4  GU6 D   3      45.097  73.898 106.2480  0.00  0.00     0.000 C
ATOM     41  C5  GU6 D   3      44.262  72.787 105.5290  0.00  0.00     0.000 C
ATOM     42  O5  GU6 D   3      43.386  72.024 106.3660  0.00  0.00     0.000 O
BRANCH 38 43
ATOM     43   O  GU6 D   3      44.612  72.931 109.6700  0.00  0.00     0.000 O
ATOM     44   S  GU6 D   3      45.206  71.955 110.6770  0.00  0.00     0.000 S
ATOM     45   O  GU6 D   3      44.199  70.922 110.9770  0.00  0.00     0.000 OA
ATOM     46   O  GU6 D   3      46.393  71.321 110.0750  0.00  0.00     0.000 O
ATOM     47   O  GU6 D   3      45.587  72.691 111.8780  0.00  0.00     0.000 OA
ENDBRANCH 38 43
BRANCH 39 48
ATOM     48   O  GU6 D   3      46.773  73.903 108.1060  0.00  0.00     0.000 O
ATOM     49   S  GU6 D   3      47.044  75.268 108.7390  0.00  0.00     0.000 S
ATOM     50   O  GU6 D   3      46.080  75.525 109.8160  0.00  0.00     0.000 OA
ATOM     51   O  GU6 D   3      48.407  75.124 109.2690  0.00  0.00     0.000 OA
ATOM     52   O  GU6 D   3      46.929  76.311 107.6960  0.00  0.00     0.000 O
ENDBRANCH 39 48
BRANCH 41 53
ATOM     53   C  GU6 D   3      44.238  72.415 104.0710  0.00  0.00     0.000 C
ATOM     54   O  GU6 D   3      43.691  73.610 103.5780  0.00  0.00     0.000 O
ATOM     55   S  GU6 D   3      43.331  73.747 102.0920  0.00  0.00     0.000 S
ATOM     56   O  GU6 D   3      42.220  72.803 101.8330  0.00  0.00     0.000 O
ATOM     57   O  GU6 D   3      42.907  75.132 101.8390  0.00  0.00     0.000 OA
ATOM     58   O  GU6 D   3      44.535  73.379 101.3140  0.00  0.00     0.000 OA
ENDBRANCH 41 53
BRANCH 37 59
ATOM     59  O4  Z9K D   4      42.385  73.630 107.6830  0.00  0.00     0.000 O
BRANCH 59 63
ATOM     60  C1  Z9K D   4      39.709  76.157 109.0620  0.00  0.00     0.000 C
ATOM     61  C2  Z9K D   4      39.652  75.039 110.1400  0.00  0.00     0.000 C
ATOM     62  C3  Z9K D   4      40.860  74.114 109.6800  0.00  0.00     0.000 C
ATOM     63  C4  Z9K D   4      41.011  73.751 108.1540  0.00  0.00     0.000 C
ATOM     64  C5  Z9K D   4      40.410  74.755 107.1590  0.00  0.00     0.000 C
ATOM     65  O5  Z9K D   4      40.578  76.025 107.8410  0.00  0.00     0.000 O
ATOM     66   O  Z9K D   4      40.903  72.850 110.3670  0.00  0.00     0.000 O
ATOM     67   C  Z9K D   4      41.581  72.882 111.6120  0.00  0.00     0.000 C
BRANCH 61 68
ATOM     68   O  Z9K D   4      40.041  75.620 111.3550  0.00  0.00     0.000 O
ATOM     69   O  Z9K D   4      38.283  73.796 111.7210  0.00  0.00     0.000 OA
ATOM     70   S  Z9K D   4      38.503  75.210 111.6570  0.00  0.00     0.000 S
ATOM     71   O  Z9K D   4      37.636  76.164 111.0360  0.00  0.00     0.000 OA
ATOM     72   O  Z9K D   4      38.940  75.715 112.9190  0.00  0.00     0.000 OA
ENDBRANCH 61 68
BRANCH 64 73
ATOM     73   C  Z9K D   4      41.032  74.578 105.7570  0.00  0.00     0.000 C
ATOM     74   O  Z9K D   4      41.843  75.428 105.2880  0.00  0.00     0.000 O
ATOM     75   O  Z9K D   4      40.764  73.587 105.0350  0.00  0.00     0.000 OA
ENDBRANCH 64 73
BRANCH 60 76
ATOM     76  O4  Z9L D   5      38.619  76.778 108.3600  0.00  0.00     0.000 O
BRANCH 76 80
ATOM     77  C1  Z9L D   5      37.231  80.245 106.9360  0.00  0.00     0.000 C
ATOM     78  C2  Z9L D   5      37.499  79.293 105.6740  0.00  0.00     0.000 C
ATOM     79  C3  Z9L D   5      37.635  77.717 106.2750  0.00  0.00     0.000 C
ATOM     80  C4  Z9L D   5      38.551  77.970 107.6200  0.00  0.00     0.000 C
ATOM     81  C5  Z9L D   5      38.429  79.078 108.7860  0.00  0.00     0.000 C
ATOM     82  O5  Z9L D   5      38.105  80.315 108.1350  0.00  0.00     0.000 O
ATOM     83   C  Z9L D   5      35.471  80.864 108.4890  0.00  0.00     0.000 C
ATOM     84   C  Z9L D   5      35.471  80.864 108.4890  0.00  0.00     0.000 C
BRANCH 78 85
ATOM     85   O  Z9L D   5      36.391  79.367 104.8340  0.00  0.00     0.000 O
ATOM     86   O  Z9L D   5      36.378  80.182 103.0900  0.00  0.00     0.000 OA
ATOM     87   S  Z9L D   5      37.541  79.993 103.9020  0.00  0.00     0.000 S
ATOM     88   O  Z9L D   5      38.327  79.004 103.2050  0.00  0.00     0.000 OA
ATOM     89   O  Z9L D   5      37.983  81.303 104.2350  0.00  0.00     0.000 OA
ENDBRANCH 78 85
BRANCH 79 90
ATOM     90   O  Z9L D   5      38.474  76.942 105.4790  0.00  0.00     0.000 O
ATOM     91   S  Z9L D   5      37.145  76.069 105.3950  0.00  0.00     0.000 S
ATOM     92   O  Z9L D   5      35.893  76.613 104.9410  0.00  0.00     0.000 OA
ATOM     93   O  Z9L D   5      37.184  75.042 106.4070  0.00  0.00     0.000 O
ATOM     94   O  Z9L D   5      37.824  75.557 104.2490  0.00  0.00     0.000 OA
ENDBRANCH 79 90
BRANCH 81 95
ATOM     95   C  Z9L D   5      39.618  79.084 109.9690  0.00  0.00     0.000 C
ATOM     96   S  Z9L D   5      41.338  79.908 110.5410  0.00  0.00     0.000 S
ATOM     97   O  Z9L D   5      40.690  79.498 109.1660  0.00  0.00     0.000 O
ATOM     98   O  Z9L D   5      41.712  78.686 111.2040  0.00  0.00     0.000 OA
ATOM     99   O  Z9L D   5      40.687  80.963 111.2420  0.00  0.00     0.000 OA
ATOM    100   O  Z9L D   5      42.416  80.300 109.6660  0.00  0.00     0.000 O
ENDBRANCH 81 95
ENDBRANCH 76 80
ENDBRANCH 60 76
ENDBRANCH 59 63
ENDBRANCH 37 59
ENDBRANCH 36 40
ENDBRANCH 23 36
ENDBRANCH 22 26
ENDBRANCH 1 22
TORSDOF 19
ENDMDL
MODEL 17
REMARK VINA RESULT:       0.0     13.393     20.631
ROOT
ATOM      1  C1  Z9H D   1      26.810  49.946  57.3410  0.00  0.00     0.000 C
ATOM      2  C2  Z9H D   1      27.092  50.991  58.4470  0.00  0.00     0.000 C
ATOM      3  C3  Z9H D   1      26.194  50.378  59.5660  0.00  0.00     0.000 C
ATOM      4  C4  Z9H D   1      24.708  50.037  59.1340  0.00  0.00     0.000 C
ATOM      5  C5  Z9H D   1      24.352  49.254  57.8080  0.00  0.00     0.000 C
ATOM      6  O5  Z9H D   1      25.445  49.648  56.9400  0.00  0.00     0.000 O
ATOM      7   O  Z9H D   1      26.196  51.186  60.7440  0.00  0.00     0.000 O
ATOM      8   C  Z9H D   1      27.088  50.754  61.7860  0.00  0.00     0.000 C
ATOM      9   O  Z9H D   1      24.146  49.299  60.2240  0.00  0.00     0.000 O
ATOM     10   C  Z9H D   1      23.323  50.052  61.1200  0.00  0.00     0.000 C
ENDROOT
BRANCH 2 11
ATOM     11   O  Z9H D   1      28.408  50.676  58.8200  0.00  0.00     0.000 O
ATOM     12   O  Z9H D   1      29.893  51.796  58.5130  0.00  0.00     0.000 OA
ATOM     13   S  Z9H D   1      28.547  52.125  58.1840  0.00  0.00     0.000 S
ATOM     14   O  Z9H D   1      27.945  53.070  59.0800  0.00  0.00     0.000 OA
ATOM     15   O  Z9H D   1      28.358  52.100  56.7520  0.00  0.00     0.000 O
ENDBRANCH 2 11
BRANCH 5 16
ATOM     16   C  Z9H D   1      22.758  49.385  57.3150  0.00  0.00     0.000 C
ATOM     17   S  Z9H D   1      21.212  48.379  56.5160  0.00  0.00     0.000 S
ATOM     18   O  Z9H D   1      22.357  48.068  57.6100  0.00  0.00     0.000 O
ATOM     19   O  Z9H D   1      21.688  48.526  55.1700  0.00  0.00     0.000 O
ATOM     20   O  Z9H D   1      20.205  49.208  57.0810  0.00  0.00     0.000 OA
ATOM     21   O  Z9H D   1      20.880  47.018  56.8220  0.00  0.00     0.000 OA
ENDBRANCH 5 16
BRANCH 1 22
ATOM     22  O4  GU1 D   2      27.306  48.589  57.6320  0.00  0.00     0.000 O
BRANCH 22 26
ATOM     23  C1  GU1 D   2      28.936  45.175  56.0020  0.00  0.00     0.000 C
ATOM     24  C2  GU1 D   2      29.388  46.473  55.3500  0.00  0.00     0.000 C
ATOM     25  C3  GU1 D   2      29.046  47.626  56.2490  0.00  0.00     0.000 C
ATOM     26  C4  GU1 D   2      27.573  47.599  56.6310  0.00  0.00     0.000 C
ATOM     27  C5  GU1 D   2      27.198  46.219  57.1780  0.00  0.00     0.000 C
ATOM     28  O5  GU1 D   2      27.534  45.202  56.2380  0.00  0.00     0.000 O
ATOM     29   O  GU1 D   2      30.791  46.492  55.1180  0.00  0.00     0.000 O
ATOM     30   C  GU1 D   2      31.161  46.120  53.7980  0.00  0.00     0.000 C
ATOM     31   C  GU1 D   2      30.523  49.498  55.9230  0.00  0.00     0.000 C
ATOM     32   O  GU1 D   2      29.314  48.843  55.5460  0.00  0.00     0.000 O
BRANCH 27 33
ATOM     33   C  GU1 D   2      25.716  46.124  57.4530  0.00  0.00     0.000 C
ATOM     34   O  GU1 D   2      25.345  46.068  58.6080  0.00  0.00     0.000 OA
ATOM     35   O  GU1 D   2      24.914  46.108  56.5330  0.00  0.00     0.000 O
ENDBRANCH 27 33
BRANCH 23 36
ATOM     36  O4  GU6 D   3      28.926  43.951  55.2400  0.00  0.00     0.000 O
BRANCH 36 40
ATOM     37  C1  GU6 D   3      27.817  40.738  52.9730  0.00  0.00     0.000 C
ATOM     38  C2  GU6 D   3      29.025  40.479  53.8640  0.00  0.00     0.000 C
ATOM     39  C3  GU6 D   3      29.183  41.612  54.8440  0.00  0.00     0.000 C
ATOM     40  C4  GU6 D   3      28.352  42.805  54.6440  0.00  0.00     0.000 C
ATOM     41  C5  GU6 D   3      28.218  43.099  53.1140  0.00  0.00     0.000 C
ATOM     42  O5  GU6 D   3      28.023  41.955  52.2740  0.00  0.00     0.000 O
BRANCH 38 43
ATOM     43   O  GU6 D   3      28.877  39.256  54.5610  0.00  0.00     0.000 O
ATOM     44   S  GU6 D   3      30.025  38.275  54.3610  0.00  0.00     0.000 S
ATOM     45   O  GU6 D   3      29.819  37.566  53.0860  0.00  0.00     0.000 OA
ATOM     46   O  GU6 D   3      31.288  39.034  54.3000  0.00  0.00     0.000 O
ATOM     47   O  GU6 D   3      30.053  37.348  55.4870  0.00  0.00     0.000 OA
ENDBRANCH 38 43
BRANCH 39 48
ATOM     48   O  GU6 D   3      29.925  41.444  56.0370  0.00  0.00     0.000 O
ATOM     49   S  GU6 D   3      29.446  41.135  57.4540  0.00  0.00     0.000 S
ATOM     50   O  GU6 D   3      28.633  39.913  57.4580  0.00  0.00     0.000 OA
ATOM     51   O  GU6 D   3      30.700  40.941  58.1950  0.00  0.00     0.000 OA
ATOM     52   O  GU6 D   3      28.646  42.277  57.9500  0.00  0.00     0.000 O
ENDBRANCH 39 48
BRANCH 41 53
ATOM     53   C  GU6 D   3      28.248  44.421  52.3960  0.00  0.00     0.000 C
ATOM     54   O  GU6 D   3      27.079  44.966  52.9520  0.00  0.00     0.000 O
ATOM     55   S  GU6 D   3      26.547  46.322  52.4690  0.00  0.00     0.000 S
ATOM     56   O  GU6 D   3      26.127  46.139  51.0600  0.00  0.00     0.000 O
ATOM     57   O  GU6 D   3      25.401  46.701  53.3080  0.00  0.00     0.000 OA
ATOM     58   O  GU6 D   3      27.660  47.292  52.5710  0.00  0.00     0.000 OA
ENDBRANCH 41 53
BRANCH 37 59
ATOM     59  O4  Z9K D   4      26.443  40.725  53.4160  0.00  0.00     0.000 O
BRANCH 59 63
ATOM     60  C1  Z9K D   4      22.983  39.166  54.4380  0.00  0.00     0.000 C
ATOM     61  C2  Z9K D   4      23.682  37.943  53.7840  0.00  0.00     0.000 C
ATOM     62  C3  Z9K D   4      25.142  38.525  53.5400  0.00  0.00     0.000 C
ATOM     63  C4  Z9K D   4      25.301  39.967  52.9230  0.00  0.00     0.000 C
ATOM     64  C5  Z9K D   4      24.134  40.936  53.1640  0.00  0.00     0.000 C
ATOM     65  O5  Z9K D   4      23.634  40.522  54.4630  0.00  0.00     0.000 O
ATOM     66   O  Z9K D   4      25.962  37.678  52.7160  0.00  0.00     0.000 O
ATOM     67   C  Z9K D   4      26.639  36.650  53.4220  0.00  0.00     0.000 C
BRANCH 61 68
ATOM     68   O  Z9K D   4      23.810  36.963  54.7770  0.00  0.00     0.000 O
ATOM     69   O  Z9K D   4      23.432  35.907  52.4770  0.00  0.00     0.000 OA
ATOM     70   S  Z9K D   4      22.812  36.244  53.7240  0.00  0.00     0.000 S
ATOM     71   O  Z9K D   4      21.497  36.783  53.8850  0.00  0.00     0.000 OA
ATOM     72   O  Z9K D   4      23.027  35.218  54.6930  0.00  0.00     0.000 OA
ENDBRANCH 61 68
BRANCH 64 73
ATOM     73   C  Z9K D   4      24.588  42.399  52.9760  0.00  0.00     0.000 C
ATOM     74   O  Z9K D   4      24.839  42.865  51.8260  0.00  0.00     0.000 O
ATOM     75   O  Z9K D   4      24.718  43.182  53.9480  0.00  0.00     0.000 OA
ENDBRANCH 64 73
BRANCH 60 76
ATOM     76  O4  Z9L D   5      21.662  39.679  54.1920  0.00  0.00     0.000 O
BRANCH 76 80
ATOM     77  C1  Z9L D   5      18.416  41.251  55.9130  0.00  0.00     0.000 C
ATOM     78  C2  Z9L D   5      19.031  42.379  54.9530  0.00  0.00     0.000 C
ATOM     79  C3  Z9L D   5      20.096  41.592  53.9000  0.00  0.00     0.000 C
ATOM     80  C4  Z9L D   5      20.854  40.556  54.9330  0.00  0.00     0.000 C
ATOM     81  C5  Z9L D   5      20.260  39.579  56.0700  0.00  0.00     0.000 C
ATOM     82  O5  Z9L D   5      19.226  40.318  56.7380  0.00  0.00     0.000 O
ATOM     83   C  Z9L D   5      16.799  39.441  55.8980  0.00  0.00     0.000 C
ATOM     84   C  Z9L D   5      16.799  39.441  55.8980  0.00  0.00     0.000 C
BRANCH 78 85
ATOM     85   O  Z9L D   5      17.989  42.934  54.2170  0.00  0.00     0.000 O
ATOM     86   O  Z9L D   5      17.320  44.729  54.4250  0.00  0.00     0.000 OA
ATOM     87   S  Z9L D   5      18.470  44.195  55.0900  0.00  0.00     0.000 S
ATOM     88   O  Z9L D   5      19.592  44.901  54.5220  0.00  0.00     0.000 OA
ATOM     89   O  Z9L D   5      18.129  44.176  56.4710  0.00  0.00     0.000 OA
ENDBRANCH 78 85
BRANCH 79 90
ATOM     90   O  Z9L D   5      21.131  42.434  53.5030  0.00  0.00     0.000 O
ATOM     91   S  Z9L D   5      20.523  42.068  52.0770  0.00  0.00     0.000 S
ATOM     92   O  Z9L D   5      19.140  42.293  51.7490  0.00  0.00     0.000 OA
ATOM     93   O  Z9L D   5      21.244  40.949  51.5240  0.00  0.00     0.000 O
ATOM     94   O  Z9L D   5      21.240  43.250  51.7210  0.00  0.00     0.000 OA
ENDBRANCH 79 90
BRANCH 81 95
ATOM     95   C  Z9L D   5      21.362  38.726  57.0030  0.00  0.00     0.000 C
ATOM     96   S  Z9L D   5      22.383  38.718  58.7130  0.00  0.00     0.000 S
ATOM     97   O  Z9L D   5      21.931  39.815  57.6780  0.00  0.00     0.000 O
ATOM     98   O  Z9L D   5      23.441  37.968  58.0860  0.00  0.00     0.000 OA
ATOM     99   O  Z9L D   5      21.335  38.068  59.4240  0.00  0.00     0.000 OA
ATOM    100   O  Z9L D   5      22.962  39.874  59.3530  0.00  0.00     0.000 O
ENDBRANCH 81 95
ENDBRANCH 76 80
ENDBRANCH 60 76
ENDBRANCH 59 63
ENDBRANCH 37 59
ENDBRANCH 36 40
ENDBRANCH 23 36
ENDBRANCH 22 26
ENDBRANCH 1 22
TORSDOF 19
ENDMDL
MODEL 18
REMARK VINA RESULT:       0.0    128.530    134.397
ROOT
ATOM      1  C1  Z9H D   1     134.047 148.235  30.9540  0.00  0.00     0.000 C
ATOM      2  C2  Z9H D   1     134.007 149.781  30.9050  0.00  0.00     0.000 C
ATOM      3  C3  Z9H D   1     133.674 150.042  32.4070  0.00  0.00     0.000 C
ATOM      4  C4  Z9H D   1     132.450 149.219  32.9840  0.00  0.00     0.000 C
ATOM      5  C5  Z9H D   1     132.270 147.665  32.7590  0.00  0.00     0.000 C
ATOM      6  O5  Z9H D   1     132.914 147.484  31.4720  0.00  0.00     0.000 O
ATOM      7   O  Z9H D   1     133.507 151.436  32.6740  0.00  0.00     0.000 O
ATOM      8   C  Z9H D   1     134.654 152.098  33.2330  0.00  0.00     0.000 C
ATOM      9   O  Z9H D   1     132.463 149.442  34.3980  0.00  0.00     0.000 O
ATOM     10   C  Z9H D   1     131.548 150.433  34.8750  0.00  0.00     0.000 C
ENDROOT
BRANCH 2 11
ATOM     11   O  Z9H D   1     135.366 150.104  30.7710  0.00  0.00     0.000 O
ATOM     12   O  Z9H D   1     136.121 150.889  29.2300  0.00  0.00     0.000 OA
ATOM     13   S  Z9H D   1     134.737 150.600  29.3990  0.00  0.00     0.000 S
ATOM     14   O  Z9H D   1     133.931 151.758  29.6650  0.00  0.00     0.000 OA
ATOM     15   O  Z9H D   1     134.347 149.492  28.5580  0.00  0.00     0.000 O
ENDBRANCH 2 11
BRANCH 5 16
ATOM     16   C  Z9H D   1     130.730 147.079  33.0510  0.00  0.00     0.000 C
ATOM     17   S  Z9H D   1     129.689 145.512  33.7570  0.00  0.00     0.000 S
ATOM     18   O  Z9H D   1     131.032 146.299  34.1830  0.00  0.00     0.000 O
ATOM     19   O  Z9H D   1     129.786 144.773  32.5310  0.00  0.00     0.000 O
ATOM     20   O  Z9H D   1     128.541 146.266  34.1240  0.00  0.00     0.000 OA
ATOM     21   O  Z9H D   1     130.074 144.723  34.8910  0.00  0.00     0.000 OA
ENDBRANCH 5 16
BRANCH 1 22
ATOM     22  O4  GU1 D   2     135.137 147.669  31.7680  0.00  0.00     0.000 O
BRANCH 22 26
ATOM     23  C1  GU1 D   2     137.840 144.578  32.1010  0.00  0.00     0.000 C
ATOM     24  C2  GU1 D   2     137.549 145.022  30.6760  0.00  0.00     0.000 C
ATOM     25  C3  GU1 D   2     136.876 146.364  30.7010  0.00  0.00     0.000 C
ATOM     26  C4  GU1 D   2     135.655 146.343  31.6090  0.00  0.00     0.000 C
ATOM     27  C5  GU1 D   2     136.034 145.784  32.9840  0.00  0.00     0.000 C
ATOM     28  O5  GU1 D   2     136.634 144.498  32.8510  0.00  0.00     0.000 O
ATOM     29   O  GU1 D   2     138.736 145.135  29.9010  0.00  0.00     0.000 O
ATOM     30   C  GU1 D   2     139.015 143.991  29.1060  0.00  0.00     0.000 C
ATOM     31   C  GU1 D   2     137.280 147.617  28.6860  0.00  0.00     0.000 C
ATOM     32   O  GU1 D   2     136.451 146.681  29.3720  0.00  0.00     0.000 O
BRANCH 27 33
ATOM     33   C  GU1 D   2     134.818 145.638  33.8690  0.00  0.00     0.000 C
ATOM     34   O  GU1 D   2     134.011 144.771  33.6030  0.00  0.00     0.000 OA
ATOM     35   O  GU1 D   2     134.658 146.375  34.8290  0.00  0.00     0.000 O
ENDBRANCH 27 33
BRANCH 23 36
ATOM     36  O4  GU6 D   3     138.258 143.224  32.3630  0.00  0.00     0.000 O
BRANCH 36 40
ATOM     37  C1  GU6 D   3     138.330 139.247  33.2990  0.00  0.00     0.000 C
ATOM     38  C2  GU6 D   3     139.656 139.961  33.5290  0.00  0.00     0.000 C
ATOM     39  C3  GU6 D   3     139.454 141.450  33.4190  0.00  0.00     0.000 C
ATOM     40  C4  GU6 D   3     138.162 141.926  32.9150  0.00  0.00     0.000 C
ATOM     41  C5  GU6 D   3     137.661 140.977  31.7780  0.00  0.00     0.000 C
ATOM     42  O5  GU6 D   3     137.858 139.576  32.0020  0.00  0.00     0.000 O
BRANCH 38 43
ATOM     43   O  GU6 D   3     140.182 139.637  34.8020  0.00  0.00     0.000 O
ATOM     44   S  GU6 D   3     141.597 139.076  34.7740  0.00  0.00     0.000 S
ATOM     45   O  GU6 D   3     141.526 137.641  34.4470  0.00  0.00     0.000 OA
ATOM     46   O  GU6 D   3     142.362 139.779  33.7280  0.00  0.00     0.000 O
ATOM     47   O  GU6 D   3     142.215 139.294  36.0780  0.00  0.00     0.000 OA
ENDBRANCH 38 43
BRANCH 39 48
ATOM     48   O  GU6 D   3     140.379 142.352  33.9940  0.00  0.00     0.000 O
ATOM     49   S  GU6 D   3     140.325 143.095  35.3290  0.00  0.00     0.000 S
ATOM     50   O  GU6 D   3     140.145 142.142  36.4300  0.00  0.00     0.000 OA
ATOM     51   O  GU6 D   3     141.639 143.747  35.4010  0.00  0.00     0.000 OA
ATOM     52   O  GU6 D   3     139.197 144.053  35.2990  0.00  0.00     0.000 O
ENDBRANCH 39 48
BRANCH 41 53
ATOM     53   C  GU6 D   3     136.984 141.328  30.4800  0.00  0.00     0.000 C
ATOM     54   O  GU6 D   3     135.794 141.843  31.0190  0.00  0.00     0.000 O
ATOM     55   S  GU6 D   3     134.643 142.268  30.0980  0.00  0.00     0.000 S
ATOM     56   O  GU6 D   3     134.142 141.037  29.4430  0.00  0.00     0.000 O
ATOM     57   O  GU6 D   3     133.590 142.886  30.9180  0.00  0.00     0.000 OA
ATOM     58   O  GU6 D   3     135.202 143.211  29.1030  0.00  0.00     0.000 OA
ENDBRANCH 41 53
BRANCH 37 59
ATOM     59  O4  Z9K D   4     137.198 139.296  34.1930  0.00  0.00     0.000 O
BRANCH 59 63
ATOM     60  C1  Z9K D   4     135.005 138.372  37.3220  0.00  0.00     0.000 C
ATOM     61  C2  Z9K D   4     136.071 137.242  37.3570  0.00  0.00     0.000 C
ATOM     62  C3  Z9K D   4     137.058 137.723  36.2060  0.00  0.00     0.000 C
ATOM     63  C4  Z9K D   4     136.457 138.218  34.8360  0.00  0.00     0.000 C
ATOM     64  C5  Z9K D   4     135.031 138.786  34.8910  0.00  0.00     0.000 C
ATOM     65  O5  Z9K D   4     134.974 139.387  36.2120  0.00  0.00     0.000 O
ATOM     66   O  Z9K D   4     138.036 136.731  35.8440  0.00  0.00     0.000 O
ATOM     67   C  Z9K D   4     139.200 136.733  36.6540  0.00  0.00     0.000 C
BRANCH 61 68
ATOM     68   O  Z9K D   4     136.775 137.378  38.5610  0.00  0.00     0.000 O
ATOM     69   O  Z9K D   4     136.573 134.920  37.8790  0.00  0.00     0.000 OA
ATOM     70   S  Z9K D   4     136.063 135.935  38.7500  0.00  0.00     0.000 S
ATOM     71   O  Z9K D   4     134.687 136.135  39.0850  0.00  0.00     0.000 OA
ATOM     72   O  Z9K D   4     136.860 136.042  39.9300  0.00  0.00     0.000 OA
ENDBRANCH 61 68
BRANCH 64 73
ATOM     73   C  Z9K D   4     134.745 139.672  33.6600  0.00  0.00     0.000 C
ATOM     74   O  Z9K D   4     134.648 140.929  33.7660  0.00  0.00     0.000 O
ATOM     75   O  Z9K D   4     134.605 139.184  32.5120  0.00  0.00     0.000 OA
ENDBRANCH 64 73
BRANCH 60 76
ATOM     76  O4  Z9L D   5     133.575 138.255  37.4100  0.00  0.00     0.000 O
BRANCH 76 80
ATOM     77  C1  Z9L D   5     130.273 139.907  38.9410  0.00  0.00     0.000 C
ATOM     78  C2  Z9L D   5     130.160 140.022  37.3450  0.00  0.00     0.000 C
ATOM     79  C3  Z9L D   5     131.291 138.943  36.6980  0.00  0.00     0.000 C
ATOM     80  C4  Z9L D   5     132.581 139.208  37.6870  0.00  0.00     0.000 C
ATOM     81  C5  Z9L D   5     132.673 139.325  39.2930  0.00  0.00     0.000 C
ATOM     82  O5  Z9L D   5     131.532 140.090  39.7080  0.00  0.00     0.000 O
ATOM     83   C  Z9L D   5     129.664 138.433  40.7710  0.00  0.00     0.000 C
ATOM     84   C  Z9L D   5     129.664 138.433  40.7710  0.00  0.00     0.000 C
BRANCH 78 85
ATOM     85   O  Z9L D   5     128.881 139.619  36.9730  0.00  0.00     0.000 O
ATOM     86   O  Z9L D   5     127.517 140.781  36.2650  0.00  0.00     0.000 OA
ATOM     87   S  Z9L D   5     128.870 141.164  36.5300  0.00  0.00     0.000 S
ATOM     88   O  Z9L D   5     129.453 141.401  35.2330  0.00  0.00     0.000 OA
ATOM     89   O  Z9L D   5     128.789 142.123  37.5780  0.00  0.00     0.000 OA
ENDBRANCH 78 85
BRANCH 79 90
ATOM     90   O  Z9L D   5     131.761 139.381  35.4630  0.00  0.00     0.000 O
ATOM     91   S  Z9L D   5     131.181 137.960  35.0390  0.00  0.00     0.000 S
ATOM     92   O  Z9L D   5     129.814 137.581  35.2850  0.00  0.00     0.000 OA
ATOM     93   O  Z9L D   5     132.239 136.982  35.0760  0.00  0.00     0.000 O
ATOM     94   O  Z9L D   5     131.224 138.579  33.7540  0.00  0.00     0.000 OA
ENDBRANCH 79 90
BRANCH 81 95
ATOM     95   C  Z9L D   5     134.169 139.698  39.9530  0.00  0.00     0.000 C
ATOM     96   S  Z9L D   5     135.328 141.172  40.6240  0.00  0.00     0.000 S
ATOM     97   O  Z9L D   5     134.277 141.007  39.4630  0.00  0.00     0.000 O
ATOM     98   O  Z9L D   5     136.503 140.438  40.2270  0.00  0.00     0.000 OA
ATOM     99   O  Z9L D   5     134.809 141.081  41.9470  0.00  0.00     0.000 OA
ATOM    100   O  Z9L D   5     135.410 142.499  40.0650  0.00  0.00     0.000 O
ENDBRANCH 81 95
ENDBRANCH 76 80
ENDBRANCH 60 76
ENDBRANCH 59 63
ENDBRANCH 37 59
ENDBRANCH 36 40
ENDBRANCH 23 36
ENDBRANCH 22 26
ENDBRANCH 1 22
TORSDOF 19
ENDMDL
MODEL 19
REMARK VINA RESULT:       0.0     85.560     90.690
ROOT
ATOM      1  C1  Z9H D   1      55.253  17.972 136.4470  0.00  0.00     0.000 C
ATOM      2  C2  Z9H D   1      55.070  17.326 135.0530  0.00  0.00     0.000 C
ATOM      3  C3  Z9H D   1      54.356  18.519 134.3480  0.00  0.00     0.000 C
ATOM      4  C4  Z9H D   1      53.116  19.125 135.1270  0.00  0.00     0.000 C
ATOM      5  C5  Z9H D   1      53.155  19.485 136.6660  0.00  0.00     0.000 C
ATOM      6  O5  Z9H D   1      54.109  18.514 137.1640  0.00  0.00     0.000 O
ATOM      7   O  Z9H D   1      53.988  18.194 133.0060  0.00  0.00     0.000 O
ATOM      8   C  Z9H D   1      54.890  18.661 131.9890  0.00  0.00     0.000 C
ATOM      9   O  Z9H D   1      52.761  20.320 134.4230  0.00  0.00     0.000 O
ATOM     10   C  Z9H D   1      51.661  20.197 133.5150  0.00  0.00     0.000 C
ENDROOT
BRANCH 2 11
ATOM     11   O  Z9H D   1      56.382  17.337 134.5520  0.00  0.00     0.000 O
ATOM     12   O  Z9H D   1      57.409  15.787 134.2370  0.00  0.00     0.000 OA
ATOM     13   S  Z9H D   1      56.062  15.788 134.7000  0.00  0.00     0.000 S
ATOM     14   O  Z9H D   1      55.103  15.428 133.6950  0.00  0.00     0.000 OA
ATOM     15   O  Z9H D   1      56.005  15.384 136.0860  0.00  0.00     0.000 O
ENDBRANCH 2 11
BRANCH 5 16
ATOM     16   C  Z9H D   1      51.657  19.682 137.3860  0.00  0.00     0.000 C
ATOM     17   S  Z9H D   1      50.623  20.767 138.7250  0.00  0.00     0.000 S
ATOM     18   O  Z9H D   1      51.720  21.075 137.5810  0.00  0.00     0.000 O
ATOM     19   O  Z9H D   1      51.116  20.026 139.8500  0.00  0.00     0.000 O
ATOM     20   O  Z9H D   1      49.351  20.533 138.1340  0.00  0.00     0.000 OA
ATOM     21   O  Z9H D   1      50.765  22.182 138.9100  0.00  0.00     0.000 OA
ENDBRANCH 5 16
BRANCH 1 22
ATOM     22  O4  GU1 D   2      56.162  19.131 136.4780  0.00  0.00     0.000 O
BRANCH 22 26
ATOM     23  C1  GU1 D   2      58.994  21.135 138.6990  0.00  0.00     0.000 C
ATOM     24  C2  GU1 D   2      59.019  19.622 138.8480  0.00  0.00     0.000 C
ATOM     25  C3  GU1 D   2      58.230  19.000 137.7320  0.00  0.00     0.000 C
ATOM     26  C4  GU1 D   2      56.832  19.596 137.6560  0.00  0.00     0.000 C
ATOM     27  C5  GU1 D   2      56.916  21.125 137.6150  0.00  0.00     0.000 C
ATOM     28  O5  GU1 D   2      57.655  21.614 138.7310  0.00  0.00     0.000 O
ATOM     29   O  GU1 D   2      60.343  19.103 138.7990  0.00  0.00     0.000 O
ATOM     30   C  GU1 D   2      60.920  18.879 140.0780  0.00  0.00     0.000 C
ATOM     31   C  GU1 D   2      58.989  16.774 137.2180  0.00  0.00     0.000 C
ATOM     32   O  GU1 D   2      58.115  17.596 137.9880  0.00  0.00     0.000 O
BRANCH 27 33
ATOM     33   C  GU1 D   2      55.541  21.749 137.6610  0.00  0.00     0.000 C
ATOM     34   O  GU1 D   2      55.123  22.298 136.6620  0.00  0.00     0.000 OA
ATOM     35   O  GU1 D   2      54.869  21.697 138.6790  0.00  0.00     0.000 O
ENDBRANCH 27 33
BRANCH 23 36
ATOM     36  O4  GU6 D   3      59.467  21.973 139.7730  0.00  0.00     0.000 O
BRANCH 36 40
ATOM     37  C1  GU6 D   3      59.709  24.390 143.0580  0.00  0.00     0.000 C
ATOM     38  C2  GU6 D   3      60.863  24.561 142.0780  0.00  0.00     0.000 C
ATOM     39  C3  GU6 D   3      60.546  23.841 140.7940  0.00  0.00     0.000 C
ATOM     40  C4  GU6 D   3      59.371  22.962 140.7780  0.00  0.00     0.000 C
ATOM     41  C5  GU6 D   3      59.257  22.217 142.1490  0.00  0.00     0.000 C
ATOM     42  O5  GU6 D   3      59.534  23.005 143.3120  0.00  0.00     0.000 O
BRANCH 38 43
ATOM     43   O  GU6 D   3      61.096  25.932 141.8170  0.00  0.00     0.000 O
ATOM     44   S  GU6 D   3      62.524  26.389 142.0850  0.00  0.00     0.000 S
ATOM     45   O  GU6 D   3      62.671  26.646 143.5280  0.00  0.00     0.000 OA
ATOM     46   O  GU6 D   3      63.447  25.312 141.6820  0.00  0.00     0.000 O
ATOM     47   O  GU6 D   3      62.787  27.592 141.3010  0.00  0.00     0.000 OA
ENDBRANCH 38 43
BRANCH 39 48
ATOM     48   O  GU6 D   3      61.210  24.175 139.5900  0.00  0.00     0.000 O
ATOM     49   S  GU6 D   3      60.762  25.078 138.4410  0.00  0.00     0.000 S
ATOM     50   O  GU6 D   3      60.422  26.412 138.9500  0.00  0.00     0.000 OA
ATOM     51   O  GU6 D   3      61.948  25.127 137.5750  0.00  0.00     0.000 OA
ATOM     52   O  GU6 D   3      59.583  24.471 137.7840  0.00  0.00     0.000 O
ENDBRANCH 39 48
BRANCH 41 53
ATOM     53   C  GU6 D   3      58.881  20.786 142.4210  0.00  0.00     0.000 C
ATOM     54   O  GU6 D   3      57.555  20.847 141.9650  0.00  0.00     0.000 O
ATOM     55   S  GU6 D   3      56.623  19.637 142.1160  0.00  0.00     0.000 S
ATOM     56   O  GU6 D   3      56.410  19.441 143.5690  0.00  0.00     0.000 O
ATOM     57   O  GU6 D   3      55.352  19.937 141.4400  0.00  0.00     0.000 OA
ATOM     58   O  GU6 D   3      57.314  18.473 141.5180  0.00  0.00     0.000 OA
ENDBRANCH 41 53
BRANCH 37 59
ATOM     59  O4  Z9K D   4      58.396  24.968 142.9010  0.00  0.00     0.000 O
BRANCH 59 63
ATOM     60  C1  Z9K D   4      55.619  27.746 143.0430  0.00  0.00     0.000 C
ATOM     61  C2  Z9K D   4      56.747  28.404 143.8860  0.00  0.00     0.000 C
ATOM     62  C3  Z9K D   4      57.930  27.363 143.6720  0.00  0.00     0.000 C
ATOM     63  C4  Z9K D   4      57.628  25.821 143.7990  0.00  0.00     0.000 C
ATOM     64  C5  Z9K D   4      56.183  25.390 143.5040  0.00  0.00     0.000 C
ATOM     65  O5  Z9K D   4      55.759  26.350 142.5010  0.00  0.00     0.000 O
ATOM     66   O  Z9K D   4      59.053  27.592 144.5420  0.00  0.00     0.000 O
ATOM     67   C  Z9K D   4      59.986  28.543 144.0560  0.00  0.00     0.000 C
BRANCH 61 68
ATOM     68   O  Z9K D   4      57.129  29.576 143.2190  0.00  0.00     0.000 O
ATOM     69   O  Z9K D   4      57.317  29.851 145.7560  0.00  0.00     0.000 OA
ATOM     70   S  Z9K D   4      56.525  30.160 144.6040  0.00  0.00     0.000 S
ATOM     71   O  Z9K D   4      55.096  30.130 144.5390  0.00  0.00     0.000 OA
ATOM     72   O  Z9K D   4      57.005  31.338 143.9570  0.00  0.00     0.000 OA
ENDBRANCH 61 68
BRANCH 64 73
ATOM     73   C  Z9K D   4      56.116  23.885 143.1670  0.00  0.00     0.000 C
ATOM     74   O  Z9K D   4      56.281  23.005 144.0610  0.00  0.00     0.000 O
ATOM     75   O  Z9K D   4      55.892  23.478 142.0010  0.00  0.00     0.000 OA
ENDBRANCH 64 73
BRANCH 60 76
ATOM     76  O4  Z9L D   5      54.226  27.603 143.3690  0.00  0.00     0.000 O
BRANCH 76 80
ATOM     77  C1  Z9L D   5      50.515  27.756 141.8950  0.00  0.00     0.000 C
ATOM     78  C2  Z9L D   5      50.776  26.242 142.3540  0.00  0.00     0.000 C
ATOM     79  C3  Z9L D   5      52.124  26.270 143.3750  0.00  0.00     0.000 C
ATOM     80  C4  Z9L D   5      53.111  27.313 142.5670  0.00  0.00     0.000 C
ATOM     81  C5  Z9L D   5      52.804  28.746 141.8940  0.00  0.00     0.000 C
ATOM     82  O5  Z9L D   5      51.531  28.623 141.2440  0.00  0.00     0.000 O
ATOM     83   C  Z9L D   5      49.627  29.853 142.7350  0.00  0.00     0.000 C
ATOM     84   C  Z9L D   5      49.627  29.853 142.7350  0.00  0.00     0.000 C
BRANCH 78 85
ATOM     85   O  Z9L D   5      49.666  25.812 143.0760  0.00  0.00     0.000 O
ATOM     86   O  Z9L D   5      48.407  24.481 142.4820  0.00  0.00     0.000 OA
ATOM     87   S  Z9L D   5      49.616  24.835 141.8010  0.00  0.00     0.000 S
ATOM     88   O  Z9L D   5      50.466  23.677 141.9230  0.00  0.00     0.000 OA
ATOM     89   O  Z9L D   5      49.197  25.417 140.5730  0.00  0.00     0.000 OA
ENDBRANCH 78 85
BRANCH 79 90
ATOM     90   O  Z9L D   5      52.833  25.073 143.3110  0.00  0.00     0.000 O
ATOM     91   S  Z9L D   5      52.503  25.105 144.8690  0.00  0.00     0.000 S
ATOM     92   O  Z9L D   5      51.157  25.211 145.3690  0.00  0.00     0.000 OA
ATOM     93   O  Z9L D   5      53.607  25.701 145.5790  0.00  0.00     0.000 O
ATOM     94   O  Z9L D   5      52.794  23.715 144.7280  0.00  0.00     0.000 OA
ENDBRANCH 79 90
BRANCH 81 95
ATOM     95   C  Z9L D   5      54.057  29.490 141.0630  0.00  0.00     0.000 C
ATOM     96   S  Z9L D   5      54.876  29.775 139.2700  0.00  0.00     0.000 S
ATOM     97   O  Z9L D   5      54.151  28.581 139.9990  0.00  0.00     0.000 O
ATOM     98   O  Z9L D   5      56.176  29.902 139.8760  0.00  0.00     0.000 OA
ATOM     99   O  Z9L D   5      54.069  30.917 139.0000  0.00  0.00     0.000 OA
ATOM    100   O  Z9L D   5      54.958  28.793 138.2170  0.00  0.00     0.000 O
ENDBRANCH 81 95
ENDBRANCH 76 80
ENDBRANCH 60 76
ENDBRANCH 59 63
ENDBRANCH 37 59
ENDBRANCH 36 40
ENDBRANCH 23 36
ENDBRANCH 22 26
ENDBRANCH 1 22
TORSDOF 19
ENDMDL
MODEL 20
REMARK VINA RESULT:       0.0     14.484     21.662
ROOT
ATOM      1  C1  Z9H D   1      25.816  48.795  57.0340  0.00  0.00     0.000 C
ATOM      2  C2  Z9H D   1      26.091  49.648  58.2960  0.00  0.00     0.000 C
ATOM      3  C3  Z9H D   1      25.344  48.756  59.3340  0.00  0.00     0.000 C
ATOM      4  C4  Z9H D   1      23.864  48.349  58.9390  0.00  0.00     0.000 C
ATOM      5  C5  Z9H D   1      23.474  47.784  57.5150  0.00  0.00     0.000 C
ATOM      6  O5  Z9H D   1      24.455  48.436  56.6700  0.00  0.00     0.000 O
ATOM      7   O  Z9H D   1      25.368  49.336  60.6400  0.00  0.00     0.000 O
ATOM      8   C  Z9H D   1      26.374  48.817  61.5250  0.00  0.00     0.000 C
ATOM      9   O  Z9H D   1      23.458  47.374  59.9060  0.00  0.00     0.000 O
ATOM     10   C  Z9H D   1      22.645  47.866  60.9760  0.00  0.00     0.000 C
ENDROOT
BRANCH 2 11
ATOM     11   O  Z9H D   1      27.455  49.406  58.5200  0.00  0.00     0.000 O
ATOM     12   O  Z9H D   1      28.807  50.709  58.3350  0.00  0.00     0.000 OA
ATOM     13   S  Z9H D   1      27.415  50.952  58.1570  0.00  0.00     0.000 S
ATOM     14   O  Z9H D   1      26.804  51.656  59.2490  0.00  0.00     0.000 OA
ATOM     15   O  Z9H D   1      27.115  51.165  56.7600  0.00  0.00     0.000 O
ENDBRANCH 2 11
BRANCH 5 16
ATOM     16   C  Z9H D   1      21.840  47.838  57.1550  0.00  0.00     0.000 C
ATOM     17   S  Z9H D   1      20.337  46.855  56.2530  0.00  0.00     0.000 S
ATOM     18   O  Z9H D   1      21.591  46.454  57.1880  0.00  0.00     0.000 O
ATOM     19   O  Z9H D   1      20.688  47.326  54.9440  0.00  0.00     0.000 O
ATOM     20   O  Z9H D   1      19.305  47.435  57.0390  0.00  0.00     0.000 OA
ATOM     21   O  Z9H D   1      20.162  45.432  56.2820  0.00  0.00     0.000 OA
ENDBRANCH 5 16
BRANCH 1 22
ATOM     22  O4  GU1 D   2      26.452  47.465  57.0360  0.00  0.00     0.000 O
BRANCH 22 26
ATOM     23  C1  GU1 D   2      28.246  44.586  54.6990  0.00  0.00     0.000 C
ATOM     24  C2  GU1 D   2      28.523  46.019  54.2730  0.00  0.00     0.000 C
ATOM     25  C3  GU1 D   2      28.153  46.951  55.3900  0.00  0.00     0.000 C
ATOM     26  C4  GU1 D   2      26.725  46.703  55.8540  0.00  0.00     0.000 C
ATOM     27  C5  GU1 D   2      26.522  45.216  56.1580  0.00  0.00     0.000 C
ATOM     28  O5  GU1 D   2      26.871  44.424  55.0260  0.00  0.00     0.000 O
ATOM     29   O  GU1 D   2      29.895  46.226  53.9590  0.00  0.00     0.000 O
ATOM     30   C  GU1 D   2      30.187  46.136  52.5710  0.00  0.00     0.000 C
ATOM     31   C  GU1 D   2      29.422  48.995  55.3230  0.00  0.00     0.000 C
ATOM     32   O  GU1 D   2      28.251  48.295  54.9090  0.00  0.00     0.000 O
BRANCH 27 33
ATOM     33   C  GU1 D   2      25.083  44.920  56.5050  0.00  0.00     0.000 C
ATOM     34   O  GU1 D   2      24.813  44.631  57.6520  0.00  0.00     0.000 OA
ATOM     35   O  GU1 D   2      24.214  44.975  55.6480  0.00  0.00     0.000 O
ENDBRANCH 27 33
BRANCH 23 36
ATOM     36  O4  GU6 D   3      28.285  43.524  53.7250  0.00  0.00     0.000 O
BRANCH 36 40
ATOM     37  C1  GU6 D   3      27.280  40.691  50.9570  0.00  0.00     0.000 C
ATOM     38  C2  GU6 D   3      28.578  40.397  51.7000  0.00  0.00     0.000 C
ATOM     39  C3  GU6 D   3      28.715  41.339  52.8680  0.00  0.00     0.000 C
ATOM     40  C4  GU6 D   3      27.768  42.455  52.9580  0.00  0.00     0.000 C
ATOM     41  C5  GU6 D   3      27.479  43.013  51.5260  0.00  0.00     0.000 C
ATOM     42  O5  GU6 D   3      27.318  42.032  50.4950  0.00  0.00     0.000 O
BRANCH 38 43
ATOM     43   O  GU6 D   3      28.599  39.058  52.1550  0.00  0.00     0.000 O
ATOM     44   S  GU6 D   3      29.810  38.256  51.6950  0.00  0.00     0.000 S
ATOM     45   O  GU6 D   3      29.563  37.780  50.3230  0.00  0.00     0.000 OA
ATOM     46   O  GU6 D   3      30.989  39.140  51.7020  0.00  0.00     0.000 O
ATOM     47   O  GU6 D   3      30.014  37.143  52.6170  0.00  0.00     0.000 OA
ENDBRANCH 38 43
BRANCH 39 48
ATOM     48   O  GU6 D   3      29.567  41.029  53.9550  0.00  0.00     0.000 O
ATOM     49   S  GU6 D   3      29.237  40.416  55.3150  0.00  0.00     0.000 S
ATOM     50   O  GU6 D   3      28.538  39.138  55.1380  0.00  0.00     0.000 OA
ATOM     51   O  GU6 D   3      30.562  40.217  55.9200  0.00  0.00     0.000 OA
ATOM     52   O  GU6 D   3      28.385  41.359  56.0730  0.00  0.00     0.000 O
ENDBRANCH 39 48
BRANCH 41 53
ATOM     53   C  GU6 D   3      27.331  44.442  51.0780  0.00  0.00     0.000 C
ATOM     54   O  GU6 D   3      26.161  44.746  51.7930  0.00  0.00     0.000 O
ATOM     55   S  GU6 D   3      25.469  46.103  51.6120  0.00  0.00     0.000 S
ATOM     56   O  GU6 D   3      24.964  46.144  50.2200  0.00  0.00     0.000 O
ATOM     57   O  GU6 D   3      24.358  46.194  52.5710  0.00  0.00     0.000 OA
ATOM     58   O  GU6 D   3      26.490  47.151  51.8380  0.00  0.00     0.000 OA
ENDBRANCH 41 53
BRANCH 37 59
ATOM     59  O4  Z9K D   4      25.955  40.454  51.4780  0.00  0.00     0.000 O
BRANCH 59 63
ATOM     60  C1  Z9K D   4      22.746  38.382  52.4040  0.00  0.00     0.000 C
ATOM     61  C2  Z9K D   4      23.495  37.381  51.4820  0.00  0.00     0.000 C
ATOM     62  C3  Z9K D   4      24.871  38.146  51.2600  0.00  0.00     0.000 C
ATOM     63  C4  Z9K D   4      24.848  39.686  50.9230  0.00  0.00     0.000 C
ATOM     64  C5  Z9K D   4      23.623  40.467  51.4230  0.00  0.00     0.000 C
ATOM     65  O5  Z9K D   4      23.274  39.770  52.6470  0.00  0.00     0.000 O
ATOM     66   O  Z9K D   4      25.692  37.556  50.2360  0.00  0.00     0.000 O
ATOM     67   C  Z9K D   4      26.515  36.492  50.6860  0.00  0.00     0.000 C
BRANCH 61 68
ATOM     68   O  Z9K D   4      23.793  36.252  52.2570  0.00  0.00     0.000 O
ATOM     69   O  Z9K D   4      23.318  35.607  49.8270  0.00  0.00     0.000 OA
ATOM     70   S  Z9K D   4      22.778  35.641  51.1530  0.00  0.00     0.000 S
ATOM     71   O  Z9K D   4      21.438  36.003  51.5010  0.00  0.00     0.000 OA
ATOM     72   O  Z9K D   4      23.164  34.482  51.8900  0.00  0.00     0.000 OA
ENDBRANCH 61 68
BRANCH 64 73
ATOM     73   C  Z9K D   4      23.927  41.979  51.4910  0.00  0.00     0.000 C
ATOM     74   O  Z9K D   4      24.078  42.568  52.6000  0.00  0.00     0.000 O
ATOM     75   O  Z9K D   4      24.042  42.678  50.4540  0.00  0.00     0.000 OA
ENDBRANCH 64 73
BRANCH 60 76
ATOM     76  O4  Z9L D   5      21.369  38.792  52.3480  0.00  0.00     0.000 O
BRANCH 76 80
ATOM     77  C1  Z9L D   5      18.167  39.730  54.5480  0.00  0.00     0.000 C
ATOM     78  C2  Z9L D   5      18.595  41.055  53.7520  0.00  0.00     0.000 C
ATOM     79  C3  Z9L D   5      19.625  40.561  52.5040  0.00  0.00     0.000 C
ATOM     80  C4  Z9L D   5      20.558  39.451  53.2860  0.00  0.00     0.000 C
ATOM     81  C5  Z9L D   5      20.154  38.247  54.2800  0.00  0.00     0.000 C
ATOM     82  O5  Z9L D   5      19.125  38.760  55.1380  0.00  0.00     0.000 O
ATOM     83   C  Z9L D   5      16.716  37.794  54.3420  0.00  0.00     0.000 C
ATOM     84   C  Z9L D   5      16.716  37.794  54.3420  0.00  0.00     0.000 C
BRANCH 78 85
ATOM     85   O  Z9L D   5      17.447  41.616  53.2000  0.00  0.00     0.000 O
ATOM     86   O  Z9L D   5      16.647  43.277  53.7610  0.00  0.00     0.000 OA
ATOM     87   S  Z9L D   5      17.894  42.759  54.2380  0.00  0.00     0.000 S
ATOM     88   O  Z9L D   5      18.895  43.657  53.7180  0.00  0.00     0.000 OA
ATOM     89   O  Z9L D   5      17.681  42.481  55.6170  0.00  0.00     0.000 OA
ENDBRANCH 78 85
BRANCH 79 90
ATOM     90   O  Z9L D   5      20.544  41.555  52.1820  0.00  0.00     0.000 O
ATOM     91   S  Z9L D   5      19.849  41.363  50.7610  0.00  0.00     0.000 S
ATOM     92   O  Z9L D   5      18.428  41.497  50.5740  0.00  0.00     0.000 OA
ATOM     93   O  Z9L D   5      20.615  40.425  49.9780  0.00  0.00     0.000 O
ATOM     94   O  Z9L D   5      20.426  42.652  50.5580  0.00  0.00     0.000 OA
ENDBRANCH 79 90
BRANCH 81 95
ATOM     95   C  Z9L D   5      21.405  37.367  54.9690  0.00  0.00     0.000 C
ATOM     96   S  Z9L D   5      22.559  37.170  56.5810  0.00  0.00     0.000 S
ATOM     97   O  Z9L D   5      21.922  38.376  55.7940  0.00  0.00     0.000 O
ATOM     98   O  Z9L D   5      23.628  36.659  55.7610  0.00  0.00     0.000 OA
ATOM     99   O  Z9L D   5      21.638  36.296  57.2260  0.00  0.00     0.000 OA
ATOM    100   O  Z9L D   5      23.076  38.251  57.3830  0.00  0.00     0.000 O
ENDBRANCH 81 95
ENDBRANCH 76 80
ENDBRANCH 60 76
ENDBRANCH 59 63
ENDBRANCH 37 59
ENDBRANCH 36 40
ENDBRANCH 23 36
ENDBRANCH 22 26
ENDBRANCH 1 22
TORSDOF 19
ENDMDL
MODEL 21
REMARK VINA RESULT:       0.0    125.664    129.790
ROOT
ATOM      1  C1  Z9H D   1     104.654 138.983 131.9590  0.00  0.00     0.000 C
ATOM      2  C2  Z9H D   1     105.888 139.502 131.1840  0.00  0.00     0.000 C
ATOM      3  C3  Z9H D   1     105.762 141.012 131.5520  0.00  0.00     0.000 C
ATOM      4  C4  Z9H D   1     104.331 141.652 131.3170  0.00  0.00     0.000 C
ATOM      5  C5  Z9H D   1     102.990 140.969 131.8010  0.00  0.00     0.000 C
ATOM      6  O5  Z9H D   1     103.341 139.564 131.7290  0.00  0.00     0.000 O
ATOM      7   O  Z9H D   1     106.769 141.796 130.9080  0.00  0.00     0.000 O
ATOM      8   C  Z9H D   1     107.914 142.112 131.7170  0.00  0.00     0.000 C
ATOM      9   O  Z9H D   1     104.384 142.951 131.9150  0.00  0.00     0.000 O
ATOM     10   C  Z9H D   1     104.612 144.037 131.0110  0.00  0.00     0.000 C
ENDROOT
BRANCH 2 11
ATOM     11   O  Z9H D   1     106.949 139.022 131.9680  0.00  0.00     0.000 O
ATOM     12   O  Z9H D   1     108.166 137.695 131.4050  0.00  0.00     0.000 OA
ATOM     13   S  Z9H D   1     107.115 138.225 130.6030  0.00  0.00     0.000 S
ATOM     14   O  Z9H D   1     107.562 139.145 129.5960  0.00  0.00     0.000 OA
ATOM     15   O  Z9H D   1     106.070 137.243 130.4280  0.00  0.00     0.000 O
ENDBRANCH 2 11
BRANCH 5 16
ATOM     16   C  Z9H D   1     101.597 141.557 131.0830  0.00  0.00     0.000 C
ATOM     17   S  Z9H D   1      99.696 142.113 131.4260  0.00  0.00     0.000 S
ATOM     18   O  Z9H D   1     101.113 142.295 132.1780  0.00  0.00     0.000 O
ATOM     19   O  Z9H D   1      99.198 140.768 131.3990  0.00  0.00     0.000 O
ATOM     20   O  Z9H D   1      99.612 142.998 130.3170  0.00  0.00     0.000 OA
ATOM     21   O  Z9H D   1      99.254 142.825 132.5890  0.00  0.00     0.000 OA
ENDBRANCH 5 16
BRANCH 1 22
ATOM     22  O4  GU1 D   2     104.747 139.105 133.4250  0.00  0.00     0.000 O
BRANCH 22 26
ATOM     23  C1  GU1 D   2     103.757 137.365 137.0250  0.00  0.00     0.000 C
ATOM     24  C2  GU1 D   2     104.092 136.384 135.9120  0.00  0.00     0.000 C
ATOM     25  C3  GU1 D   2     104.792 137.113 134.8010  0.00  0.00     0.000 C
ATOM     26  C4  GU1 D   2     103.983 138.319 134.3470  0.00  0.00     0.000 C
ATOM     27  C5  GU1 D   2     103.609 139.185 135.5550  0.00  0.00     0.000 C
ATOM     28  O5  GU1 D   2     102.923 138.408 136.5320  0.00  0.00     0.000 O
ATOM     29   O  GU1 D   2     104.943 135.338 136.3630  0.00  0.00     0.000 O
ATOM     30   C  GU1 D   2     104.253 134.147 136.7150  0.00  0.00     0.000 C
ATOM     31   C  GU1 D   2     106.243 135.663 133.5420  0.00  0.00     0.000 C
ATOM     32   O  GU1 D   2     104.938 136.217 133.6950  0.00  0.00     0.000 O
BRANCH 27 33
ATOM     33   C  GU1 D   2     102.705 140.325 135.1510  0.00  0.00     0.000 C
ATOM     34   O  GU1 D   2     103.147 141.454 135.1890  0.00  0.00     0.000 OA
ATOM     35   O  GU1 D   2     101.558 140.109 134.7920  0.00  0.00     0.000 O
ENDBRANCH 27 33
BRANCH 23 36
ATOM     36  O4  GU6 D   3     102.870 136.970 138.0910  0.00  0.00     0.000 O
BRANCH 36 40
ATOM     37  C1  GU6 D   3      99.614 136.396 140.4910  0.00  0.00     0.000 C
ATOM     38  C2  GU6 D   3     100.942 136.386 141.2380  0.00  0.00     0.000 C
ATOM     39  C3  GU6 D   3     102.038 136.871 140.3250  0.00  0.00     0.000 C
ATOM     40  C4  GU6 D   3     101.716 137.040 138.9040  0.00  0.00     0.000 C
ATOM     41  C5  GU6 D   3     100.759 135.890 138.4450  0.00  0.00     0.000 C
ATOM     42  O5  GU6 D   3      99.721 135.537 139.3660  0.00  0.00     0.000 O
BRANCH 38 43
ATOM     43   O  GU6 D   3     100.872 137.207 142.3880  0.00  0.00     0.000 O
ATOM     44   S  GU6 D   3     101.242 136.503 143.6870  0.00  0.00     0.000 S
ATOM     45   O  GU6 D   3     100.069 135.750 144.1620  0.00  0.00     0.000 OA
ATOM     46   O  GU6 D   3     102.348 135.567 143.4160  0.00  0.00     0.000 O
ATOM     47   O  GU6 D   3     101.662 137.505 144.6620  0.00  0.00     0.000 OA
ENDBRANCH 38 43
BRANCH 39 48
ATOM     48   O  GU6 D   3     103.254 137.367 140.8500  0.00  0.00     0.000 O
ATOM     49   S  GU6 D   3     103.701 138.808 141.0970  0.00  0.00     0.000 S
ATOM     50   O  GU6 D   3     102.728 139.500 141.9500  0.00  0.00     0.000 OA
ATOM     51   O  GU6 D   3     104.988 138.643 141.7860  0.00  0.00     0.000 OA
ATOM     52   O  GU6 D   3     103.820 139.503 139.7960  0.00  0.00     0.000 O
ENDBRANCH 39 48
BRANCH 41 53
ATOM     53   C  GU6 D   3     100.765 135.110 137.1580  0.00  0.00     0.000 C
ATOM     54   O  GU6 D   3     100.472 136.173 136.2890  0.00  0.00     0.000 O
ATOM     55   S  GU6 D   3     100.241 135.914 134.7940  0.00  0.00     0.000 S
ATOM     56   O  GU6 D   3      98.998 135.115 134.6860  0.00  0.00     0.000 O
ATOM     57   O  GU6 D   3     100.088 137.208 134.1130  0.00  0.00     0.000 OA
ATOM     58   O  GU6 D   3     101.408 135.153 134.2940  0.00  0.00     0.000 OA
ENDBRANCH 41 53
BRANCH 37 59
ATOM     59  O4  Z9K D   4      98.914 137.582 140.0600  0.00  0.00     0.000 O
BRANCH 59 63
ATOM     60  C1  Z9K D   4      96.592 140.733 140.4150  0.00  0.00     0.000 C
ATOM     61  C2  Z9K D   4      96.263 139.968 141.7270  0.00  0.00     0.000 C
ATOM     62  C3  Z9K D   4      97.335 138.795 141.6680  0.00  0.00     0.000 C
ATOM     63  C4  Z9K D   4      97.546 138.015 140.3140  0.00  0.00     0.000 C
ATOM     64  C5  Z9K D   4      97.201 138.786 139.0310  0.00  0.00     0.000 C
ATOM     65  O5  Z9K D   4      97.522 140.157 139.3830  0.00  0.00     0.000 O
ATOM     66   O  Z9K D   4      97.112 137.770 142.6530  0.00  0.00     0.000 O
ATOM     67   C  Z9K D   4      97.684 138.043 143.9220  0.00  0.00     0.000 C
BRANCH 61 68
ATOM     68   O  Z9K D   4      96.644 140.795 142.7920  0.00  0.00     0.000 O
ATOM     69   O  Z9K D   4      94.588 139.397 143.3960  0.00  0.00     0.000 OA
ATOM     70   S  Z9K D   4      95.041 140.697 143.0010  0.00  0.00     0.000 S
ATOM     71   O  Z9K D   4      94.394 141.557 142.0590  0.00  0.00     0.000 OA
ATOM     72   O  Z9K D   4      95.453 141.458 144.1360  0.00  0.00     0.000 OA
ENDBRANCH 61 68
BRANCH 64 73
ATOM     73   C  Z9K D   4      97.896 138.152 137.8070  0.00  0.00     0.000 C
ATOM     74   O  Z9K D   4      98.879 138.717 137.2450  0.00  0.00     0.000 O
ATOM     75   O  Z9K D   4      97.519 137.055 137.3270  0.00  0.00     0.000 OA
ENDBRANCH 64 73
BRANCH 60 76
ATOM     76  O4  Z9L D   5      95.680 141.286 139.4500  0.00  0.00     0.000 O
BRANCH 76 80
ATOM     77  C1  Z9L D   5      94.983 144.410 137.0570  0.00  0.00     0.000 C
ATOM     78  C2  Z9L D   5      95.216 143.136 136.1110  0.00  0.00     0.000 C
ATOM     79  C3  Z9L D   5      95.050 141.767 137.0910  0.00  0.00     0.000 C
ATOM     80  C4  Z9L D   5      95.866 142.244 138.4400  0.00  0.00     0.000 C
ATOM     81  C5  Z9L D   5      95.809 143.623 139.2750  0.00  0.00     0.000 C
ATOM     82  O5  Z9L D   5      95.743 144.679 138.3050  0.00  0.00     0.000 O
ATOM     83   C  Z9L D   5      93.204 145.629 138.1720  0.00  0.00     0.000 C
ATOM     84   C  Z9L D   5      93.204 145.629 138.1720  0.00  0.00     0.000 C
BRANCH 78 85
ATOM     85   O  Z9L D   5      94.216 143.129 135.1430  0.00  0.00     0.000 O
ATOM     86   O  Z9L D   5      94.489 143.462 133.2660  0.00  0.00     0.000 OA
ATOM     87   S  Z9L D   5      95.529 143.344 134.2430  0.00  0.00     0.000 S
ATOM     88   O  Z9L D   5      96.215 142.120 133.9130  0.00  0.00     0.000 OA
ATOM     89   O  Z9L D   5      96.134 144.630 134.3020  0.00  0.00     0.000 OA
ENDBRANCH 78 85
BRANCH 79 90
ATOM     90   O  Z9L D   5      95.829 140.712 136.6230  0.00  0.00     0.000 O
ATOM     91   S  Z9L D   5      94.393 140.025 136.5780  0.00  0.00     0.000 S
ATOM     92   O  Z9L D   5      93.291 140.590 135.8450  0.00  0.00     0.000 OA
ATOM     93   O  Z9L D   5      94.174 139.297 137.8040  0.00  0.00     0.000 O
ATOM     94   O  Z9L D   5      95.089 139.152 135.6890  0.00  0.00     0.000 OA
ENDBRANCH 79 90
BRANCH 81 95
ATOM     95   C  Z9L D   5      96.871 143.786 140.5630  0.00  0.00     0.000 C
ATOM     96   S  Z9L D   5      98.637 144.508 141.1330  0.00  0.00     0.000 S
ATOM     97   O  Z9L D   5      98.063 143.841 139.8270  0.00  0.00     0.000 O
ATOM     98   O  Z9L D   5      98.756 143.462 142.1160  0.00  0.00     0.000 OA
ATOM     99   O  Z9L D   5      98.094 145.781 141.4680  0.00  0.00     0.000 OA
ATOM    100   O  Z9L D   5      99.838 144.522 140.3350  0.00  0.00     0.000 O
ENDBRANCH 81 95
ENDBRANCH 76 80
ENDBRANCH 60 76
ENDBRANCH 59 63
ENDBRANCH 37 59
ENDBRANCH 36 40
ENDBRANCH 23 36
ENDBRANCH 22 26
ENDBRANCH 1 22
TORSDOF 19
ENDMDL
MODEL 22
REMARK VINA RESULT:       0.0     56.208     62.739
ROOT
ATOM      1  C1  Z9H D   1      28.620  30.231 115.7670  0.00  0.00     0.000 C
ATOM      2  C2  Z9H D   1      29.629  31.043 116.6120  0.00  0.00     0.000 C
ATOM      3  C3  Z9H D   1      30.512  29.856 117.1060  0.00  0.00     0.000 C
ATOM      4  C4  Z9H D   1      29.720  28.639 117.7400  0.00  0.00     0.000 C
ATOM      5  C5  Z9H D   1      28.448  27.988 117.0630  0.00  0.00     0.000 C
ATOM      6  O5  Z9H D   1      27.885  29.124 116.3590  0.00  0.00     0.000 O
ATOM      7   O  Z9H D   1      31.539  30.298 117.9950  0.00  0.00     0.000 O
ATOM      8   C  Z9H D   1      32.834  30.481 117.3970  0.00  0.00     0.000 C
ATOM      9   O  Z9H D   1      30.685  27.596 117.9160  0.00  0.00     0.000 O
ATOM     10   C  Z9H D   1      31.216  27.463 119.2380  0.00  0.00     0.000 C
ENDROOT
BRANCH 2 11
ATOM     11   O  Z9H D   1      30.394  31.680 115.6220  0.00  0.00     0.000 O
ATOM     12   O  Z9H D   1      30.390  33.541 115.3140  0.00  0.00     0.000 OA
ATOM     13   S  Z9H D   1      29.656  32.887 116.3450  0.00  0.00     0.000 S
ATOM     14   O  Z9H D   1      30.227  33.046 117.6520  0.00  0.00     0.000 OA
ATOM     15   O  Z9H D   1      28.243  32.905 116.0470  0.00  0.00     0.000 O
ENDBRANCH 2 11
BRANCH 5 16
ATOM     16   C  Z9H D   1      27.512  27.042 118.0770  0.00  0.00     0.000 C
ATOM     17   S  Z9H D   1      26.441  25.344 118.1940  0.00  0.00     0.000 S
ATOM     18   O  Z9H D   1      27.845  25.788 117.5310  0.00  0.00     0.000 O
ATOM     19   O  Z9H D   1      25.278  25.924 117.5860  0.00  0.00     0.000 O
ATOM     20   O  Z9H D   1      26.590  25.188 119.5990  0.00  0.00     0.000 OA
ATOM     21   O  Z9H D   1      26.810  24.105 117.5740  0.00  0.00     0.000 OA
ENDBRANCH 5 16
BRANCH 1 22
ATOM     22  O4  GU1 D   2      29.195  29.568 114.5830  0.00  0.00     0.000 O
BRANCH 22 26
ATOM     23  C1  GU1 D   2      28.506  28.431 110.6840  0.00  0.00     0.000 C
ATOM     24  C2  GU1 D   2      27.865  29.750 111.0890  0.00  0.00     0.000 C
ATOM     25  C3  GU1 D   2      28.489  30.235 112.3650  0.00  0.00     0.000 C
ATOM     26  C4  GU1 D   2      28.434  29.160 113.4400  0.00  0.00     0.000 C
ATOM     27  C5  GU1 D   2      29.007  27.846 112.8990  0.00  0.00     0.000 C
ATOM     28  O5  GU1 D   2      28.326  27.459 111.7080  0.00  0.00     0.000 O
ATOM     29   O  GU1 D   2      28.044  30.754 110.0970  0.00  0.00     0.000 O
ATOM     30   C  GU1 D   2      26.936  30.899 109.2190  0.00  0.00     0.000 C
ATOM     31   C  GU1 D   2      28.384  32.631 112.5710  0.00  0.00     0.000 C
ATOM     32   O  GU1 D   2      27.756  31.376 112.8220  0.00  0.00     0.000 O
BRANCH 27 33
ATOM     33   C  GU1 D   2      28.856  26.729 113.9030  0.00  0.00     0.000 C
ATOM     34   O  GU1 D   2      29.855  26.291 114.4350  0.00  0.00     0.000 OA
ATOM     35   O  GU1 D   2      27.752  26.281 114.1720  0.00  0.00     0.000 O
ENDBRANCH 27 33
BRANCH 23 36
ATOM     36  O4  GU6 D   3      27.919  27.637 109.6340  0.00  0.00     0.000 O
BRANCH 36 40
ATOM     37  C1  GU6 D   3      25.793  24.853 107.5320  0.00  0.00     0.000 C
ATOM     38  C2  GU6 D   3      27.015  25.384 106.7940  0.00  0.00     0.000 C
ATOM     39  C3  GU6 D   3      27.870  26.184 107.7420  0.00  0.00     0.000 C
ATOM     40  C4  GU6 D   3      27.313  26.496 109.0630  0.00  0.00     0.000 C
ATOM     41  C5  GU6 D   3      25.785  26.804 108.9270  0.00  0.00     0.000 C
ATOM     42  O5  GU6 D   3      25.054  25.955 108.0350  0.00  0.00     0.000 O
BRANCH 38 43
ATOM     43   O  GU6 D   3      27.768  24.319 106.2460  0.00  0.00     0.000 O
ATOM     44   S  GU6 D   3      28.013  24.427 104.7470  0.00  0.00     0.000 S
ATOM     45   O  GU6 D   3      26.817  23.935 104.0410  0.00  0.00     0.000 OA
ATOM     46   O  GU6 D   3      28.235  25.844 104.4070  0.00  0.00     0.000 O
ATOM     47   O  GU6 D   3      29.194  23.639 104.4060  0.00  0.00     0.000 OA
ENDBRANCH 38 43
BRANCH 39 48
ATOM     48   O  GU6 D   3      29.236  26.423 107.4630  0.00  0.00     0.000 O
ATOM     49   S  GU6 D   3      30.482  25.697 107.9690  0.00  0.00     0.000 S
ATOM     50   O  GU6 D   3      30.386  24.263 107.6760  0.00  0.00     0.000 OA
ATOM     51   O  GU6 D   3      31.567  26.325 107.2020  0.00  0.00     0.000 OA
ATOM     52   O  GU6 D   3      30.600  25.909 109.4290  0.00  0.00     0.000 O
ENDBRANCH 39 48
BRANCH 41 53
ATOM     53   C  GU6 D   3      24.967  27.863 109.6160  0.00  0.00     0.000 C
ATOM     54   O  GU6 D   3      25.095  27.379 110.9280  0.00  0.00     0.000 O
ATOM     55   S  GU6 D   3      24.333  28.046 112.0810  0.00  0.00     0.000 S
ATOM     56   O  GU6 D   3      22.892  27.808 111.8340  0.00  0.00     0.000 O
ATOM     57   O  GU6 D   3      24.754  27.422 113.3430  0.00  0.00     0.000 OA
ATOM     58   O  GU6 D   3      24.648  29.491 112.0380  0.00  0.00     0.000 OA
ENDBRANCH 41 53
BRANCH 37 59
ATOM     59  O4  Z9K D   4      25.822  23.847 108.5670  0.00  0.00     0.000 O
BRANCH 59 63
ATOM     60  C1  Z9K D   4      25.976  20.237 110.1130  0.00  0.00     0.000 C
ATOM     61  C2  Z9K D   4      25.705  19.913 108.6180  0.00  0.00     0.000 C
ATOM     62  C3  Z9K D   4      25.828  21.359 107.9690  0.00  0.00     0.000 C
ATOM     63  C4  Z9K D   4      25.113  22.578 108.6680  0.00  0.00     0.000 C
ATOM     64  C5  Z9K D   4      24.887  22.448 110.1820  0.00  0.00     0.000 C
ATOM     65  O5  Z9K D   4      26.025  21.655 110.6120  0.00  0.00     0.000 O
ATOM     66   O  Z9K D   4      25.386  21.408 106.6000  0.00  0.00     0.000 O
ATOM     67   C  Z9K D   4      26.376  21.049 105.6510  0.00  0.00     0.000 C
BRANCH 61 68
ATOM     68   O  Z9K D   4      26.804  19.178 108.1510  0.00  0.00     0.000 O
ATOM     69   O  Z9K D   4      24.638  18.430 107.0120  0.00  0.00     0.000 OA
ATOM     70   S  Z9K D   4      25.600  18.102 108.0200  0.00  0.00     0.000 S
ATOM     71   O  Z9K D   4      25.306  17.571 109.3150  0.00  0.00     0.000 OA
ATOM     72   O  Z9K D   4      26.706  17.396 107.4570  0.00  0.00     0.000 OA
ENDBRANCH 61 68
BRANCH 64 73
ATOM     73   C  Z9K D   4      24.663  23.834 110.8240  0.00  0.00     0.000 C
ATOM     74   O  Z9K D   4      23.591  24.478 110.6360  0.00  0.00     0.000 O
ATOM     75   O  Z9K D   4      25.529  24.369 111.5600  0.00  0.00     0.000 OA
ENDBRANCH 64 73
BRANCH 60 76
ATOM     76  O4  Z9L D   5      25.296  19.731 111.2750  0.00  0.00     0.000 O
BRANCH 76 80
ATOM     77  C1  Z9L D   5      25.802  18.390 115.0050  0.00  0.00     0.000 C
ATOM     78  C2  Z9L D   5      24.961  19.751 115.1060  0.00  0.00     0.000 C
ATOM     79  C3  Z9L D   5      24.359  20.066 113.5570  0.00  0.00     0.000 C
ATOM     80  C4  Z9L D   5      25.670  19.700 112.6280  0.00  0.00     0.000 C
ATOM     81  C5  Z9L D   5      26.670  18.436 112.6680  0.00  0.00     0.000 C
ATOM     82  O5  Z9L D   5      26.920  18.162 114.0550  0.00  0.00     0.000 O
ATOM     83   C  Z9L D   5      25.487  15.990 114.8230  0.00  0.00     0.000 C
ATOM     84   C  Z9L D   5      25.487  15.990 114.8230  0.00  0.00     0.000 C
BRANCH 78 85
ATOM     85   O  Z9L D   5      23.895  19.537 115.9750  0.00  0.00     0.000 O
ATOM     86   O  Z9L D   5      23.712  20.332 117.7200  0.00  0.00     0.000 OA
ATOM     87   S  Z9L D   5      24.740  20.646 116.7740  0.00  0.00     0.000 S
ATOM     88   O  Z9L D   5      24.465  21.999 116.3580  0.00  0.00     0.000 OA
ATOM     89   O  Z9L D   5      25.950  20.206 117.3780  0.00  0.00     0.000 OA
ENDBRANCH 78 85
BRANCH 79 90
ATOM     90   O  Z9L D   5      24.206  21.433 113.3400  0.00  0.00     0.000 O
ATOM     91   S  Z9L D   5      22.708  20.954 113.0930  0.00  0.00     0.000 S
ATOM     92   O  Z9L D   5      21.963  20.214 114.0770  0.00  0.00     0.000 OA
ATOM     93   O  Z9L D   5      22.506  20.725 111.6830  0.00  0.00     0.000 O
ATOM     94   O  Z9L D   5      22.466  22.340 113.3340  0.00  0.00     0.000 OA
ENDBRANCH 79 90
BRANCH 81 95
ATOM     95   C  Z9L D   5      27.971  18.451 111.6090  0.00  0.00     0.000 C
ATOM     96   S  Z9L D   5      29.904  18.891 111.4140  0.00  0.00     0.000 S
ATOM     97   O  Z9L D   5      28.681  19.513 112.1880  0.00  0.00     0.000 O
ATOM     98   O  Z9L D   5      29.703  19.185 110.0180  0.00  0.00     0.000 OA
ATOM     99   O  Z9L D   5      30.319  17.600 111.8470  0.00  0.00     0.000 OA
ATOM    100   O  Z9L D   5      30.578  20.011 112.0230  0.00  0.00     0.000 O
ENDBRANCH 81 95
ENDBRANCH 76 80
ENDBRANCH 60 76
ENDBRANCH 59 63
ENDBRANCH 37 59
ENDBRANCH 36 40
ENDBRANCH 23 36
ENDBRANCH 22 26
ENDBRANCH 1 22
TORSDOF 19
ENDMDL
MODEL 23
REMARK VINA RESULT:       0.0     83.397     90.571
ROOT
ATOM      1  C1  Z9H D   1      90.984  27.110   5.8650  0.00  0.00     0.000 C
ATOM      2  C2  Z9H D   1      90.029  27.933   4.9690  0.00  0.00     0.000 C
ATOM      3  C3  Z9H D   1      90.242  27.148   3.6380  0.00  0.00     0.000 C
ATOM      4  C4  Z9H D   1      91.753  26.922   3.2170  0.00  0.00     0.000 C
ATOM      5  C5  Z9H D   1      92.860  26.399   4.2170  0.00  0.00     0.000 C
ATOM      6  O5  Z9H D   1      92.374  26.918   5.4800  0.00  0.00     0.000 O
ATOM      7   O  Z9H D   1      89.507  27.730   2.5600  0.00  0.00     0.000 O
ATOM      8   C  Z9H D   1      88.252  27.099   2.2580  0.00  0.00     0.000 C
ATOM      9   O  Z9H D   1      91.717  26.013   2.1120  0.00  0.00     0.000 O
ATOM     10   C  Z9H D   1      91.829  26.610   0.8170  0.00  0.00     0.000 C
ENDROOT
BRANCH 2 11
ATOM     11   O  Z9H D   1      88.768  27.526   5.4350  0.00  0.00     0.000 O
ATOM     12   O  Z9H D   1      87.565  28.652   6.3520  0.00  0.00     0.000 OA
ATOM     13   S  Z9H D   1      88.825  29.064   5.8320  0.00  0.00     0.000 S
ATOM     14   O  Z9H D   1      88.730  29.843   4.6310  0.00  0.00     0.000 OA
ATOM     15   O  Z9H D   1      89.760  29.303   6.9070  0.00  0.00     0.000 O
ENDBRANCH 2 11
BRANCH 5 16
ATOM     16   C  Z9H D   1      94.438  26.651   3.7210  0.00  0.00     0.000 C
ATOM     17   S  Z9H D   1      96.286  25.861   3.7030  0.00  0.00     0.000 S
ATOM     18   O  Z9H D   1      94.785  25.306   3.4940  0.00  0.00     0.000 O
ATOM     19   O  Z9H D   1      96.588  26.294   5.0380  0.00  0.00     0.000 O
ATOM     20   O  Z9H D   1      96.719  26.556   2.5420  0.00  0.00     0.000 OA
ATOM     21   O  Z9H D   1      96.575  24.469   3.5140  0.00  0.00     0.000 OA
ENDBRANCH 5 16
BRANCH 1 22
ATOM     22  O4  GU1 D   2      90.573  25.712   6.0890  0.00  0.00     0.000 O
BRANCH 22 26
ATOM     23  C1  GU1 D   2      90.492  22.617   8.8060  0.00  0.00     0.000 C
ATOM     24  C2  GU1 D   2      90.318  24.003   9.4090  0.00  0.00     0.000 C
ATOM     25  C3  GU1 D   2      89.984  24.981   8.3210  0.00  0.00     0.000 C
ATOM     26  C4  GU1 D   2      91.007  24.914   7.1970  0.00  0.00     0.000 C
ATOM     27  C5  GU1 D   2      91.183  23.465   6.7330  0.00  0.00     0.000 C
ATOM     28  O5  GU1 D   2      91.530  22.628   7.8330  0.00  0.00     0.000 O
ATOM     29   O  GU1 D   2      89.272  24.036  10.3730  0.00  0.00     0.000 O
ATOM     30   C  GU1 D   2      89.722  23.901  11.7140  0.00  0.00     0.000 C
ATOM     31   C  GU1 D   2      88.713  26.852   9.1440  0.00  0.00     0.000 C
ATOM     32   O  GU1 D   2      90.000  26.299   8.8770  0.00  0.00     0.000 O
BRANCH 27 33
ATOM     33   C  GU1 D   2      92.280  23.351   5.7010  0.00  0.00     0.000 C
ATOM     34   O  GU1 D   2      93.428  23.519   6.0570  0.00  0.00     0.000 OA
ATOM     35   O  GU1 D   2      92.014  23.091   4.5380  0.00  0.00     0.000 O
ENDBRANCH 27 33
BRANCH 23 36
ATOM     36  O4  GU6 D   3      91.054  21.552   9.5980  0.00  0.00     0.000 O
BRANCH 36 40
ATOM     37  C1  GU6 D   3      93.585  18.836  11.3040  0.00  0.00     0.000 C
ATOM     38  C2  GU6 D   3      92.128  18.391  11.2760  0.00  0.00     0.000 C
ATOM     39  C3  GU6 D   3      91.333  19.321  10.3970  0.00  0.00     0.000 C
ATOM     40  C4  GU6 D   3      91.991  20.547   9.9330  0.00  0.00     0.000 C
ATOM     41  C5  GU6 D   3      92.894  21.121  11.0750  0.00  0.00     0.000 C
ATOM     42  O5  GU6 D   3      93.645  20.156  11.8200  0.00  0.00     0.000 O
BRANCH 38 43
ATOM     43   O  GU6 D   3      92.022  17.064  10.7970  0.00  0.00     0.000 O
ATOM     44   S  GU6 D   3      91.292  16.112  11.7350  0.00  0.00     0.000 S
ATOM     45   O  GU6 D   3      92.238  15.656  12.7680  0.00  0.00     0.000 OA
ATOM     46   O  GU6 D   3      90.182  16.841  12.3750  0.00  0.00     0.000 O
ATOM     47   O  GU6 D   3      90.772  14.992  10.9570  0.00  0.00     0.000 OA
ENDBRANCH 38 43
BRANCH 39 48
ATOM     48   O  GU6 D   3      90.092  18.920   9.8510  0.00  0.00     0.000 O
ATOM     49   S  GU6 D   3      89.763  18.366   8.4650  0.00  0.00     0.000 S
ATOM     50   O  GU6 D   3      90.585  17.183   8.1850  0.00  0.00     0.000 OA
ATOM     51   O  GU6 D   3      88.342  18.011   8.5760  0.00  0.00     0.000 OA
ATOM     52   O  GU6 D   3      90.026  19.415   7.4540  0.00  0.00     0.000 O
ENDBRANCH 39 48
BRANCH 41 53
ATOM     53   C  GU6 D   3      93.097  22.552  11.4930  0.00  0.00     0.000 C
ATOM     54   O  GU6 D   3      93.720  23.007  10.3190  0.00  0.00     0.000 O
ATOM     55   S  GU6 D   3      94.268  24.438  10.2330  0.00  0.00     0.000 S
ATOM     56   O  GU6 D   3      95.390  24.525  11.1970  0.00  0.00     0.000 O
ATOM     57   O  GU6 D   3      94.741  24.676   8.8620  0.00  0.00     0.000 OA
ATOM     58   O  GU6 D   3      93.168  25.352  10.6130  0.00  0.00     0.000 OA
ENDBRANCH 41 53
BRANCH 37 59
ATOM     59  O4  Z9K D   4      94.493  18.771  10.1850  0.00  0.00     0.000 O
BRANCH 59 63
ATOM     60  C1  Z9K D   4      97.014  17.148   7.6430  0.00  0.00     0.000 C
ATOM     61  C2  Z9K D   4      96.914  16.033   8.7210  0.00  0.00     0.000 C
ATOM     62  C3  Z9K D   4      95.758  16.613   9.6470  0.00  0.00     0.000 C
ATOM     63  C4  Z9K D   4      95.798  18.132  10.0640  0.00  0.00     0.000 C
ATOM     64  C5  Z9K D   4      96.538  19.076   9.1040  0.00  0.00     0.000 C
ATOM     65  O5  Z9K D   4      96.306  18.465   7.8080  0.00  0.00     0.000 O
ATOM     66   O  Z9K D   4      95.607  15.894  10.8840  0.00  0.00     0.000 O
ATOM     67   C  Z9K D   4      94.775  14.748  10.7980  0.00  0.00     0.000 C
BRANCH 61 68
ATOM     68   O  Z9K D   4      96.382  14.899   8.0920  0.00  0.00     0.000 O
ATOM     69   O  Z9K D   4      98.046  14.248   9.9240  0.00  0.00     0.000 OA
ATOM     70   S  Z9K D   4      97.861  14.388   8.5110  0.00  0.00     0.000 S
ATOM     71   O  Z9K D   4      98.817  14.924   7.5910  0.00  0.00     0.000 OA
ATOM     72   O  Z9K D   4      97.275  13.211   7.9540  0.00  0.00     0.000 OA
ENDBRANCH 61 68
BRANCH 64 73
ATOM     73   C  Z9K D   4      96.098  20.539   9.3250  0.00  0.00     0.000 C
ATOM     74   O  Z9K D   4      96.447  21.180  10.3580  0.00  0.00     0.000 O
ATOM     75   O  Z9K D   4      95.386  21.148   8.4890  0.00  0.00     0.000 OA
ENDBRANCH 64 73
BRANCH 60 76
ATOM     76  O4  Z9L D   5      98.195  17.726   7.0610  0.00  0.00     0.000 O
BRANCH 76 80
ATOM     77  C1  Z9L D   5      99.826  19.039   3.6570  0.00  0.00     0.000 C
ATOM     78  C2  Z9L D   5      99.692  20.305   4.6330  0.00  0.00     0.000 C
ATOM     79  C3  Z9L D   5      99.447  19.693   6.1910  0.00  0.00     0.000 C
ATOM     80  C4  Z9L D   5      98.380  18.475   5.8880  0.00  0.00     0.000 C
ATOM     81  C5  Z9L D   5      98.385  17.326   4.7570  0.00  0.00     0.000 C
ATOM     82  O5  Z9L D   5      98.814  17.958   3.5410  0.00  0.00     0.000 O
ATOM     83   C  Z9L D   5     101.398  17.296   3.0390  0.00  0.00     0.000 C
ATOM     84   C  Z9L D   5     101.398  17.296   3.0390  0.00  0.00     0.000 C
BRANCH 78 85
ATOM     85   O  Z9L D   5     100.895  21.004   4.6010  0.00  0.00     0.000 O
ATOM     86   O  Z9L D   5     101.141  22.749   3.8230  0.00  0.00     0.000 OA
ATOM     87   S  Z9L D   5      99.883  22.081   3.9700  0.00  0.00     0.000 S
ATOM     88   O  Z9L D   5      99.164  22.851   4.9550  0.00  0.00     0.000 OA
ATOM     89   O  Z9L D   5      99.436  21.829   2.6430  0.00  0.00     0.000 OA
ENDBRANCH 78 85
BRANCH 79 90
ATOM     90   O  Z9L D   5      98.694  20.570   6.9670  0.00  0.00     0.000 O
ATOM     91   S  Z9L D   5     100.003  20.474   7.8680  0.00  0.00     0.000 S
ATOM     92   O  Z9L D   5     101.313  20.783   7.3580  0.00  0.00     0.000 OA
ATOM     93   O  Z9L D   5      99.819  19.454   8.8710  0.00  0.00     0.000 O
ATOM     94   O  Z9L D   5      99.457  21.684   8.3920  0.00  0.00     0.000 OA
ENDBRANCH 79 90
BRANCH 81 95
ATOM     95   C  Z9L D   5      97.061  16.298   4.6990  0.00  0.00     0.000 C
ATOM     96   S  Z9L D   5      95.302  15.960   3.8280  0.00  0.00     0.000 S
ATOM     97   O  Z9L D   5      96.104  17.236   4.2850  0.00  0.00     0.000 O
ATOM     98   O  Z9L D   5      94.824  15.320   5.0270  0.00  0.00     0.000 OA
ATOM     99   O  Z9L D   5      95.885  15.208   2.7690  0.00  0.00     0.000 OA
ATOM    100   O  Z9L D   5      94.348  16.969   3.4390  0.00  0.00     0.000 O
ENDBRANCH 81 95
ENDBRANCH 76 80
ENDBRANCH 60 76
ENDBRANCH 59 63
ENDBRANCH 37 59
ENDBRANCH 36 40
ENDBRANCH 23 36
ENDBRANCH 22 26
ENDBRANCH 1 22
TORSDOF 19
ENDMDL
MODEL 24
REMARK VINA RESULT:       0.0     69.653     76.327
ROOT
ATOM      1  C1  Z9H D   1      70.097  13.438   8.9210  0.00  0.00     0.000 C
ATOM      2  C2  Z9H D   1      71.021  13.542   7.6840  0.00  0.00     0.000 C
ATOM      3  C3  Z9H D   1      72.391  13.521   8.4280  0.00  0.00     0.000 C
ATOM      4  C4  Z9H D   1      72.528  14.547   9.6280  0.00  0.00     0.000 C
ATOM      5  C5  Z9H D   1      71.425  14.721  10.7460  0.00  0.00     0.000 C
ATOM      6  O5  Z9H D   1      70.218  14.392  10.0130  0.00  0.00     0.000 O
ATOM      7   O  Z9H D   1      73.485  13.669   7.5200  0.00  0.00     0.000 O
ATOM      8   C  Z9H D   1      74.135  12.446   7.1350  0.00  0.00     0.000 C
ATOM      9   O  Z9H D   1      73.751  14.209  10.2900  0.00  0.00     0.000 O
ATOM     10   C  Z9H D   1      74.881  15.020   9.9520  0.00  0.00     0.000 C
ENDROOT
BRANCH 2 11
ATOM     11   O  Z9H D   1      70.893  12.264   7.1170  0.00  0.00     0.000 O
ATOM     12   O  Z9H D   1      70.063  11.919   5.4590  0.00  0.00     0.000 OA
ATOM     13   S  Z9H D   1      70.241  13.215   6.0230  0.00  0.00     0.000 S
ATOM     14   O  Z9H D   1      71.289  13.977   5.4060  0.00  0.00     0.000 OA
ATOM     15   O  Z9H D   1      68.975  13.750   6.4680  0.00  0.00     0.000 O
ENDBRANCH 2 11
BRANCH 5 16
ATOM     16   C  Z9H D   1      71.541  16.129  11.6440  0.00  0.00     0.000 C
ATOM     17   S  Z9H D   1      71.371  16.902  13.4910  0.00  0.00     0.000 S
ATOM     18   O  Z9H D   1      71.979  15.551  12.8500  0.00  0.00     0.000 O
ATOM     19   O  Z9H D   1      69.942  17.015  13.4150  0.00  0.00     0.000 O
ATOM     20   O  Z9H D   1      72.252  17.994  13.2620  0.00  0.00     0.000 OA
ATOM     21   O  Z9H D   1      71.793  16.243  14.6920  0.00  0.00     0.000 OA
ENDBRANCH 5 16
BRANCH 1 22
ATOM     22  O4  GU1 D   2      70.195  12.169   9.6620  0.00  0.00     0.000 O
BRANCH 22 26
ATOM     23  C1  GU1 D   2      68.101   9.365  11.8360  0.00  0.00     0.000 C
ATOM     24  C2  GU1 D   2      67.323   9.999  10.6930  0.00  0.00     0.000 C
ATOM     25  C3  GU1 D   2      68.279  10.690   9.7650  0.00  0.00     0.000 C
ATOM     26  C4  GU1 D   2      69.171  11.661  10.5260  0.00  0.00     0.000 C
ATOM     27  C5  GU1 D   2      69.824  10.951  11.7150  0.00  0.00     0.000 C
ATOM     28  O5  GU1 D   2      68.831  10.358  12.5480  0.00  0.00     0.000 O
ATOM     29   O  GU1 D   2      66.597   9.032   9.9430  0.00  0.00     0.000 O
ATOM     30   C  GU1 D   2      65.234   8.912  10.3280  0.00  0.00     0.000 C
ATOM     31   C  GU1 D   2      67.429  10.813   7.5160  0.00  0.00     0.000 C
ATOM     32   O  GU1 D   2      67.520  11.426   8.8000  0.00  0.00     0.000 O
BRANCH 27 33
ATOM     33   C  GU1 D   2      70.619  11.918  12.5600  0.00  0.00     0.000 C
ATOM     34   O  GU1 D   2      70.016  12.743  13.2150  0.00  0.00     0.000 OA
ATOM     35   O  GU1 D   2      71.838  11.864  12.5830  0.00  0.00     0.000 O
ENDBRANCH 27 33
BRANCH 23 36
ATOM     36  O4  GU6 D   3      67.401   8.854  12.9880  0.00  0.00     0.000 O
BRANCH 36 40
ATOM     37  C1  GU6 D   3      65.697   8.403  16.6740  0.00  0.00     0.000 C
ATOM     38  C2  GU6 D   3      66.096   7.090  16.0130  0.00  0.00     0.000 C
ATOM     39  C3  GU6 D   3      66.949   7.373  14.8040  0.00  0.00     0.000 C
ATOM     40  C4  GU6 D   3      67.056   8.766  14.3560  0.00  0.00     0.000 C
ATOM     41  C5  GU6 D   3      65.674   9.478  14.5300  0.00  0.00     0.000 C
ATOM     42  O5  GU6 D   3      64.964   9.178  15.7370  0.00  0.00     0.000 O
BRANCH 38 43
ATOM     43   O  GU6 D   3      66.804   6.270  16.9220  0.00  0.00     0.000 O
ATOM     44   S  GU6 D   3      66.208   4.882  17.1130  0.00  0.00     0.000 S
ATOM     45   O  GU6 D   3      65.097   4.978  18.0760  0.00  0.00     0.000 OA
ATOM     46   O  GU6 D   3      65.692   4.408  15.8160  0.00  0.00     0.000 O
ATOM     47   O  GU6 D   3      67.252   3.983  17.5940  0.00  0.00     0.000 OA
ENDBRANCH 38 43
BRANCH 39 48
ATOM     48   O  GU6 D   3      67.797   6.377  14.2640  0.00  0.00     0.000 O
ATOM     49   S  GU6 D   3      69.294   6.148  14.4690  0.00  0.00     0.000 S
ATOM     50   O  GU6 D   3      69.595   6.023  15.9000  0.00  0.00     0.000 OA
ATOM     51   O  GU6 D   3      69.536   4.882  13.7630  0.00  0.00     0.000 OA
ATOM     52   O  GU6 D   3      70.038   7.290  13.8930  0.00  0.00     0.000 O
ENDBRANCH 39 48
BRANCH 41 53
ATOM     53   C  GU6 D   3      64.988  10.453  13.6110  0.00  0.00     0.000 C
ATOM     54   O  GU6 D   3      65.922  11.497  13.7080  0.00  0.00     0.000 O
ATOM     55   S  GU6 D   3      65.655  12.845  13.0260  0.00  0.00     0.000 S
ATOM     56   O  GU6 D   3      64.490  13.448  13.7130  0.00  0.00     0.000 O
ATOM     57   O  GU6 D   3      66.846  13.693  13.1820  0.00  0.00     0.000 OA
ATOM     58   O  GU6 D   3      65.350  12.566  11.6050  0.00  0.00     0.000 OA
ENDBRANCH 41 53
BRANCH 37 59
ATOM     59  O4  Z9K D   4      66.602   9.297  17.3550  0.00  0.00     0.000 O
BRANCH 59 63
ATOM     60  C1  Z9K D   4      68.805  10.671  20.3060  0.00  0.00     0.000 C
ATOM     61  C2  Z9K D   4      67.958   9.595  21.0390  0.00  0.00     0.000 C
ATOM     62  C3  Z9K D   4      67.204   8.918  19.8130  0.00  0.00     0.000 C
ATOM     63  C4  Z9K D   4      66.556   9.837  18.7080  0.00  0.00     0.000 C
ATOM     64  C5  Z9K D   4      67.187  11.226  18.5300  0.00  0.00     0.000 C
ATOM     65  O5  Z9K D   4      68.582  10.990  18.8520  0.00  0.00     0.000 O
ATOM     66   O  Z9K D   4      66.151   8.024  20.2160  0.00  0.00     0.000 O
ATOM     67   C  Z9K D   4      66.581   6.704  20.5030  0.00  0.00     0.000 C
BRANCH 61 68
ATOM     68   O  Z9K D   4      68.850   8.634  21.5310  0.00  0.00     0.000 O
ATOM     69   O  Z9K D   4      66.844   8.922  23.0940  0.00  0.00     0.000 OA
ATOM     70   S  Z9K D   4      68.226   9.242  22.8970  0.00  0.00     0.000 S
ATOM     71   O  Z9K D   4      68.838  10.507  23.1650  0.00  0.00     0.000 OA
ATOM     72   O  Z9K D   4      69.066   8.196  23.3830  0.00  0.00     0.000 OA
ENDBRANCH 61 68
BRANCH 64 73
ATOM     73   C  Z9K D   4      66.834  11.816  17.1480  0.00  0.00     0.000 C
ATOM     74   O  Z9K D   4      65.665  12.227  16.8900  0.00  0.00     0.000 O
ATOM     75   O  Z9K D   4      67.689  11.917  16.2350  0.00  0.00     0.000 OA
ENDBRANCH 64 73
BRANCH 60 76
ATOM     76  O4  Z9L D   5      69.039  12.038  20.6870  0.00  0.00     0.000 O
BRANCH 76 80
ATOM     77  C1  Z9L D   5      71.801  14.918  20.9080  0.00  0.00     0.000 C
ATOM     78  C2  Z9L D   5      70.698  15.405  19.8500  0.00  0.00     0.000 C
ATOM     79  C3  Z9L D   5      69.332  14.437  20.0930  0.00  0.00     0.000 C
ATOM     80  C4  Z9L D   5      70.025  12.956  20.2900  0.00  0.00     0.000 C
ATOM     81  C5  Z9L D   5      71.288  12.493  21.1790  0.00  0.00     0.000 C
ATOM     82  O5  Z9L D   5      72.281  13.519  21.0350  0.00  0.00     0.000 O
ATOM     83   C  Z9L D   5      72.332  15.054  23.2720  0.00  0.00     0.000 C
ATOM     84   C  Z9L D   5      72.332  15.054  23.2720  0.00  0.00     0.000 C
BRANCH 78 85
ATOM     85   O  Z9L D   5      70.376  16.728  20.1390  0.00  0.00     0.000 O
ATOM     86   O  Z9L D   5      70.821  18.242  19.0330  0.00  0.00     0.000 OA
ATOM     87   S  Z9L D   5      71.037  16.871  18.6810  0.00  0.00     0.000 S
ATOM     88   O  Z9L D   5      70.119  16.614  17.5990  0.00  0.00     0.000 OA
ATOM     89   O  Z9L D   5      72.450  16.722  18.6080  0.00  0.00     0.000 OA
ENDBRANCH 78 85
BRANCH 79 90
ATOM     90   O  Z9L D   5      68.607  14.278  18.9150  0.00  0.00     0.000 O
ATOM     91   S  Z9L D   5      67.480  14.925  19.8360  0.00  0.00     0.000 S
ATOM     92   O  Z9L D   5      67.659  16.190  20.4990  0.00  0.00     0.000 OA
ATOM     93   O  Z9L D   5      66.697  13.875  20.4400  0.00  0.00     0.000 O
ATOM     94   O  Z9L D   5      66.909  15.195  18.5570  0.00  0.00     0.000 OA
ENDBRANCH 79 90
BRANCH 81 95
ATOM     95   C  Z9L D   5      71.770  10.891  21.0560  0.00  0.00     0.000 C
ATOM     96   S  Z9L D   5      73.025   9.635  20.1540  0.00  0.00     0.000 S
ATOM     97   O  Z9L D   5      72.230  10.927  19.7320  0.00  0.00     0.000 O
ATOM     98   O  Z9L D   5      72.059   8.574  20.2710  0.00  0.00     0.000 OA
ATOM     99   O  Z9L D   5      74.040   9.826  21.1360  0.00  0.00     0.000 OA
ATOM    100   O  Z9L D   5      73.452   9.714  18.7790  0.00  0.00     0.000 O
ENDBRANCH 81 95
ENDBRANCH 76 80
ENDBRANCH 60 76
ENDBRANCH 59 63
ENDBRANCH 37 59
ENDBRANCH 36 40
ENDBRANCH 23 36
ENDBRANCH 22 26
ENDBRANCH 1 22
TORSDOF 19
ENDMDL
MODEL 25
REMARK VINA RESULT:       0.0     68.565     78.088
ROOT
ATOM      1  C1  Z9H D   1      36.796  49.731 130.8310  0.00  0.00     0.000 C
ATOM      2  C2  Z9H D   1      35.722  50.141 129.7950  0.00  0.00     0.000 C
ATOM      3  C3  Z9H D   1      34.465  49.629 130.5640  0.00  0.00     0.000 C
ATOM      4  C4  Z9H D   1      34.552  48.138 131.0920  0.00  0.00     0.000 C
ATOM      5  C5  Z9H D   1      35.805  47.568 131.8700  0.00  0.00     0.000 C
ATOM      6  O5  Z9H D   1      36.880  48.357 131.3010  0.00  0.00     0.000 O
ATOM      7   O  Z9H D   1      33.270  49.818 129.8040  0.00  0.00     0.000 O
ATOM      8   C  Z9H D   1      32.502  50.985 130.1440  0.00  0.00     0.000 C
ATOM      9   O  Z9H D   1      33.411  47.957 131.9370  0.00  0.00     0.000 O
ATOM     10   C  Z9H D   1      32.297  47.290 131.3360  0.00  0.00     0.000 C
ENDROOT
BRANCH 2 11
ATOM     11   O  Z9H D   1      35.695  51.537 129.9390  0.00  0.00     0.000 O
ATOM     12   O  Z9H D   1      36.250  52.751 128.6060  0.00  0.00     0.000 OA
ATOM     13   S  Z9H D   1      36.227  51.334 128.4560  0.00  0.00     0.000 S
ATOM     14   O  Z9H D   1      35.142  50.854 127.6490  0.00  0.00     0.000 OA
ATOM     15   O  Z9H D   1      37.572  50.808 128.4390  0.00  0.00     0.000 O
ENDBRANCH 2 11
BRANCH 5 16
ATOM     16   C  Z9H D   1      35.895  45.899 131.9440  0.00  0.00     0.000 C
ATOM     17   S  Z9H D   1      36.413  44.345 133.1080  0.00  0.00     0.000 S
ATOM     18   O  Z9H D   1      35.657  45.755 133.3230  0.00  0.00     0.000 O
ATOM     19   O  Z9H D   1      37.809  44.451 132.7930  0.00  0.00     0.000 O
ATOM     20   O  Z9H D   1      35.542  43.411 132.4830  0.00  0.00     0.000 OA
ATOM     21   O  Z9H D   1      36.186  44.275 134.5220  0.00  0.00     0.000 OA
ENDBRANCH 5 16
BRANCH 1 22
ATOM     22  O4  GU1 D   2      36.723  50.449 132.1160  0.00  0.00     0.000 O
BRANCH 22 26
ATOM     23  C1  GU1 D   2      38.922  52.073 135.1980  0.00  0.00     0.000 C
ATOM     24  C2  GU1 D   2      39.566  52.184 133.8240  0.00  0.00     0.000 C
ATOM     25  C3  GU1 D   2      38.533  51.919 132.7670  0.00  0.00     0.000 C
ATOM     26  C4  GU1 D   2      37.825  50.596 133.0180  0.00  0.00     0.000 C
ATOM     27  C5  GU1 D   2      37.306  50.544 134.4580  0.00  0.00     0.000 C
ATOM     28  O5  GU1 D   2      38.367  50.775 135.3800  0.00  0.00     0.000 O
ATOM     29   O  GU1 D   2      40.113  53.478 133.5970  0.00  0.00     0.000 O
ATOM     30   C  GU1 D   2      41.506  53.567 133.8610  0.00  0.00     0.000 C
ATOM     31   C  GU1 D   2      39.058  53.021 130.6930  0.00  0.00     0.000 C
ATOM     32   O  GU1 D   2      39.192  51.853 131.4990  0.00  0.00     0.000 O
BRANCH 27 33
ATOM     33   C  GU1 D   2      36.704  49.195 134.7740  0.00  0.00     0.000 C
ATOM     34   O  GU1 D   2      37.445  48.238 134.8570  0.00  0.00     0.000 OA
ATOM     35   O  GU1 D   2      35.501  49.076 134.9440  0.00  0.00     0.000 O
ENDBRANCH 27 33
BRANCH 23 36
ATOM     36  O4  GU6 D   3      39.746  52.040 136.3800  0.00  0.00     0.000 O
BRANCH 36 40
ATOM     37  C1  GU6 D   3      41.931  50.841 139.6170  0.00  0.00     0.000 C
ATOM     38  C2  GU6 D   3      41.365  52.250 139.7410  0.00  0.00     0.000 C
ATOM     39  C3  GU6 D   3      40.365  52.491 138.6400  0.00  0.00     0.000 C
ATOM     40  C4  GU6 D   3      40.277  51.492 137.5690  0.00  0.00     0.000 C
ATOM     41  C5  GU6 D   3      41.709  50.959 137.2320  0.00  0.00     0.000 C
ATOM     42  O5  GU6 D   3      42.565  50.717 138.3540  0.00  0.00     0.000 O
BRANCH 38 43
ATOM     43   O  GU6 D   3      40.747  52.429 141.0010  0.00  0.00     0.000 O
ATOM     44   S  GU6 D   3      41.277  53.614 141.7980  0.00  0.00     0.000 S
ATOM     45   O  GU6 D   3      42.521  53.205 142.4740  0.00  0.00     0.000 OA
ATOM     46   O  GU6 D   3      41.567  54.717 140.8650  0.00  0.00     0.000 O
ATOM     47   O  GU6 D   3      40.260  54.026 142.7610  0.00  0.00     0.000 OA
ENDBRANCH 38 43
BRANCH 39 48
ATOM     48   O  GU6 D   3      39.392  53.511 138.7530  0.00  0.00     0.000 O
ATOM     49   S  GU6 D   3      37.928  53.427 139.1840  0.00  0.00     0.000 S
ATOM     50   O  GU6 D   3      37.826  52.798 140.5060  0.00  0.00     0.000 OA
ATOM     51   O  GU6 D   3      37.514  54.836 139.2330  0.00  0.00     0.000 OA
ATOM     52   O  GU6 D   3      37.179  52.632 138.1860  0.00  0.00     0.000 O
ENDBRANCH 39 48
BRANCH 41 53
ATOM     53   C  GU6 D   3      42.312  50.649 135.8880  0.00  0.00     0.000 C
ATOM     54   O  GU6 D   3      41.476  49.573 135.5480  0.00  0.00     0.000 O
ATOM     55   S  GU6 D   3      41.726  48.769 134.2650  0.00  0.00     0.000 S
ATOM     56   O  GU6 D   3      43.020  48.070 134.4450  0.00  0.00     0.000 O
ATOM     57   O  GU6 D   3      40.632  47.801 134.0990  0.00  0.00     0.000 OA
ATOM     58   O  GU6 D   3      41.794  49.735 133.1470  0.00  0.00     0.000 OA
ENDBRANCH 41 53
BRANCH 37 59
ATOM     59  O4  Z9K D   4      41.186  49.625 139.8440  0.00  0.00     0.000 O
BRANCH 59 63
ATOM     60  C1  Z9K D   4      39.501  46.740 141.9140  0.00  0.00     0.000 C
ATOM     61  C2  Z9K D   4      40.375  47.421 143.0030  0.00  0.00     0.000 C
ATOM     62  C3  Z9K D   4      40.908  48.693 142.2100  0.00  0.00     0.000 C
ATOM     63  C4  Z9K D   4      41.453  48.509 140.7420  0.00  0.00     0.000 C
ATOM     64  C5  Z9K D   4      40.889  47.314 139.9580  0.00  0.00     0.000 C
ATOM     65  O5  Z9K D   4      39.540  47.194 140.4800  0.00  0.00     0.000 O
ATOM     66   O  Z9K D   4      41.951  49.400 142.9050  0.00  0.00     0.000 O
ATOM     67   C  Z9K D   4      41.485  50.354 143.8460  0.00  0.00     0.000 C
BRANCH 61 68
ATOM     68   O  Z9K D   4      39.502  47.908 143.9850  0.00  0.00     0.000 O
ATOM     69   O  Z9K D   4      41.723  47.156 145.0100  0.00  0.00     0.000 OA
ATOM     70   S  Z9K D   4      40.351  46.801 144.8090  0.00  0.00     0.000 S
ATOM     71   O  Z9K D   4      39.864  45.498 144.4750  0.00  0.00     0.000 OA
ATOM     72   O  Z9K D   4      39.523  47.372 145.8230  0.00  0.00     0.000 OA
ENDBRANCH 61 68
BRANCH 64 73
ATOM     73   C  Z9K D   4      41.082  47.514 138.4400  0.00  0.00     0.000 C
ATOM     74   O  Z9K D   4      42.227  47.430 137.9080  0.00  0.00     0.000 O
ATOM     75   O  Z9K D   4      40.116  47.758 137.6770  0.00  0.00     0.000 OA
ENDBRANCH 64 73
BRANCH 60 76
ATOM     76  O4  Z9L D   5      39.406  45.343 141.5880  0.00  0.00     0.000 O
BRANCH 76 80
ATOM     77  C1  Z9L D   5      36.884  42.403 140.6030  0.00  0.00     0.000 C
ATOM     78  C2  Z9L D   5      37.857  42.628 139.3480  0.00  0.00     0.000 C
ATOM     79  C3  Z9L D   5      39.182  43.515 139.9130  0.00  0.00     0.000 C
ATOM     80  C4  Z9L D   5      38.433  44.619 140.8800  0.00  0.00     0.000 C
ATOM     81  C5  Z9L D   5      37.280  44.436 141.9930  0.00  0.00     0.000 C
ATOM     82  O5  Z9L D   5      36.341  43.496 141.4500  0.00  0.00     0.000 O
ATOM     83   C  Z9L D   5      36.696  41.077 142.6270  0.00  0.00     0.000 C
ATOM     84   C  Z9L D   5      36.696  41.077 142.6270  0.00  0.00     0.000 C
BRANCH 78 85
ATOM     85   O  Z9L D   5      38.296  41.380 138.9130  0.00  0.00     0.000 O
ATOM     86   O  Z9L D   5      37.801  40.553 137.2460  0.00  0.00     0.000 OA
ATOM     87   S  Z9L D   5      37.455  41.884 137.6400  0.00  0.00     0.000 S
ATOM     88   O  Z9L D   5      38.200  42.743 136.7540  0.00  0.00     0.000 OA
ATOM     89   O  Z9L D   5      36.039  41.879 137.7740  0.00  0.00     0.000 OA
ENDBRANCH 78 85
BRANCH 79 90
ATOM     90   O  Z9L D   5      39.724  44.311 138.9080  0.00  0.00     0.000 O
ATOM     91   S  Z9L D   5      41.007  43.445 139.2850  0.00  0.00     0.000 S
ATOM     92   O  Z9L D   5      41.003  42.007 139.2480  0.00  0.00     0.000 OA
ATOM     93   O  Z9L D   5      41.798  44.161 140.2550  0.00  0.00     0.000 O
ATOM     94   O  Z9L D   5      41.412  43.900 137.9940  0.00  0.00     0.000 OA
ENDBRANCH 79 90
BRANCH 81 95
ATOM     95   C  Z9L D   5      36.689  45.825 142.7230  0.00  0.00     0.000 C
ATOM     96   S  Z9L D   5      35.246  47.197 142.6800  0.00  0.00     0.000 S
ATOM     97   O  Z9L D   5      36.053  46.379 141.6030  0.00  0.00     0.000 O
ATOM     98   O  Z9L D   5      36.152  48.178 143.2200  0.00  0.00     0.000 OA
ATOM     99   O  Z9L D   5      34.391  46.434 143.5240  0.00  0.00     0.000 OA
ATOM    100   O  Z9L D   5      34.639  47.743 141.4910  0.00  0.00     0.000 O
ENDBRANCH 81 95
ENDBRANCH 76 80
ENDBRANCH 60 76
ENDBRANCH 59 63
ENDBRANCH 37 59
ENDBRANCH 36 40
ENDBRANCH 23 36
ENDBRANCH 22 26
ENDBRANCH 1 22
TORSDOF 19
ENDMDL
MODEL 26
REMARK VINA RESULT:       0.0     88.299     94.152
ROOT
ATOM      1  C1  Z9H D   1      93.563  48.395 127.9060  0.00  0.00     0.000 C
ATOM      2  C2  Z9H D   1      94.045  47.170 127.0930  0.00  0.00     0.000 C
ATOM      3  C3  Z9H D   1      95.302  47.820 126.4360  0.00  0.00     0.000 C
ATOM      4  C4  Z9H D   1      95.053  49.215 125.7260  0.00  0.00     0.000 C
ATOM      5  C5  Z9H D   1      94.250  50.397 126.4020  0.00  0.00     0.000 C
ATOM      6  O5  Z9H D   1      93.323  49.669 127.2450  0.00  0.00     0.000 O
ATOM      7   O  Z9H D   1      95.955  46.917 125.5420  0.00  0.00     0.000 O
ATOM      8   C  Z9H D   1      97.095  46.230 126.0840  0.00  0.00     0.000 C
ATOM      9   O  Z9H D   1      96.351  49.720 125.3960  0.00  0.00     0.000 O
ATOM     10   C  Z9H D   1      96.764  49.520 124.0400  0.00  0.00     0.000 C
ENDROOT
BRANCH 2 11
ATOM     11   O  Z9H D   1      94.550  46.332 128.0990  0.00  0.00     0.000 O
ATOM     12   O  Z9H D   1      93.770  44.690 128.6010  0.00  0.00     0.000 OA
ATOM     13   S  Z9H D   1      93.296  45.526 127.5500  0.00  0.00     0.000 S
ATOM     14   O  Z9H D   1      93.611  45.042 126.2370  0.00  0.00     0.000 OA
ATOM     15   O  Z9H D   1      92.051  46.154 127.9290  0.00  0.00     0.000 O
ENDBRANCH 2 11
BRANCH 5 16
ATOM     16   C  Z9H D   1      93.721  51.586 125.3500  0.00  0.00     0.000 C
ATOM     17   S  Z9H D   1      93.335  53.551 125.1720  0.00  0.00     0.000 S
ATOM     18   O  Z9H D   1      94.483  52.651 125.8650  0.00  0.00     0.000 O
ATOM     19   O  Z9H D   1      92.040  53.449 125.7800  0.00  0.00     0.000 O
ATOM     20   O  Z9H D   1      93.534  53.601 123.7660  0.00  0.00     0.000 OA
ATOM     21   O  Z9H D   1      94.124  54.592 125.7630  0.00  0.00     0.000 OA
ENDBRANCH 5 16
BRANCH 1 22
ATOM     22  O4  GU1 D   2      94.473  48.820 128.9840  0.00  0.00     0.000 O
BRANCH 22 26
ATOM     23  C1  GU1 D   2      94.695  50.418 132.7740  0.00  0.00     0.000 C
ATOM     24  C2  GU1 D   2      93.509  49.495 132.5380  0.00  0.00     0.000 C
ATOM     25  C3  GU1 D   2      93.744  48.694 131.2890  0.00  0.00     0.000 C
ATOM     26  C4  GU1 D   2      94.071  49.603 130.1140  0.00  0.00     0.000 C
ATOM     27  C5  GU1 D   2      95.205  50.561 130.4910  0.00  0.00     0.000 C
ATOM     28  O5  GU1 D   2      94.870  51.293 131.6660  0.00  0.00     0.000 O
ATOM     29   O  GU1 D   2      93.316  48.589 133.6170  0.00  0.00     0.000 O
ATOM     30   C  GU1 D   2      92.339  49.014 134.5570  0.00  0.00     0.000 C
ATOM     31   C  GU1 D   2      92.583  46.586 131.3350  0.00  0.00     0.000 C
ATOM     32   O  GU1 D   2      92.548  47.968 130.9870  0.00  0.00     0.000 O
BRANCH 27 33
ATOM     33   C  GU1 D   2      95.471  51.555 129.3860  0.00  0.00     0.000 C
ATOM     34   O  GU1 D   2      96.494  51.445 128.7420  0.00  0.00     0.000 OA
ATOM     35   O  GU1 D   2      94.670  52.446 129.1470  0.00  0.00     0.000 O
ENDBRANCH 27 33
BRANCH 23 36
ATOM     36  O4  GU6 D   3      94.610  51.461 133.7650  0.00  0.00     0.000 O
BRANCH 36 40
ATOM     37  C1  GU6 D   3      94.146  55.043 135.6760  0.00  0.00     0.000 C
ATOM     38  C2  GU6 D   3      95.066  54.069 136.4020  0.00  0.00     0.000 C
ATOM     39  C3  GU6 D   3      95.385  52.907 135.4980  0.00  0.00     0.000 C
ATOM     40  C4  GU6 D   3      94.629  52.790 134.2460  0.00  0.00     0.000 C
ATOM     41  C5  GU6 D   3      93.144  53.214 134.4910  0.00  0.00     0.000 C
ATOM     42  O5  GU6 D   3      92.951  54.361 135.3270  0.00  0.00     0.000 O
BRANCH 38 43
ATOM     43   O  GU6 D   3      96.261  54.714 136.7980  0.00  0.00     0.000 O
ATOM     44   S  GU6 D   3      96.561  54.623 138.2880  0.00  0.00     0.000 S
ATOM     45   O  GU6 D   3      95.779  55.657 138.9880  0.00  0.00     0.000 OA
ATOM     46   O  GU6 D   3      96.153  53.291 138.7700  0.00  0.00     0.000 O
ATOM     47   O  GU6 D   3      97.994  54.812 138.4920  0.00  0.00     0.000 OA
ENDBRANCH 38 43
BRANCH 39 48
ATOM     48   O  GU6 D   3      96.521  52.096 135.7300  0.00  0.00     0.000 O
ATOM     49   S  GU6 D   3      97.914  52.158 135.1040  0.00  0.00     0.000 S
ATOM     50   O  GU6 D   3      98.488  53.498 135.2790  0.00  0.00     0.000 OA
ATOM     51   O  GU6 D   3      98.667  51.154 135.8680  0.00  0.00     0.000 OA
ATOM     52   O  GU6 D   3      97.808  51.837 133.6640  0.00  0.00     0.000 O
ENDBRANCH 39 48
BRANCH 41 53
ATOM     53   C  GU6 D   3      91.881  52.594 133.9560  0.00  0.00     0.000 C
ATOM     54   O  GU6 D   3      92.087  52.883 132.5980  0.00  0.00     0.000 O
ATOM     55   S  GU6 D   3      91.004  52.557 131.5600  0.00  0.00     0.000 S
ATOM     56   O  GU6 D   3      89.847  53.433 131.8600  0.00  0.00     0.000 O
ATOM     57   O  GU6 D   3      91.538  52.842 130.2210  0.00  0.00     0.000 OA
ATOM     58   O  GU6 D   3      90.648  51.130 131.7300  0.00  0.00     0.000 OA
ENDBRANCH 41 53
BRANCH 37 59
ATOM     59  O4  Z9K D   4      94.525  55.853 134.5440  0.00  0.00     0.000 O
BRANCH 59 63
ATOM     60  C1  Z9K D   4      96.117  58.896 132.6320  0.00  0.00     0.000 C
ATOM     61  C2  Z9K D   4      96.146  59.412 134.0970  0.00  0.00     0.000 C
ATOM     62  C3  Z9K D   4      95.675  58.113 134.8840  0.00  0.00     0.000 C
ATOM     63  C4  Z9K D   4      94.441  57.295 134.3460  0.00  0.00     0.000 C
ATOM     64  C5  Z9K D   4      94.165  57.404 132.8380  0.00  0.00     0.000 C
ATOM     65  O5  Z9K D   4      95.494  57.573 132.2790  0.00  0.00     0.000 O
ATOM     66   O  Z9K D   4      95.376  58.364 136.2690  0.00  0.00     0.000 O
ATOM     67   C  Z9K D   4      96.501  58.311 137.1310  0.00  0.00     0.000 C
BRANCH 61 68
ATOM     68   O  Z9K D   4      97.491  59.612 134.4360  0.00  0.00     0.000 O
ATOM     69   O  Z9K D   4      95.984  61.337 135.5760  0.00  0.00     0.000 OA
ATOM     70   S  Z9K D   4      96.903  61.120 134.5000  0.00  0.00     0.000 S
ATOM     71   O  Z9K D   4      96.765  61.622 133.1670  0.00  0.00     0.000 OA
ATOM     72   O  Z9K D   4      98.250  61.297 134.9370  0.00  0.00     0.000 OA
ENDBRANCH 61 68
BRANCH 64 73
ATOM     73   C  Z9K D   4      93.301  56.221 132.3510  0.00  0.00     0.000 C
ATOM     74   O  Z9K D   4      92.069  56.150 132.6320  0.00  0.00     0.000 O
ATOM     75   O  Z9K D   4      93.781  55.293 131.6570  0.00  0.00     0.000 OA
ENDBRANCH 64 73
BRANCH 60 76
ATOM     76  O4  Z9L D   5      95.632  59.568 131.4570  0.00  0.00     0.000 O
BRANCH 76 80
ATOM     77  C1  Z9L D   5      96.265  60.119 127.5500  0.00  0.00     0.000 C
ATOM     78  C2  Z9L D   5      94.846  59.387 127.6970  0.00  0.00     0.000 C
ATOM     79  C3  Z9L D   5      94.371  59.567 129.3100  0.00  0.00     0.000 C
ATOM     80  C4  Z9L D   5      95.794  59.282 130.0920  0.00  0.00     0.000 C
ATOM     81  C5  Z9L D   5      97.281  59.837 129.8090  0.00  0.00     0.000 C
ATOM     82  O5  Z9L D   5      97.456  59.818 128.3850  0.00  0.00     0.000 O
ATOM     83   C  Z9L D   5      97.232  62.342 127.4110  0.00  0.00     0.000 C
ATOM     84   C  Z9L D   5      97.232  62.342 127.4110  0.00  0.00     0.000 C
BRANCH 78 85
ATOM     85   O  Z9L D   5      93.933  60.044 126.8770  0.00  0.00     0.000 O
ATOM     86   O  Z9L D   5      93.137  59.301 125.2880  0.00  0.00     0.000 OA
ATOM     87   S  Z9L D   5      93.977  58.587 126.2010  0.00  0.00     0.000 S
ATOM     88   O  Z9L D   5      93.108  57.626 126.8350  0.00  0.00     0.000 OA
ATOM     89   O  Z9L D   5      95.148  58.267 125.4610  0.00  0.00     0.000 OA
ENDBRANCH 78 85
BRANCH 79 90
ATOM     90   O  Z9L D   5      93.578  58.502 129.7280  0.00  0.00     0.000 O
ATOM     91   S  Z9L D   5      92.571  59.706 129.9970  0.00  0.00     0.000 S
ATOM     92   O  Z9L D   5      92.186  60.633 128.9650  0.00  0.00     0.000 OA
ATOM     93   O  Z9L D   5      92.692  60.131 131.3690  0.00  0.00     0.000 O
ATOM     94   O  Z9L D   5      91.634  58.630 129.9700  0.00  0.00     0.000 OA
ENDBRANCH 79 90
BRANCH 81 95
ATOM     95   C  Z9L D   5      98.519  59.244 130.7740  0.00  0.00     0.000 C
ATOM     96   S  Z9L D   5      99.939  57.856 130.9260  0.00  0.00     0.000 S
ATOM     97   O  Z9L D   5      98.475  57.909 130.3480  0.00  0.00     0.000 O
ATOM     98   O  Z9L D   5      99.819  57.881 132.3620  0.00  0.00     0.000 OA
ATOM     99   O  Z9L D   5     100.901  58.659 130.2490  0.00  0.00     0.000 OA
ATOM    100   O  Z9L D   5      99.830  56.488 130.4840  0.00  0.00     0.000 O
ENDBRANCH 81 95
ENDBRANCH 76 80
ENDBRANCH 60 76
ENDBRANCH 59 63
ENDBRANCH 37 59
ENDBRANCH 36 40
ENDBRANCH 23 36
ENDBRANCH 22 26
ENDBRANCH 1 22
TORSDOF 19
ENDMDL
MODEL 27
REMARK VINA RESULT:       0.0     73.011     80.325
ROOT
ATOM      1  C1  Z9H D   1      62.347 124.780  35.2560  0.00  0.00     0.000 C
ATOM      2  C2  Z9H D   1      61.599 123.462  34.9440  0.00  0.00     0.000 C
ATOM      3  C3  Z9H D   1      62.758 122.468  35.2640  0.00  0.00     0.000 C
ATOM      4  C4  Z9H D   1      64.145 122.796  34.5700  0.00  0.00     0.000 C
ATOM      5  C5  Z9H D   1      64.791 124.238  34.5690  0.00  0.00     0.000 C
ATOM      6  O5  Z9H D   1      63.612 125.081  34.6050  0.00  0.00     0.000 O
ATOM      7   O  Z9H D   1      62.379 121.116  35.0030  0.00  0.00     0.000 O
ATOM      8   C  Z9H D   1      61.958 120.361  36.1520  0.00  0.00     0.000 C
ATOM      9   O  Z9H D   1      65.096 121.907  35.1640  0.00  0.00     0.000 O
ATOM     10   C  Z9H D   1      65.409 120.737  34.4010  0.00  0.00     0.000 C
ENDROOT
BRANCH 2 11
ATOM     11   O  Z9H D   1      60.719 123.360  36.0330  0.00  0.00     0.000 O
ATOM     12   O  Z9H D   1      58.844 123.506  35.8960  0.00  0.00     0.000 OA
ATOM     13   S  Z9H D   1      59.744 123.559  34.7940  0.00  0.00     0.000 S
ATOM     14   O  Z9H D   1      59.767 122.361  34.0050  0.00  0.00     0.000 OA
ATOM     15   O  Z9H D   1      59.818 124.903  34.2680  0.00  0.00     0.000 O
ENDBRANCH 2 11
BRANCH 5 16
ATOM     16   C  Z9H D   1      65.996 124.474  33.4330  0.00  0.00     0.000 C
ATOM     17   S  Z9H D   1      67.775 125.349  33.1010  0.00  0.00     0.000 S
ATOM     18   O  Z9H D   1      67.086 124.547  34.3200  0.00  0.00     0.000 O
ATOM     19   O  Z9H D   1      67.198 126.633  32.8220  0.00  0.00     0.000 O
ATOM     20   O  Z9H D   1      68.184 124.443  32.0860  0.00  0.00     0.000 OA
ATOM     21   O  Z9H D   1      68.833 125.434  34.0640  0.00  0.00     0.000 OA
ENDBRANCH 5 16
BRANCH 1 22
ATOM     22  O4  GU1 D   2      62.723 124.959  36.6690  0.00  0.00     0.000 O
BRANCH 22 26
ATOM     23  C1  GU1 D   2      63.194 127.696  39.7110  0.00  0.00     0.000 C
ATOM     24  C2  GU1 D   2      62.049 127.993  38.7550  0.00  0.00     0.000 C
ATOM     25  C3  GU1 D   2      61.742 126.764  37.9500  0.00  0.00     0.000 C
ATOM     26  C4  GU1 D   2      62.995 126.228  37.2750  0.00  0.00     0.000 C
ATOM     27  C5  GU1 D   2      64.117 126.063  38.3050  0.00  0.00     0.000 C
ATOM     28  O5  GU1 D   2      64.351 127.292  38.9880  0.00  0.00     0.000 O
ATOM     29   O  GU1 D   2      60.867 128.381  39.4450  0.00  0.00     0.000 O
ATOM     30   C  GU1 D   2      60.685 129.787  39.5300  0.00  0.00     0.000 C
ATOM     31   C  GU1 D   2      59.450 126.712  37.2170  0.00  0.00     0.000 C
ATOM     32   O  GU1 D   2      60.790 127.111  36.9400  0.00  0.00     0.000 O
BRANCH 27 33
ATOM     33   C  GU1 D   2      65.409 125.648  37.6440  0.00  0.00     0.000 C
ATOM     34   O  GU1 D   2      65.987 126.456  36.9450  0.00  0.00     0.000 OA
ATOM     35   O  GU1 D   2      65.861 124.526  37.8130  0.00  0.00     0.000 O
ENDBRANCH 27 33
BRANCH 23 36
ATOM     36  O4  GU6 D   3      63.841 128.773  40.4180  0.00  0.00     0.000 O
BRANCH 36 40
ATOM     37  C1  GU6 D   3      66.410 131.730  41.5800  0.00  0.00     0.000 C
ATOM     38  C2  GU6 D   3      65.622 131.109  42.7270  0.00  0.00     0.000 C
ATOM     39  C3  GU6 D   3      64.921 129.867  42.2430  0.00  0.00     0.000 C
ATOM     40  C4  GU6 D   3      64.919 129.604  40.8000  0.00  0.00     0.000 C
ATOM     41  C5  GU6 D   3      64.760 130.952  40.0230  0.00  0.00     0.000 C
ATOM     42  O5  GU6 D   3      65.507 132.061  40.5370  0.00  0.00     0.000 O
BRANCH 38 43
ATOM     43   O  GU6 D   3      66.480 130.790  43.8060  0.00  0.00     0.000 O
ATOM     44   S  GU6 D   3      66.072 131.407  45.1370  0.00  0.00     0.000 S
ATOM     45   O  GU6 D   3      66.553 132.798  45.1760  0.00  0.00     0.000 OA
ATOM     46   O  GU6 D   3      64.601 131.393  45.2320  0.00  0.00     0.000 O
ATOM     47   O  GU6 D   3      66.650 130.614  46.2190  0.00  0.00     0.000 OA
ENDBRANCH 38 43
BRANCH 39 48
ATOM     48   O  GU6 D   3      64.486 128.876  43.1550  0.00  0.00     0.000 O
ATOM     49   S  GU6 D   3      65.150 127.563  43.5670  0.00  0.00     0.000 S
ATOM     50   O  GU6 D   3      66.509 127.817  44.0600  0.00  0.00     0.000 OA
ATOM     51   O  GU6 D   3      64.278 127.073  44.6430  0.00  0.00     0.000 OA
ATOM     52   O  GU6 D   3      65.196 126.661  42.3950  0.00  0.00     0.000 O
ENDBRANCH 39 48
BRANCH 41 53
ATOM     53   C  GU6 D   3      63.941 131.247  38.7960  0.00  0.00     0.000 C
ATOM     54   O  GU6 D   3      64.644 130.430  37.8960  0.00  0.00     0.000 O
ATOM     55   S  GU6 D   3      64.289 130.431  36.4030  0.00  0.00     0.000 S
ATOM     56   O  GU6 D   3      64.630 131.776  35.8840  0.00  0.00     0.000 O
ATOM     57   O  GU6 D   3      65.089 129.397  35.7310  0.00  0.00     0.000 OA
ATOM     58   O  GU6 D   3      62.836 130.172  36.2970  0.00  0.00     0.000 OA
ENDBRANCH 41 53
BRANCH 37 59
ATOM     59  O4  Z9K D   4      67.579 131.146  40.9670  0.00  0.00     0.000 O
BRANCH 59 63
ATOM     60  C1  Z9K D   4      71.372 130.195  40.5680  0.00  0.00     0.000 C
ATOM     61  C2  Z9K D   4      71.443 131.244  41.7120  0.00  0.00     0.000 C
ATOM     62  C3  Z9K D   4      69.897 131.488  41.9940  0.00  0.00     0.000 C
ATOM     63  C4  Z9K D   4      68.917 131.692  40.7770  0.00  0.00     0.000 C
ATOM     64  C5  Z9K D   4      69.348 131.051  39.4490  0.00  0.00     0.000 C
ATOM     65  O5  Z9K D   4      70.073 129.870  39.8810  0.00  0.00     0.000 O
ATOM     66   O  Z9K D   4      69.647 132.608  42.8620  0.00  0.00     0.000 O
ATOM     67   C  Z9K D   4      69.711 132.303  44.2460  0.00  0.00     0.000 C
BRANCH 61 68
ATOM     68   O  Z9K D   4      71.951 130.588  42.8410  0.00  0.00     0.000 O
ATOM     69   O  Z9K D   4      72.711 133.031  42.7700  0.00  0.00     0.000 OA
ATOM     70   S  Z9K D   4      73.111 131.676  42.5350  0.00  0.00     0.000 S
ATOM     71   O  Z9K D   4      73.903 131.216  41.4360  0.00  0.00     0.000 OA
ATOM     72   O  Z9K D   4      73.572 131.065  43.7400  0.00  0.00     0.000 OA
ENDBRANCH 61 68
BRANCH 64 73
ATOM     73   C  Z9K D   4      68.139 130.875  38.5060  0.00  0.00     0.000 C
ATOM     74   O  Z9K D   4      67.653 129.731  38.2690  0.00  0.00     0.000 O
ATOM     75   O  Z9K D   4      67.588 131.855  37.9460  0.00  0.00     0.000 OA
ENDBRANCH 64 73
BRANCH 60 76
ATOM     76  O4  Z9L D   5      72.156 130.129  39.3650  0.00  0.00     0.000 O
BRANCH 76 80
ATOM     77  C1  Z9L D   5      74.094 127.666  36.8850  0.00  0.00     0.000 C
ATOM     78  C2  Z9L D   5      72.882 128.310  36.0550  0.00  0.00     0.000 C
ATOM     79  C3  Z9L D   5      72.360 129.661  36.9280  0.00  0.00     0.000 C
ATOM     80  C4  Z9L D   5      72.392 129.075  38.4670  0.00  0.00     0.000 C
ATOM     81  C5  Z9L D   5      73.516 128.221  39.2470  0.00  0.00     0.000 C
ATOM     82  O5  Z9L D   5      74.010 127.252  38.3090  0.00  0.00     0.000 O
ATOM     83   C  Z9L D   5      76.439 128.037  37.3890  0.00  0.00     0.000 C
ATOM     84   C  Z9L D   5      76.439 128.037  37.3890  0.00  0.00     0.000 C
BRANCH 78 85
ATOM     85   O  Z9L D   5      73.376 128.726  34.8220  0.00  0.00     0.000 O
ATOM     86   O  Z9L D   5      72.942 127.921  33.1270  0.00  0.00     0.000 OA
ATOM     87   S  Z9L D   5      72.341 127.578  34.3800  0.00  0.00     0.000 S
ATOM     88   O  Z9L D   5      70.977 128.034  34.2780  0.00  0.00     0.000 OA
ATOM     89   O  Z9L D   5      72.739 126.236  34.6320  0.00  0.00     0.000 OA
ENDBRANCH 78 85
BRANCH 79 90
ATOM     90   O  Z9L D   5      71.004 129.903  36.7250  0.00  0.00     0.000 O
ATOM     91   S  Z9L D   5      71.600 131.295  36.2310  0.00  0.00     0.000 S
ATOM     92   O  Z9L D   5      72.592 131.383  35.1910  0.00  0.00     0.000 OA
ATOM     93   O  Z9L D   5      71.587 132.235  37.3240  0.00  0.00     0.000 O
ATOM     94   O  Z9L D   5      70.321 131.362  35.6020  0.00  0.00     0.000 OA
ENDBRANCH 79 90
BRANCH 81 95
ATOM     95   C  Z9L D   5      73.154 127.713  40.8040  0.00  0.00     0.000 C
ATOM     96   S  Z9L D   5      72.461 126.203  41.9020  0.00  0.00     0.000 S
ATOM     97   O  Z9L D   5      72.140 126.800  40.4810  0.00  0.00     0.000 O
ATOM     98   O  Z9L D   5      71.942 127.136  42.8700  0.00  0.00     0.000 OA
ATOM     99   O  Z9L D   5      73.751 125.620  42.0520  0.00  0.00     0.000 OA
ATOM    100   O  Z9L D   5      71.399 125.304  41.5220  0.00  0.00     0.000 O
ENDBRANCH 81 95
ENDBRANCH 76 80
ENDBRANCH 60 76
ENDBRANCH 59 63
ENDBRANCH 37 59
ENDBRANCH 36 40
ENDBRANCH 23 36
ENDBRANCH 22 26
ENDBRANCH 1 22
TORSDOF 19
ENDMDL
MODEL 28
REMARK VINA RESULT:       0.0    100.412    106.345
ROOT
ATOM      1  C1  Z9H D   1     121.447  38.871  11.9960  0.00  0.00     0.000 C
ATOM      2  C2  Z9H D   1     119.948  38.844  11.6130  0.00  0.00     0.000 C
ATOM      3  C3  Z9H D   1     119.542  37.556  12.3940  0.00  0.00     0.000 C
ATOM      4  C4  Z9H D   1     120.464  36.291  12.1440  0.00  0.00     0.000 C
ATOM      5  C5  Z9H D   1     122.043  36.351  12.1860  0.00  0.00     0.000 C
ATOM      6  O5  Z9H D   1     122.291  37.712  11.7510  0.00  0.00     0.000 O
ATOM      7   O  Z9H D   1     118.170  37.220  12.1800  0.00  0.00     0.000 O
ATOM      8   C  Z9H D   1     117.264  37.643  13.2130  0.00  0.00     0.000 C
ATOM      9   O  Z9H D   1     120.052  35.314  13.1050  0.00  0.00     0.000 O
ATOM     10   C  Z9H D   1     119.164  34.304  12.6160  0.00  0.00     0.000 C
ENDROOT
BRANCH 2 11
ATOM     11   O  Z9H D   1     119.433  39.907  12.3710  0.00  0.00     0.000 O
ATOM     12   O  Z9H D   1     118.739  41.497  11.6300  0.00  0.00     0.000 OA
ATOM     13   S  Z9H D   1     119.219  40.391  10.8730  0.00  0.00     0.000 S
ATOM     14   O  Z9H D   1     118.180  39.594  10.2860  0.00  0.00     0.000 OA
ATOM     15   O  Z9H D   1     120.473  40.723  10.2350  0.00  0.00     0.000 O
ENDBRANCH 2 11
BRANCH 5 16
ATOM     16   C  Z9H D   1     122.821  35.053  11.4720  0.00  0.00     0.000 C
ATOM     17   S  Z9H D   1     124.409  33.829  11.6080  0.00  0.00     0.000 S
ATOM     18   O  Z9H D   1     123.355  34.481  12.6410  0.00  0.00     0.000 O
ATOM     19   O  Z9H D   1     125.304  34.764  10.9890  0.00  0.00     0.000 O
ATOM     20   O  Z9H D   1     123.806  32.748  10.9090  0.00  0.00     0.000 OA
ATOM     21   O  Z9H D   1     124.938  33.315  12.8370  0.00  0.00     0.000 OA
ENDBRANCH 5 16
BRANCH 1 22
ATOM     22  O4  GU1 D   2     121.716  39.100  13.4270  0.00  0.00     0.000 O
BRANCH 22 26
ATOM     23  C1  GU1 D   2     124.254  40.892  16.1320  0.00  0.00     0.000 C
ATOM     24  C2  GU1 D   2     124.053  41.663  14.8360  0.00  0.00     0.000 C
ATOM     25  C3  GU1 D   2     122.848  41.126  14.1200  0.00  0.00     0.000 C
ATOM     26  C4  GU1 D   2     122.949  39.618  13.9400  0.00  0.00     0.000 C
ATOM     27  C5  GU1 D   2     123.255  38.949  15.2830  0.00  0.00     0.000 C
ATOM     28  O5  GU1 D   2     124.431  39.507  15.8620  0.00  0.00     0.000 O
ATOM     29   O  GU1 D   2     123.850  43.051  15.0680  0.00  0.00     0.000 O
ATOM     30   C  GU1 D   2     125.027  43.835  14.9320  0.00  0.00     0.000 C
ATOM     31   C  GU1 D   2     121.820  42.784  12.7100  0.00  0.00     0.000 C
ATOM     32   O  GU1 D   2     122.781  41.737  12.8270  0.00  0.00     0.000 O
BRANCH 27 33
ATOM     33   C  GU1 D   2     123.480  37.465  15.1160  0.00  0.00     0.000 C
ATOM     34   O  GU1 D   2     124.484  37.094  14.5430  0.00  0.00     0.000 OA
ATOM     35   O  GU1 D   2     122.671  36.661  15.5510  0.00  0.00     0.000 O
ENDBRANCH 27 33
BRANCH 23 36
ATOM     36  O4  GU6 D   3     125.476  41.046  16.8810  0.00  0.00     0.000 O
BRANCH 36 40
ATOM     37  C1  GU6 D   3     129.214  40.544  18.4520  0.00  0.00     0.000 C
ATOM     38  C2  GU6 D   3     128.264  41.323  19.3530  0.00  0.00     0.000 C
ATOM     39  C3  GU6 D   3     126.860  41.219  18.8170  0.00  0.00     0.000 C
ATOM     40  C4  GU6 D   3     126.681  40.625  17.4870  0.00  0.00     0.000 C
ATOM     41  C5  GU6 D   3     127.850  41.076  16.5510  0.00  0.00     0.000 C
ATOM     42  O5  GU6 D   3     129.153  41.096  17.1460  0.00  0.00     0.000 O
BRANCH 38 43
ATOM     43   O  GU6 D   3     128.314  40.827  20.6760  0.00  0.00     0.000 O
ATOM     44   S  GU6 D   3     128.632  41.878  21.7310  0.00  0.00     0.000 S
ATOM     45   O  GU6 D   3     130.090  42.085  21.7620  0.00  0.00     0.000 OA
ATOM     46   O  GU6 D   3     127.966  43.138  21.3550  0.00  0.00     0.000 O
ATOM     47   O  GU6 D   3     128.133  41.415  23.0220  0.00  0.00     0.000 OA
ENDBRANCH 38 43
BRANCH 39 48
ATOM     48   O  GU6 D   3     125.744  41.464  19.6510  0.00  0.00     0.000 O
ATOM     49   S  GU6 D   3     124.843  40.481  20.3980  0.00  0.00     0.000 S
ATOM     50   O  GU6 D   3     125.650  39.613  21.2620  0.00  0.00     0.000 OA
ATOM     51   O  GU6 D   3     123.976  41.363  21.1920  0.00  0.00     0.000 OA
ATOM     52   O  GU6 D   3     124.101  39.666  19.4110  0.00  0.00     0.000 O
ENDBRANCH 39 48
BRANCH 41 53
ATOM     53   C  GU6 D   3     127.803  41.480  15.1020  0.00  0.00     0.000 C
ATOM     54   O  GU6 D   3     127.420  40.238  14.5710  0.00  0.00     0.000 O
ATOM     55   S  GU6 D   3     127.326  40.037  13.0520  0.00  0.00     0.000 S
ATOM     56   O  GU6 D   3     128.702  40.158  12.5190  0.00  0.00     0.000 O
ATOM     57   O  GU6 D   3     126.782  38.697  12.7900  0.00  0.00     0.000 OA
ATOM     58   O  GU6 D   3     126.453  41.109  12.5220  0.00  0.00     0.000 OA
ENDBRANCH 41 53
BRANCH 37 59
ATOM     59  O4  Z9K D   4     129.231  39.108  18.3110  0.00  0.00     0.000 O
BRANCH 59 63
ATOM     60  C1  Z9K D   4     130.071  35.384  19.2470  0.00  0.00     0.000 C
ATOM     61  C2  Z9K D   4     131.000  36.157  20.2240  0.00  0.00     0.000 C
ATOM     62  C3  Z9K D   4     130.524  37.653  19.9720  0.00  0.00     0.000 C
ATOM     63  C4  Z9K D   4     130.319  38.155  18.4920  0.00  0.00     0.000 C
ATOM     64  C5  Z9K D   4     129.985  37.074  17.4530  0.00  0.00     0.000 C
ATOM     65  O5  Z9K D   4     129.231  36.104  18.2280  0.00  0.00     0.000 O
ATOM     66   O  Z9K D   4     131.385  38.634  20.5780  0.00  0.00     0.000 O
ATOM     67   C  Z9K D   4     131.088  38.914  21.9370  0.00  0.00     0.000 C
BRANCH 61 68
ATOM     68   O  Z9K D   4     130.594  35.829  21.5240  0.00  0.00     0.000 O
ATOM     69   O  Z9K D   4     133.120  36.223  21.4150  0.00  0.00     0.000 OA
ATOM     70   S  Z9K D   4     132.096  35.224  21.4790  0.00  0.00     0.000 S
ATOM     71   O  Z9K D   4     132.081  33.993  20.7500  0.00  0.00     0.000 OA
ATOM     72   O  Z9K D   4     131.707  34.981  22.8310  0.00  0.00     0.000 OA
ENDBRANCH 61 68
BRANCH 64 73
ATOM     73   C  Z9K D   4     129.328  37.697  16.2030  0.00  0.00     0.000 C
ATOM     74   O  Z9K D   4     130.000  38.392  15.3870  0.00  0.00     0.000 O
ATOM     75   O  Z9K D   4     128.110  37.534  15.9450  0.00  0.00     0.000 OA
ENDBRANCH 64 73
BRANCH 60 76
ATOM     76  O4  Z9L D   5     130.404  34.294  18.3700  0.00  0.00     0.000 O
BRANCH 76 80
ATOM     77  C1  Z9L D   5     129.149  30.780  16.9390  0.00  0.00     0.000 C
ATOM     78  C2  Z9L D   5     129.216  31.795  15.7000  0.00  0.00     0.000 C
ATOM     79  C3  Z9L D   5     130.162  33.106  16.1960  0.00  0.00     0.000 C
ATOM     80  C4  Z9L D   5     129.597  33.343  17.7250  0.00  0.00     0.000 C
ATOM     81  C5  Z9L D   5     129.304  32.294  18.9150  0.00  0.00     0.000 C
ATOM     82  O5  Z9L D   5     128.691  31.150  18.3030  0.00  0.00     0.000 O
ATOM     83   C  Z9L D   5     130.506  29.142  18.1090  0.00  0.00     0.000 C
ATOM     84   C  Z9L D   5     130.506  29.142  18.1090  0.00  0.00     0.000 C
BRANCH 78 85
ATOM     85   O  Z9L D   5     129.852  31.147  14.6450  0.00  0.00     0.000 O
ATOM     86   O  Z9L D   5     129.001  30.604  13.0040  0.00  0.00     0.000 OA
ATOM     87   S  Z9L D   5     128.383  31.380  14.0360  0.00  0.00     0.000 S
ATOM     88   O  Z9L D   5     128.194  32.688  13.4590  0.00  0.00     0.000 OA
ATOM     89   O  Z9L D   5     127.345  30.557  14.5540  0.00  0.00     0.000 OA
ENDBRANCH 78 85
BRANCH 79 90
ATOM     90   O  Z9L D   5     129.783  34.279  15.5490  0.00  0.00     0.000 O
ATOM     91   S  Z9L D   5     131.313  34.214  15.1090  0.00  0.00     0.000 S
ATOM     92   O  Z9L D   5     131.872  33.073  14.4330  0.00  0.00     0.000 OA
ATOM     93   O  Z9L D   5     132.106  34.995  16.0240  0.00  0.00     0.000 O
ATOM     94   O  Z9L D   5     130.827  35.104  14.1050  0.00  0.00     0.000 OA
ENDBRANCH 79 90
BRANCH 81 95
ATOM     95   C  Z9L D   5     128.634  32.901  20.3280  0.00  0.00     0.000 C
ATOM     96   S  Z9L D   5     126.935  33.202  21.3220  0.00  0.00     0.000 S
ATOM     97   O  Z9L D   5     127.378  33.252  19.8120  0.00  0.00     0.000 O
ATOM     98   O  Z9L D   5     127.505  34.361  21.9600  0.00  0.00     0.000 OA
ATOM     99   O  Z9L D   5     126.980  31.919  21.9390  0.00  0.00     0.000 OA
ATOM    100   O  Z9L D   5     125.672  33.579  20.7370  0.00  0.00     0.000 O
ENDBRANCH 81 95
ENDBRANCH 76 80
ENDBRANCH 60 76
ENDBRANCH 59 63
ENDBRANCH 37 59
ENDBRANCH 36 40
ENDBRANCH 23 36
ENDBRANCH 22 26
ENDBRANCH 1 22
TORSDOF 19
ENDMDL
MODEL 29
REMARK VINA RESULT:       0.0      6.173      9.695
ROOT
ATOM      1  C1  Z9H D   1      40.258  54.225  60.5510  0.00  0.00     0.000 C
ATOM      2  C2  Z9H D   1      41.627  54.493  61.2220  0.00  0.00     0.000 C
ATOM      3  C3  Z9H D   1      42.543  54.097  60.0240  0.00  0.00     0.000 C
ATOM      4  C4  Z9H D   1      42.227  52.692  59.3630  0.00  0.00     0.000 C
ATOM      5  C5  Z9H D   1      40.767  52.230  58.9700  0.00  0.00     0.000 C
ATOM      6  O5  Z9H D   1      39.969  52.929  59.9590  0.00  0.00     0.000 O
ATOM      7   O  Z9H D   1      43.927  54.185  60.3680  0.00  0.00     0.000 O
ATOM      8   C  Z9H D   1      44.590  55.390  59.9510  0.00  0.00     0.000 C
ATOM      9   O  Z9H D   1      43.023  52.634  58.1740  0.00  0.00     0.000 O
ATOM     10   C  Z9H D   1      44.243  51.895  58.2840  0.00  0.00     0.000 C
ENDROOT
BRANCH 2 11
ATOM     11   O  Z9H D   1      41.663  55.896  61.2620  0.00  0.00     0.000 O
ATOM     12   O  Z9H D   1      41.621  56.912  62.8500  0.00  0.00     0.000 OA
ATOM     13   S  Z9H D   1      41.634  55.489  62.7970  0.00  0.00     0.000 S
ATOM     14   O  Z9H D   1      42.902  54.907  63.1330  0.00  0.00     0.000 OA
ATOM     15   O  Z9H D   1      40.347  54.959  63.1850  0.00  0.00     0.000 O
ENDBRANCH 2 11
BRANCH 5 16
ATOM     16   C  Z9H D   1      40.590  50.586  58.7110  0.00  0.00     0.000 C
ATOM     17   S  Z9H D   1      39.657  49.205  57.5880  0.00  0.00     0.000 S
ATOM     18   O  Z9H D   1      40.359  50.634  57.3240  0.00  0.00     0.000 O
ATOM     19   O  Z9H D   1      38.445  49.261  58.3550  0.00  0.00     0.000 O
ATOM     20   O  Z9H D   1      40.644  48.198  57.7640  0.00  0.00     0.000 OA
ATOM     21   O  Z9H D   1      39.407  49.332  56.1820  0.00  0.00     0.000 OA
ENDBRANCH 5 16
BRANCH 1 22
ATOM     22  O4  GU1 D   2      39.939  55.114  59.4190  0.00  0.00     0.000 O
BRANCH 22 26
ATOM     23  C1  GU1 D   2      36.926  57.137  57.4700  0.00  0.00     0.000 C
ATOM     24  C2  GU1 D   2      36.769  57.056  58.9810  0.00  0.00     0.000 C
ATOM     25  C3  GU1 D   2      38.077  56.652  59.5960  0.00  0.00     0.000 C
ATOM     26  C4  GU1 D   2      38.610  55.379  58.9550  0.00  0.00     0.000 C
ATOM     27  C5  GU1 D   2      38.631  55.528  57.4310  0.00  0.00     0.000 C
ATOM     28  O5  GU1 D   2      37.337  55.879  56.9470  0.00  0.00     0.000 O
ATOM     29   O  GU1 D   2      36.379  58.303  59.5430  0.00  0.00     0.000 O
ATOM     30   C  GU1 D   2      34.981  58.422  59.7640  0.00  0.00     0.000 C
ATOM     31   C  GU1 D   2      38.301  57.455  61.8540  0.00  0.00     0.000 C
ATOM     32   O  GU1 D   2      37.865  56.408  60.9900  0.00  0.00     0.000 O
BRANCH 27 33
ATOM     33   C  GU1 D   2      39.041  54.237  56.7620  0.00  0.00     0.000 C
ATOM     34   O  GU1 D   2      38.273  53.298  56.8000  0.00  0.00     0.000 OA
ATOM     35   O  GU1 D   2      40.118  54.148  56.1930  0.00  0.00     0.000 O
ENDBRANCH 27 33
BRANCH 23 36
ATOM     36  O4  GU6 D   3      35.762  57.264  56.6290  0.00  0.00     0.000 O
BRANCH 36 40
ATOM     37  C1  GU6 D   3      32.596  56.513  54.1580  0.00  0.00     0.000 C
ATOM     38  C2  GU6 D   3      33.149  57.928  54.0430  0.00  0.00     0.000 C
ATOM     39  C3  GU6 D   3      34.461  58.019  54.7770  0.00  0.00     0.000 C
ATOM     40  C4  GU6 D   3      34.851  56.883  55.6190  0.00  0.00     0.000 C
ATOM     41  C5  GU6 D   3      33.586  56.303  56.3330  0.00  0.00     0.000 C
ATOM     42  O5  GU6 D   3      32.402  56.214  55.5320  0.00  0.00     0.000 O
BRANCH 38 43
ATOM     43   O  GU6 D   3      33.330  58.282  52.6850  0.00  0.00     0.000 O
ATOM     44   S  GU6 D   3      32.619  59.563  52.2690  0.00  0.00     0.000 S
ATOM     45   O  GU6 D   3      31.208  59.246  51.9900  0.00  0.00     0.000 OA
ATOM     46   O  GU6 D   3      32.695  60.527  53.3820  0.00  0.00     0.000 O
ATOM     47   O  GU6 D   3      33.285  60.108  51.0890  0.00  0.00     0.000 OA
ENDBRANCH 38 43
BRANCH 39 48
ATOM     48   O  GU6 D   3      35.386  59.050  54.4870  0.00  0.00     0.000 O
ATOM     49   S  GU6 D   3      36.625  59.032  53.5930  0.00  0.00     0.000 S
ATOM     50   O  GU6 D   3      36.266  58.592  52.2400  0.00  0.00     0.000 OA
ATOM     51   O  GU6 D   3      37.059  60.435  53.5970  0.00  0.00     0.000 OA
ATOM     52   O  GU6 D   3      37.625  58.110  54.1770  0.00  0.00     0.000 O
ENDBRANCH 39 48
BRANCH 41 53
ATOM     53   C  GU6 D   3      33.440  55.807  57.7470  0.00  0.00     0.000 C
ATOM     54   O  GU6 D   3      34.296  54.699  57.6500  0.00  0.00     0.000 O
ATOM     55   S  GU6 D   3      34.443  53.724  58.8260  0.00  0.00     0.000 S
ATOM     56   O  GU6 D   3      33.133  53.052  58.9900  0.00  0.00     0.000 O
ATOM     57   O  GU6 D   3      35.491  52.747  58.4960  0.00  0.00     0.000 OA
ATOM     58   O  GU6 D   3      34.782  54.527  60.0220  0.00  0.00     0.000 OA
ENDBRANCH 41 53
BRANCH 37 59
ATOM     59  O4  Z9K D   4      33.176  55.344  53.5420  0.00  0.00     0.000 O
BRANCH 59 63
ATOM     60  C1  Z9K D   4      33.976  52.779  50.6740  0.00  0.00     0.000 C
ATOM     61  C2  Z9K D   4      32.825  53.600  50.0310  0.00  0.00     0.000 C
ATOM     62  C3  Z9K D   4      32.631  54.747  51.1150  0.00  0.00     0.000 C
ATOM     63  C4  Z9K D   4      32.586  54.361  52.6420  0.00  0.00     0.000 C
ATOM     64  C5  Z9K D   4      33.324  53.072  53.0340  0.00  0.00     0.000 C
ATOM     65  O5  Z9K D   4      34.425  53.030  52.0880  0.00  0.00     0.000 O
ATOM     66   O  Z9K D   4      31.449  55.540  50.8990  0.00  0.00     0.000 O
ATOM     67   C  Z9K D   4      31.623  56.616  49.9920  0.00  0.00     0.000 C
BRANCH 61 68
ATOM     68   O  Z9K D   4      33.350  54.221  48.8900  0.00  0.00     0.000 O
ATOM     69   O  Z9K D   4      30.887  53.608  48.5600  0.00  0.00     0.000 OA
ATOM     70   S  Z9K D   4      32.235  53.235  48.2510  0.00  0.00     0.000 S
ATOM     71   O  Z9K D   4      32.750  51.900  48.2330  0.00  0.00     0.000 OA
ATOM     72   O  Z9K D   4      32.711  53.943  47.1070  0.00  0.00     0.000 OA
ENDBRANCH 61 68
BRANCH 64 73
ATOM     73   C  Z9K D   4      33.644  53.059  54.5440  0.00  0.00     0.000 C
ATOM     74   O  Z9K D   4      32.731  52.898  55.4060  0.00  0.00     0.000 O
ATOM     75   O  Z9K D   4      34.815  53.200  54.9740  0.00  0.00     0.000 OA
ENDBRANCH 64 73
BRANCH 60 76
ATOM     76  O4  Z9L D   5      34.114  51.350  50.7640  0.00  0.00     0.000 O
BRANCH 76 80
ATOM     77  C1  Z9L D   5      36.696  48.314  50.4720  0.00  0.00     0.000 C
ATOM     78  C2  Z9L D   5      36.194  48.359  51.9950  0.00  0.00     0.000 C
ATOM     79  C3  Z9L D   5      34.795  49.310  52.0170  0.00  0.00     0.000 C
ATOM     80  C4  Z9L D   5      35.234  50.540  51.0120  0.00  0.00     0.000 C
ATOM     81  C5  Z9L D   5      35.954  50.517  49.5700  0.00  0.00     0.000 C
ATOM     82  O5  Z9L D   5      36.979  49.515  49.6460  0.00  0.00     0.000 O
ATOM     83   C  Z9L D   5      36.161  47.280  48.3420  0.00  0.00     0.000 C
ATOM     84   C  Z9L D   5      36.161  47.280  48.3420  0.00  0.00     0.000 C
BRANCH 78 85
ATOM     85   O  Z9L D   5      35.870  47.062  52.3810  0.00  0.00     0.000 O
ATOM     86   O  Z9L D   5      36.845  46.014  53.6700  0.00  0.00     0.000 OA
ATOM     87   S  Z9L D   5      37.099  47.389  53.3630  0.00  0.00     0.000 S
ATOM     88   O  Z9L D   5      36.718  48.114  54.5500  0.00  0.00     0.000 OA
ATOM     89   O  Z9L D   5      38.393  47.407  52.7730  0.00  0.00     0.000 OA
ENDBRANCH 78 85
BRANCH 79 90
ATOM     90   O  Z9L D   5      34.642  49.958  53.2390  0.00  0.00     0.000 O
ATOM     91   S  Z9L D   5      33.272  49.147  53.1940  0.00  0.00     0.000 S
ATOM     92   O  Z9L D   5      33.229  47.717  53.0370  0.00  0.00     0.000 OA
ATOM     93   O  Z9L D   5      32.239  49.985  52.6390  0.00  0.00     0.000 O
ATOM     94   O  Z9L D   5      33.328  49.417  54.5940  0.00  0.00     0.000 OA
ENDBRANCH 79 90
BRANCH 81 95
ATOM     95   C  Z9L D   5      36.333  51.996  48.8750  0.00  0.00     0.000 C
ATOM     96   S  Z9L D   5      37.767  53.355  48.6240  0.00  0.00     0.000 S
ATOM     97   O  Z9L D   5      37.321  52.393  49.7880  0.00  0.00     0.000 O
ATOM     98   O  Z9L D   5      36.776  54.397  48.5450  0.00  0.00     0.000 OA
ATOM     99   O  Z9L D   5      38.269  52.719  47.4530  0.00  0.00     0.000 OA
ATOM    100   O  Z9L D   5      38.749  53.734  49.6090  0.00  0.00     0.000 O
ENDBRANCH 81 95
ENDBRANCH 76 80
ENDBRANCH 60 76
ENDBRANCH 59 63
ENDBRANCH 37 59
ENDBRANCH 36 40
ENDBRANCH 23 36
ENDBRANCH 22 26
ENDBRANCH 1 22
TORSDOF 19
ENDMDL
MODEL 30
REMARK VINA RESULT:       0.0    119.827    125.672
ROOT
ATOM      1  C1  Z9H D   1     123.765 105.247 129.7670  0.00  0.00     0.000 C
ATOM      2  C2  Z9H D   1     122.443 104.745 130.3930  0.00  0.00     0.000 C
ATOM      3  C3  Z9H D   1     121.780 106.132 130.6560  0.00  0.00     0.000 C
ATOM      4  C4  Z9H D   1     122.687 107.185 131.4170  0.00  0.00     0.000 C
ATOM      5  C5  Z9H D   1     124.187 107.483 131.0160  0.00  0.00     0.000 C
ATOM      6  O5  Z9H D   1     124.601 106.203 130.4770  0.00  0.00     0.000 O
ATOM      7   O  Z9H D   1     120.518 105.997 131.3120  0.00  0.00     0.000 O
ATOM      8   C  Z9H D   1     119.367 106.064 130.4530  0.00  0.00     0.000 C
ATOM      9   O  Z9H D   1     121.978 108.426 131.3550  0.00  0.00     0.000 O
ATOM     10   C  Z9H D   1     121.233 108.771 132.5280  0.00  0.00     0.000 C
ENDROOT
BRANCH 2 11
ATOM     11   O  Z9H D   1     121.770 104.224 129.2770  0.00  0.00     0.000 O
ATOM     12   O  Z9H D   1     121.381 102.394 129.0330  0.00  0.00     0.000 OA
ATOM     13   S  Z9H D   1     122.019 102.942 130.1820  0.00  0.00     0.000 S
ATOM     14   O  Z9H D   1     121.167 103.030 131.3330  0.00  0.00     0.000 OA
ATOM     15   O  Z9H D   1     123.415 102.570 130.2080  0.00  0.00     0.000 O
ENDBRANCH 2 11
BRANCH 5 16
ATOM     16   C  Z9H D   1     125.090 108.269 132.1860  0.00  0.00     0.000 C
ATOM     17   S  Z9H D   1     126.523 109.646 132.4860  0.00  0.00     0.000 S
ATOM     18   O  Z9H D   1     125.238 109.500 131.5190  0.00  0.00     0.000 O
ATOM     19   O  Z9H D   1     127.593 108.732 132.2080  0.00  0.00     0.000 O
ATOM     20   O  Z9H D   1     126.110 109.986 133.8020  0.00  0.00     0.000 OA
ATOM     21   O  Z9H D   1     126.651 110.864 131.7400  0.00  0.00     0.000 OA
ENDBRANCH 5 16
BRANCH 1 22
ATOM     22  O4  GU1 D   2     123.615 105.934 128.4720  0.00  0.00     0.000 O
BRANCH 22 26
ATOM     23  C1  GU1 D   2     125.321 106.565 124.7750  0.00  0.00     0.000 C
ATOM     24  C2  GU1 D   2     125.535 105.173 125.3490  0.00  0.00     0.000 C
ATOM     25  C3  GU1 D   2     124.571 104.946 126.4780  0.00  0.00     0.000 C
ATOM     26  C4  GU1 D   2     124.664 106.065 127.5050  0.00  0.00     0.000 C
ATOM     27  C5  GU1 D   2     124.541 107.425 126.8120  0.00  0.00     0.000 C
ATOM     28  O5  GU1 D   2     125.518 107.551 125.7820  0.00  0.00     0.000 O
ATOM     29   O  GU1 D   2     125.325 104.157 124.3750  0.00  0.00     0.000 O
ATOM     30   C  GU1 D   2     126.519 103.696 123.7590  0.00  0.00     0.000 C
ATOM     31   C  GU1 D   2     124.060 102.613 126.7770  0.00  0.00     0.000 C
ATOM     32   O  GU1 D   2     124.905 103.710 127.1160  0.00  0.00     0.000 O
BRANCH 27 33
ATOM     33   C  GU1 D   2     124.750 108.558 127.7890  0.00  0.00     0.000 C
ATOM     34   O  GU1 D   2     125.863 108.732 128.2420  0.00  0.00     0.000 OA
ATOM     35   O  GU1 D   2     123.819 109.281 128.1100  0.00  0.00     0.000 O
ENDBRANCH 27 33
BRANCH 23 36
ATOM     36  O4  GU6 D   3     126.277 107.118 123.8490  0.00  0.00     0.000 O
BRANCH 36 40
ATOM     37  C1  GU6 D   3     129.376 109.175 122.1580  0.00  0.00     0.000 C
ATOM     38  C2  GU6 D   3     128.234 108.874 121.1950  0.00  0.00     0.000 C
ATOM     39  C3  GU6 D   3     127.044 108.366 121.9660  0.00  0.00     0.000 C
ATOM     40  C4  GU6 D   3     127.237 108.044 123.3840  0.00  0.00     0.000 C
ATOM     41  C5  GU6 D   3     128.645 107.391 123.5850  0.00  0.00     0.000 C
ATOM     42  O5  GU6 D   3     129.718 107.980 122.8420  0.00  0.00     0.000 O
BRANCH 38 43
ATOM     43   O  GU6 D   3     127.879 110.033 120.4670  0.00  0.00     0.000 O
ATOM     44   S  GU6 D   3     127.915 109.862 118.9540  0.00  0.00     0.000 S
ATOM     45   O  GU6 D   3     129.308 110.012 118.4990  0.00  0.00     0.000 OA
ATOM     46   O  GU6 D   3     127.435 108.508 118.6220  0.00  0.00     0.000 O
ATOM     47   O  GU6 D   3     127.046 110.864 118.3460  0.00  0.00     0.000 OA
ENDBRANCH 38 43
BRANCH 39 48
ATOM     48   O  GU6 D   3     125.744 108.417 121.4110  0.00  0.00     0.000 O
ATOM     49   S  GU6 D   3     124.629 109.441 121.6190  0.00  0.00     0.000 S
ATOM     50   O  GU6 D   3     125.117 110.790 121.3100  0.00  0.00     0.000 OA
ATOM     51   O  GU6 D   3     123.601 109.015 120.6600  0.00  0.00     0.000 OA
ATOM     52   O  GU6 D   3     124.176 109.378 123.0270  0.00  0.00     0.000 O
ENDBRANCH 39 48
BRANCH 41 53
ATOM     53   C  GU6 D   3     129.035 106.235 124.4650  0.00  0.00     0.000 C
ATOM     54   O  GU6 D   3     128.778 106.843 125.7050  0.00  0.00     0.000 O
ATOM     55   S  GU6 D   3     129.122 106.119 127.0130  0.00  0.00     0.000 S
ATOM     56   O  GU6 D   3     130.597 106.000 127.0610  0.00  0.00     0.000 O
ATOM     57   O  GU6 D   3     128.628 106.926 128.1380  0.00  0.00     0.000 OA
ATOM     58   O  GU6 D   3     128.481 104.785 126.9580  0.00  0.00     0.000 OA
ENDBRANCH 41 53
BRANCH 37 59
ATOM     59  O4  Z9K D   4     129.380 110.242 123.1300  0.00  0.00     0.000 O
BRANCH 59 63
ATOM     60  C1  Z9K D   4     129.773 113.912 124.4820  0.00  0.00     0.000 C
ATOM     61  C2  Z9K D   4     130.405 114.042 123.0690  0.00  0.00     0.000 C
ATOM     62  C3  Z9K D   4     130.079 112.610 122.4590  0.00  0.00     0.000 C
ATOM     63  C4  Z9K D   4     130.332 111.326 123.3370  0.00  0.00     0.000 C
ATOM     64  C5  Z9K D   4     130.275 111.527 124.8590  0.00  0.00     0.000 C
ATOM     65  O5  Z9K D   4     129.293 112.586 125.0080  0.00  0.00     0.000 O
ATOM     66   O  Z9K D   4     130.762 112.350 121.2190  0.00  0.00     0.000 O
ATOM     67   C  Z9K D   4     130.094 112.841 120.0690  0.00  0.00     0.000 C
BRANCH 61 68
ATOM     68   O  Z9K D   4     129.627 114.961 122.3530  0.00  0.00     0.000 O
ATOM     69   O  Z9K D   4     132.088 115.100 121.6670  0.00  0.00     0.000 OA
ATOM     70   S  Z9K D   4     131.054 115.724 122.4360  0.00  0.00     0.000 S
ATOM     71   O  Z9K D   4     131.206 116.286 123.7430  0.00  0.00     0.000 OA
ATOM     72   O  Z9K D   4     130.279 116.608 121.6260  0.00  0.00     0.000 OA
ENDBRANCH 61 68
BRANCH 64 73
ATOM     73   C  Z9K D   4     130.034 110.185 125.5820  0.00  0.00     0.000 C
ATOM     74   O  Z9K D   4     130.939 109.304 125.6480  0.00  0.00     0.000 O
ATOM     75   O  Z9K D   4     128.938 109.919 126.1350  0.00  0.00     0.000 OA
ENDBRANCH 64 73
BRANCH 60 76
ATOM     76  O4  Z9L D   5     130.306 114.348 125.7440  0.00  0.00     0.000 O
BRANCH 76 80
ATOM     77  C1  Z9L D   5     129.392 116.076 129.2300  0.00  0.00     0.000 C
ATOM     78  C2  Z9L D   5     129.854 114.575 129.5560  0.00  0.00     0.000 C
ATOM     79  C3  Z9L D   5     130.663 114.007 128.1840  0.00  0.00     0.000 C
ATOM     80  C4  Z9L D   5     129.687 114.574 126.9840  0.00  0.00     0.000 C
ATOM     81  C5  Z9L D   5     129.022 116.027 126.7640  0.00  0.00     0.000 C
ATOM     82  O5  Z9L D   5     128.572 116.465 128.0550  0.00  0.00     0.000 O
ATOM     83   C  Z9L D   5     130.290 118.323 129.0350  0.00  0.00     0.000 C
ATOM     84   C  Z9L D   5     130.290 118.323 129.0350  0.00  0.00     0.000 C
BRANCH 78 85
ATOM     85   O  Z9L D   5     130.745 114.620 130.6250  0.00  0.00     0.000 O
ATOM     86   O  Z9L D   5     130.388 113.944 132.3930  0.00  0.00     0.000 OA
ATOM     87   S  Z9L D   5     129.526 113.788 131.2610  0.00  0.00     0.000 S
ATOM     88   O  Z9L D   5     129.562 112.379 130.9550  0.00  0.00     0.000 OA
ATOM     89   O  Z9L D   5     128.353 114.527 131.5790  0.00  0.00     0.000 OA
ENDBRANCH 78 85
BRANCH 79 90
ATOM     90   O  Z9L D   5     130.532 112.627 128.0530  0.00  0.00     0.000 O
ATOM     91   S  Z9L D   5     132.120 112.740 128.1090  0.00  0.00     0.000 S
ATOM     92   O  Z9L D   5     132.809 113.377 129.2000  0.00  0.00     0.000 OA
ATOM     93   O  Z9L D   5     132.642 112.801 126.7660  0.00  0.00     0.000 O
ATOM     94   O  Z9L D   5     131.980 111.360 128.4450  0.00  0.00     0.000 OA
ENDBRANCH 79 90
BRANCH 81 95
ATOM     95   C  Z9L D   5     127.993 116.212 125.4530  0.00  0.00     0.000 C
ATOM     96   S  Z9L D   5     126.091 116.192 124.8640  0.00  0.00     0.000 S
ATOM     97   O  Z9L D   5     126.955 115.383 125.9020  0.00  0.00     0.000 O
ATOM     98   O  Z9L D   5     126.493 115.748 123.5540  0.00  0.00     0.000 OA
ATOM     99   O  Z9L D   5     125.907 117.574 125.1550  0.00  0.00     0.000 OA
ATOM    100   O  Z9L D   5     125.068 115.300 125.3520  0.00  0.00     0.000 O
ENDBRANCH 81 95
ENDBRANCH 76 80
ENDBRANCH 60 76
ENDBRANCH 59 63
ENDBRANCH 37 59
ENDBRANCH 36 40
ENDBRANCH 23 36
ENDBRANCH 22 26
ENDBRANCH 1 22
TORSDOF 19
ENDMDL
MODEL 31
REMARK VINA RESULT:       0.0     92.674     98.881
ROOT
ATOM      1  C1  Z9H D   1     114.464   9.604  93.2040  0.00  0.00     0.000 C
ATOM      2  C2  Z9H D   1     114.320   8.520  94.2990  0.00  0.00     0.000 C
ATOM      3  C3  Z9H D   1     113.741   7.379  93.4070  0.00  0.00     0.000 C
ATOM      4  C4  Z9H D   1     112.505   7.785  92.5030  0.00  0.00     0.000 C
ATOM      5  C5  Z9H D   1     112.475   9.093  91.6160  0.00  0.00     0.000 C
ATOM      6  O5  Z9H D   1     113.321   9.982  92.3870  0.00  0.00     0.000 O
ATOM      7   O  Z9H D   1     113.434   6.215  94.1760  0.00  0.00     0.000 O
ATOM      8   C  Z9H D   1     114.430   5.179  94.1490  0.00  0.00     0.000 C
ATOM      9   O  Z9H D   1     112.283   6.675  91.6270  0.00  0.00     0.000 O
ATOM     10   C  Z9H D   1     111.236   5.780  92.0160  0.00  0.00     0.000 C
ENDROOT
BRANCH 2 11
ATOM     11   O  Z9H D   1     115.657   8.161  94.5310  0.00  0.00     0.000 O
ATOM     12   O  Z9H D   1     116.582   8.501  96.1390  0.00  0.00     0.000 OA
ATOM     13   S  Z9H D   1     115.213   8.817  95.9080  0.00  0.00     0.000 S
ATOM     14   O  Z9H D   1     114.294   7.926  96.5560  0.00  0.00     0.000 OA
ATOM     15   O  Z9H D   1     115.039  10.246  95.7860  0.00  0.00     0.000 O
ENDBRANCH 2 11
BRANCH 5 16
ATOM     16   C  Z9H D   1     110.954   9.566  91.1020  0.00  0.00     0.000 C
ATOM     17   S  Z9H D   1     109.918  10.321  89.5540  0.00  0.00     0.000 S
ATOM     18   O  Z9H D   1     111.100   9.237  89.7420  0.00  0.00     0.000 O
ATOM     19   O  Z9H D   1     110.293  11.676  89.8410  0.00  0.00     0.000 O
ATOM     20   O  Z9H D   1     108.671   9.759  89.9390  0.00  0.00     0.000 OA
ATOM     21   O  Z9H D   1     110.146   9.982  88.1800  0.00  0.00     0.000 OA
ENDBRANCH 5 16
BRANCH 1 22
ATOM     22  O4  GU1 D   2     115.453   9.298  92.1550  0.00  0.00     0.000 O
BRANCH 22 26
ATOM     23  C1  GU1 D   2     118.281  10.895  89.6220  0.00  0.00     0.000 C
ATOM     24  C2  GU1 D   2     118.181  11.575  90.9780  0.00  0.00     0.000 C
ATOM     25  C3  GU1 D   2     117.420  10.691  91.9230  0.00  0.00     0.000 C
ATOM     26  C4  GU1 D   2     116.079  10.286  91.3280  0.00  0.00     0.000 C
ATOM     27  C5  GU1 D   2     116.281   9.709  89.9240  0.00  0.00     0.000 C
ATOM     28  O5  GU1 D   2     116.983  10.637  89.1000  0.00  0.00     0.000 O
ATOM     29   O  GU1 D   2     119.462  11.830  91.5420  0.00  0.00     0.000 O
ATOM     30   C  GU1 D   2     119.938  13.149  91.3160  0.00  0.00     0.000 C
ATOM     31   C  GU1 D   2     118.040  11.073  94.2170  0.00  0.00     0.000 C
ATOM     32   O  GU1 D   2     117.183  11.419  93.1320  0.00  0.00     0.000 O
BRANCH 27 33
ATOM     33   C  GU1 D   2     114.958   9.410  89.2600  0.00  0.00     0.000 C
ATOM     34   O  GU1 D   2     114.646   8.249  89.0930  0.00  0.00     0.000 OA
ATOM     35   O  GU1 D   2     114.222  10.317  88.9060  0.00  0.00     0.000 O
ENDBRANCH 27 33
BRANCH 23 36
ATOM     36  O4  GU6 D   3     118.747  11.635  88.4760  0.00  0.00     0.000 O
BRANCH 36 40
ATOM     37  C1  GU6 D   3     118.969  13.836  85.0410  0.00  0.00     0.000 C
ATOM     38  C2  GU6 D   3     120.190  12.962  85.2950  0.00  0.00     0.000 C
ATOM     39  C3  GU6 D   3     119.899  12.002  86.4190  0.00  0.00     0.000 C
ATOM     40  C4  GU6 D   3     118.665  12.204  87.1850  0.00  0.00     0.000 C
ATOM     41  C5  GU6 D   3     118.410  13.737  87.3710  0.00  0.00     0.000 C
ATOM     42  O5  GU6 D   3     118.673  14.557  86.2270  0.00  0.00     0.000 O
BRANCH 38 43
ATOM     43   O  GU6 D   3     120.542  12.246  84.1270  0.00  0.00     0.000 O
ATOM     44   S  GU6 D   3     121.981  12.450  83.6730  0.00  0.00     0.000 S
ATOM     45   O  GU6 D   3     122.059  13.711  82.9150  0.00  0.00     0.000 OA
ATOM     46   O  GU6 D   3     122.843  12.542  84.8660  0.00  0.00     0.000 O
ATOM     47   O  GU6 D   3     122.382  11.311  82.8530  0.00  0.00     0.000 OA
ENDBRANCH 38 43
BRANCH 39 48
ATOM     48   O  GU6 D   3     120.659  10.819  86.5790  0.00  0.00     0.000 O
ATOM     49   S  GU6 D   3     120.354   9.390  86.1340  0.00  0.00     0.000 S
ATOM     50   O  GU6 D   3     120.089   9.355  84.6910  0.00  0.00     0.000 OA
ATOM     51   O  GU6 D   3     121.591   8.668  86.4640  0.00  0.00     0.000 OA
ATOM     52   O  GU6 D   3     119.174   8.896  86.8770  0.00  0.00     0.000 O
ENDBRANCH 39 48
BRANCH 41 53
ATOM     53   C  GU6 D   3     117.911  14.473  88.5850  0.00  0.00     0.000 C
ATOM     54   O  GU6 D   3     116.625  13.912  88.6330  0.00  0.00     0.000 O
ATOM     55   S  GU6 D   3     115.597  14.408  89.6590  0.00  0.00     0.000 S
ATOM     56   O  GU6 D   3     115.277  15.809  89.3000  0.00  0.00     0.000 O
ATOM     57   O  GU6 D   3     114.399  13.562  89.5680  0.00  0.00     0.000 OA
ATOM     58   O  GU6 D   3     116.236  14.333  90.9920  0.00  0.00     0.000 OA
ENDBRANCH 41 53
BRANCH 37 59
ATOM     59  O4  Z9K D   4     117.715  13.370  84.4980  0.00  0.00     0.000 O
BRANCH 59 63
ATOM     60  C1  Z9K D   4     115.150  12.262  81.7340  0.00  0.00     0.000 C
ATOM     61  C2  Z9K D   4     116.272  12.895  80.8660  0.00  0.00     0.000 C
ATOM     62  C3  Z9K D   4     117.385  13.173  81.9680  0.00  0.00     0.000 C
ATOM     63  C4  Z9K D   4     116.962  13.829  83.3380  0.00  0.00     0.000 C
ATOM     64  C5  Z9K D   4     115.508  13.596  83.7770  0.00  0.00     0.000 C
ATOM     65  O5  Z9K D   4     115.215  12.280  83.2370  0.00  0.00     0.000 O
ATOM     66   O  Z9K D   4     118.470  13.987  81.4880  0.00  0.00     0.000 O
ATOM     67   C  Z9K D   4     119.498  13.265  80.8300  0.00  0.00     0.000 C
BRANCH 61 68
ATOM     68   O  Z9K D   4     116.778  11.879  80.0440  0.00  0.00     0.000 O
ATOM     69   O  Z9K D   4     116.837  14.146  78.8580  0.00  0.00     0.000 OA
ATOM     70   S  Z9K D   4     116.139  12.900  78.9610  0.00  0.00     0.000 S
ATOM     71   O  Z9K D   4     114.718  12.734  78.9450  0.00  0.00     0.000 OA
ATOM     72   O  Z9K D   4     116.743  11.909  78.1300  0.00  0.00     0.000 OA
ENDBRANCH 61 68
BRANCH 64 73
ATOM     73   C  Z9K D   4     115.349  13.827  85.2950  0.00  0.00     0.000 C
ATOM     74   O  Z9K D   4     115.168  12.860  86.0900  0.00  0.00     0.000 O
ATOM     75   O  Z9K D   4     115.400  14.976  85.7970  0.00  0.00     0.000 OA
ENDBRANCH 64 73
BRANCH 60 76
ATOM     76  O4  Z9L D   5     113.733  12.503  81.6790  0.00  0.00     0.000 O
BRANCH 76 80
ATOM     77  C1  Z9L D   5     110.136  10.773  81.8630  0.00  0.00     0.000 C
ATOM     78  C2  Z9L D   5     110.252  11.751  83.1290  0.00  0.00     0.000 C
ATOM     79  C3  Z9L D   5     111.538  12.803  82.8130  0.00  0.00     0.000 C
ATOM     80  C4  Z9L D   5     112.646  11.765  82.1750  0.00  0.00     0.000 C
ATOM     81  C5  Z9L D   5     112.491  10.612  81.0580  0.00  0.00     0.000 C
ATOM     82  O5  Z9L D   5     111.251   9.945  81.3370  0.00  0.00     0.000 O
ATOM     83   C  Z9L D   5     109.365  10.755  79.5610  0.00  0.00     0.000 C
ATOM     84   C  Z9L D   5     109.365  10.755  79.5610  0.00  0.00     0.000 C
BRANCH 78 85
ATOM     85   O  Z9L D   5     109.073  12.484  83.2180  0.00  0.00     0.000 O
ATOM     86   O  Z9L D   5     107.752  12.295  84.6070  0.00  0.00     0.000 OA
ATOM     87   S  Z9L D   5     109.022  11.634  84.5800  0.00  0.00     0.000 S
ATOM     88   O  Z9L D   5     109.773  12.222  85.6610  0.00  0.00     0.000 OA
ATOM     89   O  Z9L D   5     108.721  10.250  84.4520  0.00  0.00     0.000 OA
ENDBRANCH 78 85
BRANCH 79 90
ATOM     90   O  Z9L D   5     112.154  13.218  83.9900  0.00  0.00     0.000 O
ATOM     91   S  Z9L D   5     111.736  14.635  83.3950  0.00  0.00     0.000 S
ATOM     92   O  Z9L D   5     110.375  14.954  83.0500  0.00  0.00     0.000 OA
ATOM     93   O  Z9L D   5     112.839  15.182  82.6450  0.00  0.00     0.000 O
ATOM     94   O  Z9L D   5     111.926  15.010  84.7580  0.00  0.00     0.000 OA
ENDBRANCH 79 90
BRANCH 81 95
ATOM     95   C  Z9L D   5     113.843   9.679  80.7230  0.00  0.00     0.000 C
ATOM     96   S  Z9L D   5     114.785   7.974  81.1360  0.00  0.00     0.000 S
ATOM     97   O  Z9L D   5     113.931   9.014  81.9540  0.00  0.00     0.000 O
ATOM     98   O  Z9L D   5     116.054   8.600  80.8650  0.00  0.00     0.000 OA
ATOM     99   O  Z9L D   5     114.084   7.254  80.1270  0.00  0.00     0.000 OA
ATOM    100   O  Z9L D   5     114.856   7.344  82.4310  0.00  0.00     0.000 O
ENDBRANCH 81 95
ENDBRANCH 76 80
ENDBRANCH 60 76
ENDBRANCH 59 63
ENDBRANCH 37 59
ENDBRANCH 36 40
ENDBRANCH 23 36
ENDBRANCH 22 26
ENDBRANCH 1 22
TORSDOF 19
ENDMDL
MODEL 32
REMARK VINA RESULT:       0.0     53.771     60.718
ROOT
ATOM      1  C1  Z9H D   1      65.372  98.899  42.1620  0.00  0.00     0.000 C
ATOM      2  C2  Z9H D   1      64.777  97.478  42.3070  0.00  0.00     0.000 C
ATOM      3  C3  Z9H D   1      63.610  97.620  41.2820  0.00  0.00     0.000 C
ATOM      4  C4  Z9H D   1      62.696  98.902  41.4670  0.00  0.00     0.000 C
ATOM      5  C5  Z9H D   1      63.280 100.356  41.6720  0.00  0.00     0.000 C
ATOM      6  O5  Z9H D   1      64.531 100.072  42.3460  0.00  0.00     0.000 O
ATOM      7   O  Z9H D   1      62.806  96.440  41.2340  0.00  0.00     0.000 O
ATOM      8   C  Z9H D   1      63.102  95.537  40.1550  0.00  0.00     0.000 C
ATOM      9   O  Z9H D   1      61.849  98.944  40.3150  0.00  0.00     0.000 O
ATOM     10   C  Z9H D   1      60.527  98.428  40.5010  0.00  0.00     0.000 C
ENDROOT
BRANCH 2 11
ATOM     11   O  Z9H D   1      65.740  96.690  41.6560  0.00  0.00     0.000 O
ATOM     12   O  Z9H D   1      66.844  95.432  42.5260  0.00  0.00     0.000 OA
ATOM     13   S  Z9H D   1      65.830  96.202  43.1650  0.00  0.00     0.000 S
ATOM     14   O  Z9H D   1      64.642  95.458  43.4700  0.00  0.00     0.000 OA
ATOM     15   O  Z9H D   1      66.423  97.208  44.0170  0.00  0.00     0.000 O
ENDBRANCH 2 11
BRANCH 5 16
ATOM     16   C  Z9H D   1      62.196 101.475  42.2830  0.00  0.00     0.000 C
ATOM     17   S  Z9H D   1      61.598 103.391  42.1780  0.00  0.00     0.000 S
ATOM     18   O  Z9H D   1      62.052 102.258  41.1230  0.00  0.00     0.000 O
ATOM     19   O  Z9H D   1      62.643 103.864  43.0410  0.00  0.00     0.000 O
ATOM     20   O  Z9H D   1      60.272 103.144  42.6240  0.00  0.00     0.000 OA
ATOM     21   O  Z9H D   1      61.518 104.154  40.9670  0.00  0.00     0.000 OA
ENDBRANCH 5 16
BRANCH 1 22
ATOM     22  O4  GU1 D   2      65.956  99.194  40.8410  0.00  0.00     0.000 O
BRANCH 22 26
ATOM     23  C1  GU1 D   2      68.973 101.175  38.8560  0.00  0.00     0.000 C
ATOM     24  C2  GU1 D   2      69.366 100.604  40.2100  0.00  0.00     0.000 C
ATOM     25  C3  GU1 D   2      68.335  99.603  40.6460  0.00  0.00     0.000 C
ATOM     26  C4  GU1 D   2      66.939 100.209  40.6060  0.00  0.00     0.000 C
ATOM     27  C5  GU1 D   2      66.683 100.847  39.2370  0.00  0.00     0.000 C
ATOM     28  O5  GU1 D   2      67.698 101.801  38.9350  0.00  0.00     0.000 O
ATOM     29   O  GU1 D   2      70.629  99.949  40.1650  0.00  0.00     0.000 O
ATOM     30   C  GU1 D   2      71.712 100.761  40.5960  0.00  0.00     0.000 C
ATOM     31   C  GU1 D   2      69.255  97.939  42.1210  0.00  0.00     0.000 C
ATOM     32   O  GU1 D   2      68.625  99.212  41.9910  0.00  0.00     0.000 O
BRANCH 27 33
ATOM     33   C  GU1 D   2      65.353 101.561  39.2070  0.00  0.00     0.000 C
ATOM     34   O  GU1 D   2      64.460 101.092  38.5320  0.00  0.00     0.000 OA
ATOM     35   O  GU1 D   2      65.183 102.584  39.8520  0.00  0.00     0.000 O
ENDBRANCH 27 33
BRANCH 23 36
ATOM     36  O4  GU6 D   3      69.663 102.328  38.3330  0.00  0.00     0.000 O
BRANCH 36 40
ATOM     37  C1  GU6 D   3      70.731 106.131  37.2890  0.00  0.00     0.000 C
ATOM     38  C2  GU6 D   3      71.318 105.054  36.3860  0.00  0.00     0.000 C
ATOM     39  C3  GU6 D   3      70.656 103.733  36.6800  0.00  0.00     0.000 C
ATOM     40  C4  GU6 D   3      69.787 103.654  37.8590  0.00  0.00     0.000 C
ATOM     41  C5  GU6 D   3      70.402 104.503  39.0200  0.00  0.00     0.000 C
ATOM     42  O5  GU6 D   3      70.964 105.765  38.6400  0.00  0.00     0.000 O
BRANCH 38 43
ATOM     43   O  GU6 D   3      71.136 105.392  35.0240  0.00  0.00     0.000 O
ATOM     44   S  GU6 D   3      72.420 105.421  34.2060  0.00  0.00     0.000 S
ATOM     45   O  GU6 D   3      73.090 106.714  34.4310  0.00  0.00     0.000 OA
ATOM     46   O  GU6 D   3      73.296 104.329  34.6670  0.00  0.00     0.000 O
ATOM     47   O  GU6 D   3      72.085 105.233  32.7980  0.00  0.00     0.000 OA
ENDBRANCH 38 43
BRANCH 39 48
ATOM     48   O  GU6 D   3      70.682 102.681  35.7340  0.00  0.00     0.000 O
ATOM     49   S  GU6 D   3      69.627 102.252  34.7150  0.00  0.00     0.000 S
ATOM     50   O  GU6 D   3      69.261 103.386  33.8590  0.00  0.00     0.000 OA
ATOM     51   O  GU6 D   3      70.314 101.206  33.9450  0.00  0.00     0.000 OA
ATOM     52   O  GU6 D   3      68.435 101.757  35.4380  0.00  0.00     0.000 O
ENDBRANCH 39 48
BRANCH 41 53
ATOM     53   C  GU6 D   3      70.474 104.187  40.4890  0.00  0.00     0.000 C
ATOM     54   O  GU6 D   3      69.096 104.207  40.7570  0.00  0.00     0.000 O
ATOM     55   S  GU6 D   3      68.579 104.048  42.1930  0.00  0.00     0.000 S
ATOM     56   O  GU6 D   3      69.026 105.245  42.9420  0.00  0.00     0.000 O
ATOM     57   O  GU6 D   3      67.111 103.976  42.1570  0.00  0.00     0.000 OA
ATOM     58   O  GU6 D   3      69.187 102.817  42.7450  0.00  0.00     0.000 OA
ENDBRANCH 41 53
BRANCH 37 59
ATOM     59  O4  Z9K D   4      69.381 106.636  37.2080  0.00  0.00     0.000 O
BRANCH 59 63
ATOM     60  C1  Z9K D   4      66.394 108.805  35.8570  0.00  0.00     0.000 C
ATOM     61  C2  Z9K D   4      67.603 109.488  35.1590  0.00  0.00     0.000 C
ATOM     62  C3  Z9K D   4      68.781 108.499  35.5590  0.00  0.00     0.000 C
ATOM     63  C4  Z9K D   4      68.892 108.000  37.0500  0.00  0.00     0.000 C
ATOM     64  C5  Z9K D   4      67.582 107.974  37.8520  0.00  0.00     0.000 C
ATOM     65  O5  Z9K D   4      66.588 107.679  36.8350  0.00  0.00     0.000 O
ATOM     66   O  Z9K D   4      70.088 109.013  35.2440  0.00  0.00     0.000 O
ATOM     67   C  Z9K D   4      70.512 108.761  33.9140  0.00  0.00     0.000 C
BRANCH 61 68
ATOM     68   O  Z9K D   4      67.417 109.341  33.7780  0.00  0.00     0.000 O
ATOM     69   O  Z9K D   4      68.578 111.555  34.3250  0.00  0.00     0.000 OA
ATOM     70   S  Z9K D   4      67.334 110.949  33.9570  0.00  0.00     0.000 S
ATOM     71   O  Z9K D   4      66.049 111.293  34.4830  0.00  0.00     0.000 OA
ATOM     72   O  Z9K D   4      67.242 110.792  32.5420  0.00  0.00     0.000 OA
ENDBRANCH 61 68
BRANCH 64 73
ATOM     73   C  Z9K D   4      67.701 107.031  39.0680  0.00  0.00     0.000 C
ATOM     74   O  Z9K D   4      68.406 107.342  40.0720  0.00  0.00     0.000 O
ATOM     75   O  Z9K D   4      67.101 105.929  39.1120  0.00  0.00     0.000 OA
ENDBRANCH 64 73
BRANCH 60 76
ATOM     76  O4  Z9L D   5      65.326 109.418  36.5990  0.00  0.00     0.000 O
BRANCH 76 80
ATOM     77  C1  Z9L D   5      61.389 109.344  37.2800  0.00  0.00     0.000 C
ATOM     78  C2  Z9L D   5      62.111 108.946  38.6560  0.00  0.00     0.000 C
ATOM     79  C3  Z9L D   5      63.729 109.416  38.5090  0.00  0.00     0.000 C
ATOM     80  C4  Z9L D   5      64.058 108.940  36.9660  0.00  0.00     0.000 C
ATOM     81  C5  Z9L D   5      63.221 109.135  35.6010  0.00  0.00     0.000 C
ATOM     82  O5  Z9L D   5      61.844 108.907  35.9360  0.00  0.00     0.000 O
ATOM     83   C  Z9L D   5      60.542 111.284  36.0900  0.00  0.00     0.000 C
ATOM     84   C  Z9L D   5      60.542 111.284  36.0900  0.00  0.00     0.000 C
BRANCH 78 85
ATOM     85   O  Z9L D   5      61.516 109.673  39.6820  0.00  0.00     0.000 O
ATOM     86   O  Z9L D   5      60.411 108.925  41.0720  0.00  0.00     0.000 OA
ATOM     87   S  Z9L D   5      61.126 108.168  40.0900  0.00  0.00     0.000 S
ATOM     88   O  Z9L D   5      62.157 107.479  40.8260  0.00  0.00     0.000 OA
ATOM     89   O  Z9L D   5      60.124 107.538  39.3010  0.00  0.00     0.000 OA
ENDBRANCH 78 85
BRANCH 79 90
ATOM     90   O  Z9L D   5      64.566 108.598  39.2630  0.00  0.00     0.000 O
ATOM     91   S  Z9L D   5      64.918 110.009  39.9100  0.00  0.00     0.000 S
ATOM     92   O  Z9L D   5      63.914 110.868  40.4810  0.00  0.00     0.000 OA
ATOM     93   O  Z9L D   5      66.078 110.560  39.2530  0.00  0.00     0.000 O
ATOM     94   O  Z9L D   5      65.390 109.158  40.9540  0.00  0.00     0.000 OA
ENDBRANCH 79 90
BRANCH 81 95
ATOM     95   C  Z9L D   5      63.836 108.421  34.2140  0.00  0.00     0.000 C
ATOM     96   S  Z9L D   5      63.751 106.817  33.0360  0.00  0.00     0.000 S
ATOM     97   O  Z9L D   5      63.651 107.082  34.5850  0.00  0.00     0.000 O
ATOM     98   O  Z9L D   5      65.133 107.003  32.6720  0.00  0.00     0.000 OA
ATOM     99   O  Z9L D   5      62.698 107.359  32.2460  0.00  0.00     0.000 OA
ATOM    100   O  Z9L D   5      63.576 105.456  33.4800  0.00  0.00     0.000 O
ENDBRANCH 81 95
ENDBRANCH 76 80
ENDBRANCH 60 76
ENDBRANCH 59 63
ENDBRANCH 37 59
ENDBRANCH 36 40
ENDBRANCH 23 36
ENDBRANCH 22 26
ENDBRANCH 1 22
TORSDOF 19
ENDMDL
MODEL 33
REMARK VINA RESULT:       0.0     60.856     67.746
ROOT
ATOM      1  C1  Z9H D   1      41.541  57.610 122.2320  0.00  0.00     0.000 C
ATOM      2  C2  Z9H D   1      40.031  57.770 121.9370  0.00  0.00     0.000 C
ATOM      3  C3  Z9H D   1      39.497  56.675 122.9120  0.00  0.00     0.000 C
ATOM      4  C4  Z9H D   1      40.199  55.260 122.7940  0.00  0.00     0.000 C
ATOM      5  C5  Z9H D   1      41.768  55.075 122.7440  0.00  0.00     0.000 C
ATOM      6  O5  Z9H D   1      42.183  56.310 122.1080  0.00  0.00     0.000 O
ATOM      7   O  Z9H D   1      38.078  56.536 122.8200  0.00  0.00     0.000 O
ATOM      8   C  Z9H D   1      37.324  57.227 123.8300  0.00  0.00     0.000 C
ATOM      9   O  Z9H D   1      39.719  54.494 123.9040  0.00  0.00     0.000 O
ATOM     10   C  Z9H D   1      38.656  53.582 123.6100  0.00  0.00     0.000 C
ENDROOT
BRANCH 2 11
ATOM     11   O  Z9H D   1      39.739  58.991 122.5630  0.00  0.00     0.000 O
ATOM     12   O  Z9H D   1      39.236  60.560 121.6430  0.00  0.00     0.000 OA
ATOM     13   S  Z9H D   1      39.489  59.302 121.0250  0.00  0.00     0.000 S
ATOM     14   O  Z9H D   1      38.301  58.609 120.6130  0.00  0.00     0.000 OA
ATOM     15   O  Z9H D   1      40.726  59.346 120.2810  0.00  0.00     0.000 O
ENDBRANCH 2 11
BRANCH 5 16
ATOM     16   C  Z9H D   1      42.289  53.588 122.1790  0.00  0.00     0.000 C
ATOM     17   S  Z9H D   1      43.683  52.157 122.4020  0.00  0.00     0.000 S
ATOM     18   O  Z9H D   1      42.817  53.098 123.3870  0.00  0.00     0.000 O
ATOM     19   O  Z9H D   1      44.658  52.850 121.6100  0.00  0.00     0.000 O
ATOM     20   O  Z9H D   1      42.875  51.102 121.8960  0.00  0.00     0.000 OA
ATOM     21   O  Z9H D   1      44.219  51.732 123.6610  0.00  0.00     0.000 OA
ENDBRANCH 5 16
BRANCH 1 22
ATOM     22  O4  GU1 D   2      41.947  57.979 123.6000  0.00  0.00     0.000 O
BRANCH 22 26
ATOM     23  C1  GU1 D   2      44.917  59.688 125.8870  0.00  0.00     0.000 C
ATOM     24  C2  GU1 D   2      44.738  60.303 124.5070  0.00  0.00     0.000 C
ATOM     25  C3  GU1 D   2      43.417  59.874 123.9390  0.00  0.00     0.000 C
ATOM     26  C4  GU1 D   2      43.279  58.359 123.9680  0.00  0.00     0.000 C
ATOM     27  C5  GU1 D   2      43.580  57.832 125.3740  0.00  0.00     0.000 C
ATOM     28  O5  GU1 D   2      44.866  58.268 125.8050  0.00  0.00     0.000 O
ATOM     29   O  GU1 D   2      44.762  61.725 124.5520  0.00  0.00     0.000 O
ATOM     30   C  GU1 D   2      46.030  62.289 124.2440  0.00  0.00     0.000 C
ATOM     31   C  GU1 D   2      42.546  61.474 122.3660  0.00  0.00     0.000 C
ATOM     32   O  GU1 D   2      43.346  60.314 122.5790  0.00  0.00     0.000 O
BRANCH 27 33
ATOM     33   C  GU1 D   2      43.568  56.322 125.4060  0.00  0.00     0.000 C
ATOM     34   O  GU1 D   2      44.461  55.726 124.8390  0.00  0.00     0.000 OA
ATOM     35   O  GU1 D   2      42.683  55.720 125.9930  0.00  0.00     0.000 O
ENDBRANCH 27 33
BRANCH 23 36
ATOM     36  O4  GU6 D   3      46.201  59.744 126.5400  0.00  0.00     0.000 O
BRANCH 36 40
ATOM     37  C1  GU6 D   3      49.928  58.868 127.9660  0.00  0.00     0.000 C
ATOM     38  C2  GU6 D   3      49.175  59.899 128.7970  0.00  0.00     0.000 C
ATOM     39  C3  GU6 D   3      47.735  59.948 128.3560  0.00  0.00     0.000 C
ATOM     40  C4  GU6 D   3      47.371  59.221 127.1350  0.00  0.00     0.000 C
ATOM     41  C5  GU6 D   3      48.523  59.355 126.0840  0.00  0.00     0.000 C
ATOM     42  O5  GU6 D   3      49.854  59.247 126.6000  0.00  0.00     0.000 O
BRANCH 38 43
ATOM     43   O  GU6 D   3      49.248  59.579 130.1730  0.00  0.00     0.000 O
ATOM     44   S  GU6 D   3      49.796  60.696 131.0510  0.00  0.00     0.000 S
ATOM     45   O  GU6 D   3      51.267  60.673 130.9740  0.00  0.00     0.000 OA
ATOM     46   O  GU6 D   3      49.300  61.986 130.5370  0.00  0.00     0.000 O
ATOM     47   O  GU6 D   3      49.332  60.491 132.4190  0.00  0.00     0.000 OA
ENDBRANCH 38 43
BRANCH 39 48
ATOM     48   O  GU6 D   3      46.733  60.474 129.2050  0.00  0.00     0.000 O
ATOM     49   S  GU6 D   3      45.753  59.753 130.1300  0.00  0.00     0.000 S
ATOM     50   O  GU6 D   3      46.484  58.888 131.0650  0.00  0.00     0.000 OA
ATOM     51   O  GU6 D   3      45.088  60.856 130.8370  0.00  0.00     0.000 OA
ATOM     52   O  GU6 D   3      44.827  58.942 129.3100  0.00  0.00     0.000 O
ENDBRANCH 39 48
BRANCH 41 53
ATOM     53   C  GU6 D   3      48.428  59.568 124.5980  0.00  0.00     0.000 C
ATOM     54   O  GU6 D   3      47.826  58.343 124.2680  0.00  0.00     0.000 O
ATOM     55   S  GU6 D   3      47.591  57.962 122.8000  0.00  0.00     0.000 S
ATOM     56   O  GU6 D   3      48.926  57.793 122.1820  0.00  0.00     0.000 O
ATOM     57   O  GU6 D   3      46.835  56.702 122.7580  0.00  0.00     0.000 OA
ATOM     58   O  GU6 D   3      46.851  59.079 122.1700  0.00  0.00     0.000 OA
ENDBRANCH 41 53
BRANCH 37 59
ATOM     59  O4  Z9K D   4      49.721  57.442 128.0280  0.00  0.00     0.000 O
BRANCH 59 63
ATOM     60  C1  Z9K D   4      50.063  53.788 129.4350  0.00  0.00     0.000 C
ATOM     61  C2  Z9K D   4      51.167  54.526 130.2420  0.00  0.00     0.000 C
ATOM     62  C3  Z9K D   4      50.902  56.032 129.8070  0.00  0.00     0.000 C
ATOM     63  C4  Z9K D   4      50.665  56.361 128.2840  0.00  0.00     0.000 C
ATOM     64  C5  Z9K D   4      50.097  55.219 127.4270  0.00  0.00     0.000 C
ATOM     65  O5  Z9K D   4      49.267  54.491 128.3700  0.00  0.00     0.000 O
ATOM     66   O  Z9K D   4      51.942  56.936 130.2230  0.00  0.00     0.000 O
ATOM     67   C  Z9K D   4      51.792  57.434 131.5420  0.00  0.00     0.000 C
BRANCH 61 68
ATOM     68   O  Z9K D   4      50.814  54.439 131.5950  0.00  0.00     0.000 O
ATOM     69   O  Z9K D   4      53.355  54.412 131.2980  0.00  0.00     0.000 OA
ATOM     70   S  Z9K D   4      52.202  53.604 131.5570  0.00  0.00     0.000 S
ATOM     71   O  Z9K D   4      51.950  52.306 131.0110  0.00  0.00     0.000 OA
ATOM     72   O  Z9K D   4      51.882  53.605 132.9480  0.00  0.00     0.000 OA
ENDBRANCH 61 68
BRANCH 64 73
ATOM     73   C  Z9K D   4      49.450  55.769 126.1390  0.00  0.00     0.000 C
ATOM     74   O  Z9K D   4      50.155  56.236 125.1980  0.00  0.00     0.000 O
ATOM     75   O  Z9K D   4      48.206  55.768 125.9710  0.00  0.00     0.000 OA
ENDBRANCH 64 73
BRANCH 60 76
ATOM     76  O4  Z9L D   5      50.164  52.553 128.7040  0.00  0.00     0.000 O
BRANCH 76 80
ATOM     77  C1  Z9L D   5      48.296  49.124 127.8520  0.00  0.00     0.000 C
ATOM     78  C2  Z9L D   5      48.422  49.944 126.4800  0.00  0.00     0.000 C
ATOM     79  C3  Z9L D   5      49.587  51.143 126.7350  0.00  0.00     0.000 C
ATOM     80  C4  Z9L D   5      49.179  51.664 128.2440  0.00  0.00     0.000 C
ATOM     81  C5  Z9L D   5      48.822  50.840 129.5830  0.00  0.00     0.000 C
ATOM     82  O5  Z9L D   5      48.001  49.737 129.1720  0.00  0.00     0.000 O
ATOM     83   C  Z9L D   5      49.477  47.460 129.1670  0.00  0.00     0.000 C
ATOM     84   C  Z9L D   5      49.477  47.460 129.1670  0.00  0.00     0.000 C
BRANCH 78 85
ATOM     85   O  Z9L D   5      48.874  49.071 125.4950  0.00  0.00     0.000 O
ATOM     86   O  Z9L D   5      47.832  48.459 123.9950  0.00  0.00     0.000 OA
ATOM     87   S  Z9L D   5      47.415  49.451 124.9380  0.00  0.00     0.000 S
ATOM     88   O  Z9L D   5      47.381  50.685 124.1930  0.00  0.00     0.000 OA
ATOM     89   O  Z9L D   5      46.308  48.877 125.6210  0.00  0.00     0.000 OA
ENDBRANCH 78 85
BRANCH 79 90
ATOM     90   O  Z9L D   5      49.341  52.266 125.9500  0.00  0.00     0.000 O
ATOM     91   S  Z9L D   5      50.806  51.903 125.4440  0.00  0.00     0.000 S
ATOM     92   O  Z9L D   5      51.137  50.609 124.9060  0.00  0.00     0.000 OA
ATOM     93   O  Z9L D   5      51.773  52.663 126.1960  0.00  0.00     0.000 O
ATOM     94   O  Z9L D   5      50.385  52.720 124.3510  0.00  0.00     0.000 OA
ENDBRANCH 79 90
BRANCH 81 95
ATOM     95   C  Z9L D   5      48.356  51.725 130.9300  0.00  0.00     0.000 C
ATOM     96   S  Z9L D   5      46.799  52.419 131.9610  0.00  0.00     0.000 S
ATOM     97   O  Z9L D   5      47.131  52.199 130.4370  0.00  0.00     0.000 O
ATOM     98   O  Z9L D   5      47.582  53.547 132.3970  0.00  0.00     0.000 OA
ATOM     99   O  Z9L D   5      46.699  51.237 132.7490  0.00  0.00     0.000 OA
ATOM    100   O  Z9L D   5      45.567  52.911 131.3960  0.00  0.00     0.000 O
ENDBRANCH 81 95
ENDBRANCH 76 80
ENDBRANCH 60 76
ENDBRANCH 59 63
ENDBRANCH 37 59
ENDBRANCH 36 40
ENDBRANCH 23 36
ENDBRANCH 22 26
ENDBRANCH 1 22
TORSDOF 19
ENDMDL
MODEL 34
REMARK VINA RESULT:       0.0     83.949     90.126
ROOT
ATOM      1  C1  Z9H D   1      64.985 108.498 130.9280  0.00  0.00     0.000 C
ATOM      2  C2  Z9H D   1      63.892 109.424 130.3430  0.00  0.00     0.000 C
ATOM      3  C3  Z9H D   1      63.512 108.562 129.1000  0.00  0.00     0.000 C
ATOM      4  C4  Z9H D   1      64.730 108.084 128.2070  0.00  0.00     0.000 C
ATOM      5  C5  Z9H D   1      66.040 107.433 128.8080  0.00  0.00     0.000 C
ATOM      6  O5  Z9H D   1      66.108 108.074 130.1070  0.00  0.00     0.000 O
ATOM      7   O  Z9H D   1      62.527 109.209 128.2920  0.00  0.00     0.000 O
ATOM      8   C  Z9H D   1      61.174 108.772 128.5020  0.00  0.00     0.000 C
ATOM      9   O  Z9H D   1      64.184 107.147 127.2730  0.00  0.00     0.000 O
ATOM     10   C  Z9H D   1      63.907 107.665 125.9680  0.00  0.00     0.000 C
ENDROOT
BRANCH 2 11
ATOM     11   O  Z9H D   1      62.838 109.242 131.2510  0.00  0.00     0.000 O
ATOM     12   O  Z9H D   1      62.187 110.586 132.4040  0.00  0.00     0.000 OA
ATOM     13   S  Z9H D   1      63.224 110.770 131.4440  0.00  0.00     0.000 S
ATOM     14   O  Z9H D   1      62.810 111.492 130.2750  0.00  0.00     0.000 OA
ATOM     15   O  Z9H D   1      64.500 110.919 132.1040  0.00  0.00     0.000 O
ENDBRANCH 2 11
BRANCH 5 16
ATOM     16   C  Z9H D   1      67.358 107.412 127.7770  0.00  0.00     0.000 C
ATOM     17   S  Z9H D   1      68.955 106.339 127.1960  0.00  0.00     0.000 S
ATOM     18   O  Z9H D   1      67.417 106.021 127.5700  0.00  0.00     0.000 O
ATOM     19   O  Z9H D   1      69.766 106.772 128.2980  0.00  0.00     0.000 O
ATOM     20   O  Z9H D   1      69.036 106.910 125.8970  0.00  0.00     0.000 OA
ATOM     21   O  Z9H D   1      68.968 104.913 127.0490  0.00  0.00     0.000 OA
ENDBRANCH 5 16
BRANCH 1 22
ATOM     22  O4  GU1 D   2      64.498 107.193 131.4090  0.00  0.00     0.000 O
BRANCH 22 26
ATOM     23  C1  GU1 D   2      64.961 104.274 134.2790  0.00  0.00     0.000 C
ATOM     24  C2  GU1 D   2      65.193 105.695 134.7690  0.00  0.00     0.000 C
ATOM     25  C3  GU1 D   2      64.632 106.664 133.7680  0.00  0.00     0.000 C
ATOM     26  C4  GU1 D   2      65.181 106.387 132.3760  0.00  0.00     0.000 C
ATOM     27  C5  GU1 D   2      64.991 104.909 132.0220  0.00  0.00     0.000 C
ATOM     28  O5  GU1 D   2      65.585 104.078 133.0160  0.00  0.00     0.000 O
ATOM     29   O  GU1 D   2      64.563 105.936 136.0220  0.00  0.00     0.000 O
ATOM     30   C  GU1 D   2      65.430 105.792 137.1380  0.00  0.00     0.000 C
ATOM     31   C  GU1 D   2      63.988 108.747 134.7890  0.00  0.00     0.000 C
ATOM     32   O  GU1 D   2      65.016 107.987 134.1570  0.00  0.00     0.000 O
BRANCH 27 33
ATOM     33   C  GU1 D   2      65.634 104.578 130.6960  0.00  0.00     0.000 C
ATOM     34   O  GU1 D   2      66.845 104.585 130.6240  0.00  0.00     0.000 OA
ATOM     35   O  GU1 D   2      64.947 104.306 129.7240  0.00  0.00     0.000 O
ENDBRANCH 27 33
BRANCH 23 36
ATOM     36  O4  GU6 D   3      65.617 103.170 134.9320  0.00  0.00     0.000 O
BRANCH 36 40
ATOM     37  C1  GU6 D   3      68.203 100.169 135.9360  0.00  0.00     0.000 C
ATOM     38  C2  GU6 D   3      66.783  99.959 136.4470  0.00  0.00     0.000 C
ATOM     39  C3  GU6 D   3      65.861 100.962 135.8040  0.00  0.00     0.000 C
ATOM     40  C4  GU6 D   3      66.470 102.047 135.0260  0.00  0.00     0.000 C
ATOM     41  C5  GU6 D   3      67.783 102.522 135.7320  0.00  0.00     0.000 C
ATOM     42  O5  GU6 D   3      68.614 101.486 136.2690  0.00  0.00     0.000 O
BRANCH 38 43
ATOM     43   O  GU6 D   3      66.341  98.646 136.1640  0.00  0.00     0.000 O
ATOM     44   S  GU6 D   3      65.862  97.867 137.3820  0.00  0.00     0.000 S
ATOM     45   O  GU6 D   3      67.037  97.314 138.0770  0.00  0.00     0.000 OA
ATOM     46   O  GU6 D   3      65.150  98.792 138.2820  0.00  0.00     0.000 O
ATOM     47   O  GU6 D   3      64.960  96.809 136.9380  0.00  0.00     0.000 OA
ENDBRANCH 38 43
BRANCH 39 48
ATOM     48   O  GU6 D   3      64.465 100.737 135.7530  0.00  0.00     0.000 O
ATOM     49   S  GU6 D   3      63.602 100.181 134.6210  0.00  0.00     0.000 S
ATOM     50   O  GU6 D   3      64.110  98.873 134.1940  0.00  0.00     0.000 OA
ATOM     51   O  GU6 D   3      62.276 100.059 135.2430  0.00  0.00     0.000 OA
ATOM     52   O  GU6 D   3      63.630 101.131 133.4860  0.00  0.00     0.000 O
ENDBRANCH 39 48
BRANCH 41 53
ATOM     53   C  GU6 D   3      68.308 103.921 135.9140  0.00  0.00     0.000 C
ATOM     54   O  GU6 D   3      68.540 104.215 134.5610  0.00  0.00     0.000 O
ATOM     55   S  GU6 D   3      69.209 105.535 134.1550  0.00  0.00     0.000 S
ATOM     56   O  GU6 D   3      70.596 105.488 134.6730  0.00  0.00     0.000 O
ATOM     57   O  GU6 D   3      69.205 105.631 132.6880  0.00  0.00     0.000 OA
ATOM     58   O  GU6 D   3      68.441 106.630 134.7900  0.00  0.00     0.000 OA
ENDBRANCH 41 53
BRANCH 37 59
ATOM     59  O4  Z9K D   4      68.644  99.911 134.5860  0.00  0.00     0.000 O
BRANCH 59 63
ATOM     60  C1  Z9K D   4      69.866  97.778 131.5190  0.00  0.00     0.000 C
ATOM     61  C2  Z9K D   4      70.013  96.752 132.6770  0.00  0.00     0.000 C
ATOM     62  C3  Z9K D   4      69.346  97.555 133.8770  0.00  0.00     0.000 C
ATOM     63  C4  Z9K D   4      69.727  99.069 134.0930  0.00  0.00     0.000 C
ATOM     64  C5  Z9K D   4      70.194  99.832 132.8440  0.00  0.00     0.000 C
ATOM     65  O5  Z9K D   4      69.439  99.197 131.7780  0.00  0.00     0.000 O
ATOM     66   O  Z9K D   4      69.553  96.935 135.1600  0.00  0.00     0.000 O
ATOM     67   C  Z9K D   4      68.604  95.932 135.4850  0.00  0.00     0.000 C
BRANCH 61 68
ATOM     68   O  Z9K D   4      69.151  95.684 132.3910  0.00  0.00     0.000 O
ATOM     69   O  Z9K D   4      71.252  94.878 133.6100  0.00  0.00     0.000 OA
ATOM     70   S  Z9K D   4      70.602  94.967 132.3370  0.00  0.00     0.000 S
ATOM     71   O  Z9K D   4      71.236  95.292 131.0950  0.00  0.00     0.000 OA
ATOM     72   O  Z9K D   4      69.710  93.870 132.1420  0.00  0.00     0.000 OA
ENDBRANCH 61 68
BRANCH 64 73
ATOM     73   C  Z9K D   4      70.053 101.355 133.0470  0.00  0.00     0.000 C
ATOM     74   O  Z9K D   4      70.825 101.987 133.8240  0.00  0.00     0.000 O
ATOM     75   O  Z9K D   4      69.176 102.024 132.4470  0.00  0.00     0.000 OA
ENDBRANCH 64 73
BRANCH 60 76
ATOM     76  O4  Z9L D   5      70.828  98.131 130.5100  0.00  0.00     0.000 O
BRANCH 76 80
ATOM     77  C1  Z9L D   5      71.304  98.968 126.6320  0.00  0.00     0.000 C
ATOM     78  C2  Z9L D   5      71.676 100.297 127.4480  0.00  0.00     0.000 C
ATOM     79  C3  Z9L D   5      71.923  99.827 129.0540  0.00  0.00     0.000 C
ATOM     80  C4  Z9L D   5      70.678  98.770 129.2680  0.00  0.00     0.000 C
ATOM     81  C5  Z9L D   5      70.145  97.566 128.3370  0.00  0.00     0.000 C
ATOM     82  O5  Z9L D   5      70.193  98.048 126.9860  0.00  0.00     0.000 O
ATOM     83   C  Z9L D   5      72.334  96.971 125.7130  0.00  0.00     0.000 C
ATOM     84   C  Z9L D   5      72.334  96.971 125.7130  0.00  0.00     0.000 C
BRANCH 78 85
ATOM     85   O  Z9L D   5      72.867 100.802 126.9330  0.00  0.00     0.000 O
ATOM     86   O  Z9L D   5      73.034 102.441 125.9350  0.00  0.00     0.000 OA
ATOM     87   S  Z9L D   5      71.838 101.982 126.5730  0.00  0.00     0.000 S
ATOM     88   O  Z9L D   5      71.613 102.908 127.6560  0.00  0.00     0.000 OA
ATOM     89   O  Z9L D   5      70.923 101.725 125.5140  0.00  0.00     0.000 OA
ENDBRANCH 78 85
BRANCH 79 90
ATOM     90   O  Z9L D   5      71.603 100.854 129.9380  0.00  0.00     0.000 O
ATOM     91   S  Z9L D   5      73.123 100.615 130.3460  0.00  0.00     0.000 S
ATOM     92   O  Z9L D   5      74.198 100.689 129.3920  0.00  0.00     0.000 OA
ATOM     93   O  Z9L D   5      73.181  99.699 131.4580  0.00  0.00     0.000 O
ATOM     94   O  Z9L D   5      72.947 101.924 130.8870  0.00  0.00     0.000 OA
ENDBRANCH 79 90
BRANCH 81 95
ATOM     95   C  Z9L D   5      68.771  96.749 128.8460  0.00  0.00     0.000 C
ATOM     96   S  Z9L D   5      66.791  96.630 128.6680  0.00  0.00     0.000 S
ATOM     97   O  Z9L D   5      67.851  97.795 128.6800  0.00  0.00     0.000 O
ATOM     98   O  Z9L D   5      66.691  96.146 130.0210  0.00  0.00     0.000 OA
ATOM     99   O  Z9L D   5      66.869  95.734 127.5640  0.00  0.00     0.000 OA
ATOM    100   O  Z9L D   5      65.891  97.746 128.5150  0.00  0.00     0.000 O
ENDBRANCH 81 95
ENDBRANCH 76 80
ENDBRANCH 60 76
ENDBRANCH 59 63
ENDBRANCH 37 59
ENDBRANCH 36 40
ENDBRANCH 23 36
ENDBRANCH 22 26
ENDBRANCH 1 22
TORSDOF 19
ENDMDL
MODEL 35
REMARK VINA RESULT:       0.0     14.132     20.319
ROOT
ATOM      1  C1  Z9H D   1      38.238  54.951  76.1690  0.00  0.00     0.000 C
ATOM      2  C2  Z9H D   1      37.200  54.020  75.4980  0.00  0.00     0.000 C
ATOM      3  C3  Z9H D   1      37.065  54.779  74.1420  0.00  0.00     0.000 C
ATOM      4  C4  Z9H D   1      36.798  56.336  74.2590  0.00  0.00     0.000 C
ATOM      5  C5  Z9H D   1      37.627  57.286  75.2130  0.00  0.00     0.000 C
ATOM      6  O5  Z9H D   1      37.981  56.378  76.2860  0.00  0.00     0.000 O
ATOM      7   O  Z9H D   1      36.090  54.170  73.2940  0.00  0.00     0.000 O
ATOM      8   C  Z9H D   1      36.615  53.291  72.2850  0.00  0.00     0.000 C
ATOM      9   O  Z9H D   1      36.926  56.854  72.9310  0.00  0.00     0.000 O
ATOM     10   C  Z9H D   1      35.698  57.068  72.2300  0.00  0.00     0.000 C
ENDROOT
BRANCH 2 11
ATOM     11   O  Z9H D   1      37.972  52.884  75.2060  0.00  0.00     0.000 O
ATOM     12   O  Z9H D   1      37.726  51.199  76.0160  0.00  0.00     0.000 OA
ATOM     13   S  Z9H D   1      36.920  52.346  76.2680  0.00  0.00     0.000 S
ATOM     14   O  Z9H D   1      35.630  52.298  75.6400  0.00  0.00     0.000 OA
ATOM     15   O  Z9H D   1      37.182  52.866  77.5900  0.00  0.00     0.000 O
ENDBRANCH 2 11
BRANCH 5 16
ATOM     16   C  Z9H D   1      36.920  58.770  75.5250  0.00  0.00     0.000 C
ATOM     17   S  Z9H D   1      37.291  60.724  75.8150  0.00  0.00     0.000 S
ATOM     18   O  Z9H D   1      37.840  59.573  74.8260  0.00  0.00     0.000 O
ATOM     19   O  Z9H D   1      37.642  60.550  77.1960  0.00  0.00     0.000 O
ATOM     20   O  Z9H D   1      36.011  61.170  75.3870  0.00  0.00     0.000 OA
ATOM     21   O  Z9H D   1      38.279  61.479  75.1020  0.00  0.00     0.000 OA
ENDBRANCH 5 16
BRANCH 1 22
ATOM     22  O4  GU1 D   2      39.562  54.970  75.5230  0.00  0.00     0.000 O
BRANCH 22 26
ATOM     23  C1  GU1 D   2      43.623  55.231  76.1660  0.00  0.00     0.000 C
ATOM     24  C2  GU1 D   2      42.851  54.482  77.2420  0.00  0.00     0.000 C
ATOM     25  C3  GU1 D   2      41.489  54.125  76.7210  0.00  0.00     0.000 C
ATOM     26  C4  GU1 D   2      40.774  55.355  76.1830  0.00  0.00     0.000 C
ATOM     27  C5  GU1 D   2      41.675  56.093  75.1870  0.00  0.00     0.000 C
ATOM     28  O5  GU1 D   2      42.926  56.413  75.7900  0.00  0.00     0.000 O
ATOM     29   O  GU1 D   2      43.508  53.280  77.6290  0.00  0.00     0.000 O
ATOM     30   C  GU1 D   2      44.305  53.411  78.7970  0.00  0.00     0.000 C
ATOM     31   C  GU1 D   2      40.596  52.163  77.7910  0.00  0.00     0.000 C
ATOM     32   O  GU1 D   2      40.720  53.583  77.7990  0.00  0.00     0.000 O
BRANCH 27 33
ATOM     33   C  GU1 D   2      41.039  57.383  74.7270  0.00  0.00     0.000 C
ATOM     34   O  GU1 D   2      40.937  58.293  75.5250  0.00  0.00     0.000 OA
ATOM     35   O  GU1 D   2      40.643  57.505  73.5790  0.00  0.00     0.000 O
ENDBRANCH 27 33
BRANCH 23 36
ATOM     36  O4  GU6 D   3      44.858  55.896  76.4960  0.00  0.00     0.000 O
BRANCH 36 40
ATOM     37  C1  GU6 D   3      47.682  58.672  77.5030  0.00  0.00     0.000 C
ATOM     38  C2  GU6 D   3      48.232  57.485  76.7220  0.00  0.00     0.000 C
ATOM     39  C3  GU6 D   3      47.091  56.671  76.1700  0.00  0.00     0.000 C
ATOM     40  C4  GU6 D   3      45.737  56.994  76.6340  0.00  0.00     0.000 C
ATOM     41  C5  GU6 D   3      45.779  57.363  78.1530  0.00  0.00     0.000 C
ATOM     42  O5  GU6 D   3      46.880  58.180  78.5660  0.00  0.00     0.000 O
BRANCH 38 43
ATOM     43   O  GU6 D   3      49.065  57.927  75.6670  0.00  0.00     0.000 O
ATOM     44   S  GU6 D   3      50.466  57.332  75.6800  0.00  0.00     0.000 S
ATOM     45   O  GU6 D   3      51.289  58.091  76.6380  0.00  0.00     0.000 OA
ATOM     46   O  GU6 D   3      50.377  55.927  76.1170  0.00  0.00     0.000 O
ATOM     47   O  GU6 D   3      51.020  57.402  74.3310  0.00  0.00     0.000 OA
ENDBRANCH 38 43
BRANCH 39 48
ATOM     48   O  GU6 D   3      47.287  55.793  75.0780  0.00  0.00     0.000 O
ATOM     49   S  GU6 D   3      47.010  56.002  73.5890  0.00  0.00     0.000 S
ATOM     50   O  GU6 D   3      47.706  57.201  73.1090  0.00  0.00     0.000 OA
ATOM     51   O  GU6 D   3      47.561  54.786  72.9750  0.00  0.00     0.000 OA
ATOM     52   O  GU6 D   3      45.551  56.148  73.3880  0.00  0.00     0.000 O
ENDBRANCH 39 48
BRANCH 41 53
ATOM     53   C  GU6 D   3      44.813  56.992  79.2450  0.00  0.00     0.000 C
ATOM     54   O  GU6 D   3      43.702  57.705  78.7670  0.00  0.00     0.000 O
ATOM     55   S  GU6 D   3      42.408  57.772  79.5890  0.00  0.00     0.000 S
ATOM     56   O  GU6 D   3      42.722  58.536  80.8190  0.00  0.00     0.000 O
ATOM     57   O  GU6 D   3      41.383  58.464  78.7940  0.00  0.00     0.000 OA
ATOM     58   O  GU6 D   3      42.020  56.380  79.9120  0.00  0.00     0.000 OA
ENDBRANCH 41 53
BRANCH 37 59
ATOM     59  O4  Z9K D   4      46.984  59.794  76.9230  0.00  0.00     0.000 O
BRANCH 59 63
ATOM     60  C1  Z9K D   4      46.564  63.231  75.0640  0.00  0.00     0.000 C
ATOM     61  C2  Z9K D   4      48.088  63.236  75.3630  0.00  0.00     0.000 C
ATOM     62  C3  Z9K D   4      48.285  61.770  75.9470  0.00  0.00     0.000 C
ATOM     63  C4  Z9K D   4      47.259  61.223  77.0110  0.00  0.00     0.000 C
ATOM     64  C5  Z9K D   4      45.849  61.832  76.9640  0.00  0.00     0.000 C
ATOM     65  O5  Z9K D   4      45.671  62.124  75.5530  0.00  0.00     0.000 O
ATOM     66   O  Z9K D   4      49.579  61.563  76.5420  0.00  0.00     0.000 O
ATOM     67   C  Z9K D   4      50.592  61.185  75.6240  0.00  0.00     0.000 C
BRANCH 61 68
ATOM     68   O  Z9K D   4      48.750  63.259  74.1280  0.00  0.00     0.000 O
ATOM     69   O  Z9K D   4      50.066  64.544  75.9090  0.00  0.00     0.000 OA
ATOM     70   S  Z9K D   4      49.199  64.675  74.7760  0.00  0.00     0.000 S
ATOM     71   O  Z9K D   4      48.121  65.607  74.6520  0.00  0.00     0.000 OA
ATOM     72   O  Z9K D   4      49.943  64.644  73.5590  0.00  0.00     0.000 OA
ENDBRANCH 61 68
BRANCH 64 73
ATOM     73   C  Z9K D   4      44.829  60.910  77.6650  0.00  0.00     0.000 C
ATOM     74   O  Z9K D   4      44.821  60.779  78.9240  0.00  0.00     0.000 O
ATOM     75   O  Z9K D   4      43.968  60.264  77.0190  0.00  0.00     0.000 OA
ENDBRANCH 64 73
BRANCH 60 76
ATOM     76  O4  Z9L D   5      45.601  64.270  75.3100  0.00  0.00     0.000 O
BRANCH 76 80
ATOM     77  C1  Z9L D   5      42.428  66.179  73.8060  0.00  0.00     0.000 C
ATOM     78  C2  Z9L D   5      41.933  65.410  75.1230  0.00  0.00     0.000 C
ATOM     79  C3  Z9L D   5      43.322  64.999  75.9970  0.00  0.00     0.000 C
ATOM     80  C4  Z9L D   5      44.316  64.488  74.7870  0.00  0.00     0.000 C
ATOM     81  C5  Z9L D   5      44.649  65.140  73.3500  0.00  0.00     0.000 C
ATOM     82  O5  Z9L D   5      43.404  65.630  72.8300  0.00  0.00     0.000 O
ATOM     83   C  Z9L D   5      43.307  68.328  73.0980  0.00  0.00     0.000 C
ATOM     84   C  Z9L D   5      43.307  68.328  73.0980  0.00  0.00     0.000 C
BRANCH 78 85
ATOM     85   O  Z9L D   5      41.166  66.294  75.8770  0.00  0.00     0.000 O
ATOM     86   O  Z9L D   5      39.266  66.147  76.1590  0.00  0.00     0.000 OA
ATOM     87   S  Z9L D   5      40.078  65.176  75.4920  0.00  0.00     0.000 S
ATOM     88   O  Z9L D   5      40.086  64.031  76.3680  0.00  0.00     0.000 OA
ATOM     89   O  Z9L D   5      39.624  65.170  74.1440  0.00  0.00     0.000 OA
ENDBRANCH 78 85
BRANCH 79 90
ATOM     90   O  Z9L D   5      43.128  63.838  76.7400  0.00  0.00     0.000 O
ATOM     91   S  Z9L D   5      43.512  64.844  77.9130  0.00  0.00     0.000 S
ATOM     92   O  Z9L D   5      42.792  66.069  78.1430  0.00  0.00     0.000 OA
ATOM     93   O  Z9L D   5      44.927  64.755  78.1750  0.00  0.00     0.000 O
ATOM     94   O  Z9L D   5      42.875  63.827  78.6860  0.00  0.00     0.000 OA
ENDBRANCH 79 90
BRANCH 81 95
ATOM     95   C  Z9L D   5      45.656  64.273  72.3270  0.00  0.00     0.000 C
ATOM     96   S  Z9L D   5      45.714  62.988  70.8070  0.00  0.00     0.000 S
ATOM     97   O  Z9L D   5      44.793  63.200  72.0660  0.00  0.00     0.000 O
ATOM     98   O  Z9L D   5      46.964  62.460  71.2910  0.00  0.00     0.000 OA
ATOM     99   O  Z9L D   5      45.675  64.023  69.8300  0.00  0.00     0.000 OA
ATOM    100   O  Z9L D   5      44.804  61.888  70.6000  0.00  0.00     0.000 O
ENDBRANCH 81 95
ENDBRANCH 76 80
ENDBRANCH 60 76
ENDBRANCH 59 63
ENDBRANCH 37 59
ENDBRANCH 36 40
ENDBRANCH 23 36
ENDBRANCH 22 26
ENDBRANCH 1 22
TORSDOF 19
ENDMDL
MODEL 36
REMARK VINA RESULT:       0.0     60.719     67.514
ROOT
ATOM      1  C1  Z9H D   1      87.600  52.649  13.5990  0.00  0.00     0.000 C
ATOM      2  C2  Z9H D   1      89.015  52.315  13.0690  0.00  0.00     0.000 C
ATOM      3  C3  Z9H D   1      89.640  53.739  13.1940  0.00  0.00     0.000 C
ATOM      4  C4  Z9H D   1      88.791  54.912  12.5500  0.00  0.00     0.000 C
ATOM      5  C5  Z9H D   1      87.240  55.091  12.7960  0.00  0.00     0.000 C
ATOM      6  O5  Z9H D   1      86.820  53.718  12.9950  0.00  0.00     0.000 O
ATOM      7   O  Z9H D   1      90.982  53.770  12.7030  0.00  0.00     0.000 O
ATOM      8   C  Z9H D   1      92.007  53.675  13.7060  0.00  0.00     0.000 C
ATOM      9   O  Z9H D   1      89.427  56.125  12.9660  0.00  0.00     0.000 O
ATOM     10   C  Z9H D   1      90.301  56.725  12.0040  0.00  0.00     0.000 C
ENDROOT
BRANCH 2 11
ATOM     11   O  Z9H D   1      89.561  51.582  14.1350  0.00  0.00     0.000 O
ATOM     12   O  Z9H D   1      90.001  49.750  14.0440  0.00  0.00     0.000 OA
ATOM     13   S  Z9H D   1      89.492  50.517  12.9580  0.00  0.00     0.000 S
ATOM     14   O  Z9H D   1      90.482  50.863  11.9780  0.00  0.00     0.000 OA
ATOM     15   O  Z9H D   1      88.130  50.133  12.6640  0.00  0.00     0.000 O
ENDBRANCH 2 11
BRANCH 5 16
ATOM     16   C  Z9H D   1      86.460  56.090  11.7020  0.00  0.00     0.000 C
ATOM     17   S  Z9H D   1      85.014  57.472  11.5010  0.00  0.00     0.000 S
ATOM     18   O  Z9H D   1      86.168  57.148  12.5830  0.00  0.00     0.000 O
ATOM     19   O  Z9H D   1      83.962  56.499  11.4330  0.00  0.00     0.000 O
ATOM     20   O  Z9H D   1      85.579  58.091  10.3530  0.00  0.00     0.000 OA
ATOM     21   O  Z9H D   1      84.733  58.501  12.4590  0.00  0.00     0.000 OA
ENDBRANCH 5 16
BRANCH 1 22
ATOM     22  O4  GU1 D   2      87.548  53.048  15.0170  0.00  0.00     0.000 O
BRANCH 22 26
ATOM     23  C1  GU1 D   2      85.348  52.848  18.4940  0.00  0.00     0.000 C
ATOM     24  C2  GU1 D   2      85.276  51.606  17.6200  0.00  0.00     0.000 C
ATOM     25  C3  GU1 D   2      86.388  51.642  16.6110  0.00  0.00     0.000 C
ATOM     26  C4  GU1 D   2      86.377  52.951  15.8360  0.00  0.00     0.000 C
ATOM     27  C5  GU1 D   2      86.345  54.136  16.8070  0.00  0.00     0.000 C
ATOM     28  O5  GU1 D   2      85.237  54.021  17.6960  0.00  0.00     0.000 O
ATOM     29   O  GU1 D   2      85.406  50.411  18.3810  0.00  0.00     0.000 O
ATOM     30   C  GU1 D   2      84.165  49.807  18.7190  0.00  0.00     0.000 C
ATOM     31   C  GU1 D   2      87.044  49.436  15.9070  0.00  0.00     0.000 C
ATOM     32   O  GU1 D   2      86.199  50.563  15.6900  0.00  0.00     0.000 O
BRANCH 27 33
ATOM     33   C  GU1 D   2      86.211  55.445  16.0670  0.00  0.00     0.000 C
ATOM     34   O  GU1 D   2      85.160  55.691  15.5120  0.00  0.00     0.000 OA
ATOM     35   O  GU1 D   2      87.140  56.237  16.0340  0.00  0.00     0.000 O
ENDBRANCH 27 33
BRANCH 23 36
ATOM     36  O4  GU6 D   3      84.254  53.174  19.3740  0.00  0.00     0.000 O
BRANCH 36 40
ATOM     37  C1  GU6 D   3      80.869  54.768  21.0150  0.00  0.00     0.000 C
ATOM     38  C2  GU6 D   3      81.888  54.290  22.0420  0.00  0.00     0.000 C
ATOM     39  C3  GU6 D   3      83.191  53.979  21.3530  0.00  0.00     0.000 C
ATOM     40  C4  GU6 D   3      83.199  53.963  19.8860  0.00  0.00     0.000 C
ATOM     41  C5  GU6 D   3      81.862  53.341  19.3630  0.00  0.00     0.000 C
ATOM     42  O5  GU6 D   3      80.675  53.738  20.0580  0.00  0.00     0.000 O
BRANCH 38 43
ATOM     43   O  GU6 D   3      82.091  55.275  23.0370  0.00  0.00     0.000 O
ATOM     44   S  GU6 D   3      81.866  54.785  24.4620  0.00  0.00     0.000 S
ATOM     45   O  GU6 D   3      80.421  54.809  24.7430  0.00  0.00     0.000 OA
ATOM     46   O  GU6 D   3      82.363  53.401  24.5680  0.00  0.00     0.000 O
ATOM     47   O  GU6 D   3      82.601  55.652  25.3780  0.00  0.00     0.000 OA
ENDBRANCH 38 43
BRANCH 39 48
ATOM     48   O  GU6 D   3      84.405  53.936  22.0790  0.00  0.00     0.000 O
ATOM     49   S  GU6 D   3      85.488  55.002  22.2430  0.00  0.00     0.000 S
ATOM     50   O  GU6 D   3      84.901  56.245  22.7570  0.00  0.00     0.000 OA
ATOM     51   O  GU6 D   3      86.401  54.400  23.2250  0.00  0.00     0.000 OA
ATOM     52   O  GU6 D   3      86.122  55.247  20.9290  0.00  0.00     0.000 O
ENDBRANCH 39 48
BRANCH 41 53
ATOM     53   C  GU6 D   3      81.645  52.391  18.2170  0.00  0.00     0.000 C
ATOM     54   O  GU6 D   3      82.032  53.253  17.1780  0.00  0.00     0.000 O
ATOM     55   S  GU6 D   3      81.896  52.816  15.7130  0.00  0.00     0.000 S
ATOM     56   O  GU6 D   3      80.446  52.683  15.4400  0.00  0.00     0.000 O
ATOM     57   O  GU6 D   3      82.492  53.853  14.8580  0.00  0.00     0.000 OA
ATOM     58   O  GU6 D   3      82.585  51.514  15.5770  0.00  0.00     0.000 OA
ENDBRANCH 41 53
BRANCH 37 59
ATOM     59  O4  Z9K D   4      80.941  56.016  20.2950  0.00  0.00     0.000 O
BRANCH 59 63
ATOM     60  C1  Z9K D   4      80.555  59.881  19.6950  0.00  0.00     0.000 C
ATOM     61  C2  Z9K D   4      79.738  59.697  21.0040  0.00  0.00     0.000 C
ATOM     62  C3  Z9K D   4      80.050  58.174  21.3410  0.00  0.00     0.000 C
ATOM     63  C4  Z9K D   4      79.974  57.101  20.1890  0.00  0.00     0.000 C
ATOM     64  C5  Z9K D   4      80.219  57.622  18.7650  0.00  0.00     0.000 C
ATOM     65  O5  Z9K D   4      81.161  58.707  18.9760  0.00  0.00     0.000 O
ATOM     66   O  Z9K D   4      79.224  57.645  22.3940  0.00  0.00     0.000 O
ATOM     67   C  Z9K D   4      79.713  57.892  23.7020  0.00  0.00     0.000 C
BRANCH 61 68
ATOM     68   O  Z9K D   4      80.373  60.457  21.9950  0.00  0.00     0.000 O
ATOM     69   O  Z9K D   4      77.839  60.402  22.3510  0.00  0.00     0.000 OA
ATOM     70   S  Z9K D   4      78.935  61.193  21.8770  0.00  0.00     0.000 S
ATOM     71   O  Z9K D   4      78.927  62.017  20.7070  0.00  0.00     0.000 OA
ATOM     72   O  Z9K D   4      79.554  61.900  22.9520  0.00  0.00     0.000 OA
ENDBRANCH 61 68
BRANCH 64 73
ATOM     73   C  Z9K D   4      80.615  56.469  17.8190  0.00  0.00     0.000 C
ATOM     74   O  Z9K D   4      79.768  55.605  17.4480  0.00  0.00     0.000 O
ATOM     75   O  Z9K D   4      81.784  56.347  17.3790  0.00  0.00     0.000 OA
ENDBRANCH 64 73
BRANCH 60 76
ATOM     76  O4  Z9L D   5      80.171  60.566  18.4900  0.00  0.00     0.000 O
BRANCH 76 80
ATOM     77  C1  Z9L D   5      81.448  63.011  15.5980  0.00  0.00     0.000 C
ATOM     78  C2  Z9L D   5      81.103  61.605  14.9070  0.00  0.00     0.000 C
ATOM     79  C3  Z9L D   5      80.150  60.744  16.0070  0.00  0.00     0.000 C
ATOM     80  C4  Z9L D   5      80.934  61.062  17.4210  0.00  0.00     0.000 C
ATOM     81  C5  Z9L D   5      81.495  62.447  18.0270  0.00  0.00     0.000 C
ATOM     82  O5  Z9L D   5      82.089  63.156  16.9290  0.00  0.00     0.000 O
ATOM     83   C  Z9L D   5      80.428  65.148  16.1310  0.00  0.00     0.000 C
ATOM     84   C  Z9L D   5      80.428  65.148  16.1310  0.00  0.00     0.000 C
BRANCH 78 85
ATOM     85   O  Z9L D   5      80.357  61.860  13.7590  0.00  0.00     0.000 O
ATOM     86   O  Z9L D   5      80.973  61.581  11.9550  0.00  0.00     0.000 OA
ATOM     87   S  Z9L D   5      81.687  61.204  13.1370  0.00  0.00     0.000 S
ATOM     88   O  Z9L D   5      81.678  59.762  13.1360  0.00  0.00     0.000 OA
ATOM     89   O  Z9L D   5      82.855  62.016  13.1440  0.00  0.00     0.000 OA
ENDBRANCH 78 85
BRANCH 79 90
ATOM     90   O  Z9L D   5      80.327  59.370  15.8650  0.00  0.00     0.000 O
ATOM     91   S  Z9L D   5      78.757  59.464  15.6170  0.00  0.00     0.000 S
ATOM     92   O  Z9L D   5      78.187  60.305  14.5980  0.00  0.00     0.000 OA
ATOM     93   O  Z9L D   5      78.063  59.228  16.8590  0.00  0.00     0.000 O
ATOM     94   O  Z9L D   5      79.004  58.189  15.0240  0.00  0.00     0.000 OA
ENDBRANCH 79 90
BRANCH 81 95
ATOM     95   C  Z9L D   5      82.336  62.367  19.4760  0.00  0.00     0.000 C
ATOM     96   S  Z9L D   5      84.144  62.258  20.3030  0.00  0.00     0.000 S
ATOM     97   O  Z9L D   5      83.461  61.672  19.0110  0.00  0.00     0.000 O
ATOM     98   O  Z9L D   5      83.596  61.539  21.4250  0.00  0.00     0.000 OA
ATOM     99   O  Z9L D   5      84.299  63.673  20.3340  0.00  0.00     0.000 OA
ATOM    100   O  Z9L D   5      85.263  61.510  19.7850  0.00  0.00     0.000 O
ENDBRANCH 81 95
ENDBRANCH 76 80
ENDBRANCH 60 76
ENDBRANCH 59 63
ENDBRANCH 37 59
ENDBRANCH 36 40
ENDBRANCH 23 36
ENDBRANCH 22 26
ENDBRANCH 1 22
TORSDOF 19
ENDMDL
MODEL 37
REMARK VINA RESULT:       0.0     55.822     62.982
ROOT
ATOM      1  C1  Z9H D   1      81.637  45.507  14.9540  0.00  0.00     0.000 C
ATOM      2  C2  Z9H D   1      82.815  45.530  13.9510  0.00  0.00     0.000 C
ATOM      3  C3  Z9H D   1      83.267  47.006  14.1730  0.00  0.00     0.000 C
ATOM      4  C4  Z9H D   1      82.113  48.089  14.0900  0.00  0.00     0.000 C
ATOM      5  C5  Z9H D   1      80.730  47.937  14.8390  0.00  0.00     0.000 C
ATOM      6  O5  Z9H D   1      80.574  46.496  14.8640  0.00  0.00     0.000 O
ATOM      7   O  Z9H D   1      84.346  47.362  13.3070  0.00  0.00     0.000 O
ATOM      8   C  Z9H D   1      85.656  47.300  13.8960  0.00  0.00     0.000 C
ATOM      9   O  Z9H D   1      82.701  49.317  14.5330  0.00  0.00     0.000 O
ATOM     10   C  Z9H D   1      83.113  50.213  13.4970  0.00  0.00     0.000 C
ENDROOT
BRANCH 2 11
ATOM     11   O  Z9H D   1      83.777  44.750  14.6120  0.00  0.00     0.000 O
ATOM     12   O  Z9H D   1      84.379  43.069  14.0040  0.00  0.00     0.000 OA
ATOM     13   S  Z9H D   1      83.440  43.892  13.3180  0.00  0.00     0.000 S
ATOM     14   O  Z9H D   1      83.986  44.567  12.1760  0.00  0.00     0.000 OA
ATOM     15   O  Z9H D   1      82.117  43.315  13.3900  0.00  0.00     0.000 O
ENDBRANCH 2 11
BRANCH 5 16
ATOM     16   C  Z9H D   1      79.508  48.936  14.2810  0.00  0.00     0.000 C
ATOM     17   S  Z9H D   1      77.924  50.041  14.8380  0.00  0.00     0.000 S
ATOM     18   O  Z9H D   1      79.408  49.767  15.4120  0.00  0.00     0.000 O
ATOM     19   O  Z9H D   1      77.038  48.914  14.8970  0.00  0.00     0.000 O
ATOM     20   O  Z9H D   1      77.983  50.929  13.7300  0.00  0.00     0.000 OA
ATOM     21   O  Z9H D   1      77.864  50.833  16.0310  0.00  0.00     0.000 OA
ENDBRANCH 5 16
BRANCH 1 22
ATOM     22  O4  GU1 D   2      82.024  45.659  16.3670  0.00  0.00     0.000 O
BRANCH 22 26
ATOM     23  C1  GU1 D   2      81.186  44.504  20.2320  0.00  0.00     0.000 C
ATOM     24  C2  GU1 D   2      80.972  43.425  19.1820  0.00  0.00     0.000 C
ATOM     25  C3  GU1 D   2      81.659  43.827  17.9090  0.00  0.00     0.000 C
ATOM     26  C4  GU1 D   2      81.224  45.218  17.4710  0.00  0.00     0.000 C
ATOM     27  C5  GU1 D   2      81.382  46.206  18.6310  0.00  0.00     0.000 C
ATOM     28  O5  GU1 D   2      80.668  45.749  19.7760  0.00  0.00     0.000 O
ATOM     29   O  GU1 D   2      81.497  42.169  19.5940  0.00  0.00     0.000 O
ATOM     30   C  GU1 D   2      80.530  41.301  20.1660  0.00  0.00     0.000 C
ATOM     31   C  GU1 D   2      82.297  41.921  16.5850  0.00  0.00     0.000 C
ATOM     32   O  GU1 D   2      81.299  42.892  16.8860  0.00  0.00     0.000 O
BRANCH 27 33
ATOM     33   C  GU1 D   2      80.846  47.569  18.2650  0.00  0.00     0.000 C
ATOM     34   O  GU1 D   2      79.647  47.701  18.1310  0.00  0.00     0.000 OA
ATOM     35   O  GU1 D   2      81.604  48.514  18.1120  0.00  0.00     0.000 O
ENDBRANCH 27 33
BRANCH 23 36
ATOM     36  O4  GU6 D   3      80.428  44.478  21.4580  0.00  0.00     0.000 O
BRANCH 36 40
ATOM     37  C1  GU6 D   3      77.639  45.136  24.3710  0.00  0.00     0.000 C
ATOM     38  C2  GU6 D   3      78.998  44.698  24.9030  0.00  0.00     0.000 C
ATOM     39  C3  GU6 D   3      80.015  44.747  23.7930  0.00  0.00     0.000 C
ATOM     40  C4  GU6 D   3      79.523  44.966  22.4280  0.00  0.00     0.000 C
ATOM     41  C5  GU6 D   3      78.175  44.199  22.2280  0.00  0.00     0.000 C
ATOM     42  O5  GU6 D   3      77.257  44.254  23.3260  0.00  0.00     0.000 O
BRANCH 38 43
ATOM     43   O  GU6 D   3      79.407  45.532  25.9700  0.00  0.00     0.000 O
ATOM     44   S  GU6 D   3      79.744  44.788  27.2560  0.00  0.00     0.000 S
ATOM     45   O  GU6 D   3      78.490  44.500  27.9720  0.00  0.00     0.000 OA
ATOM     46   O  GU6 D   3      80.412  43.521  26.9060  0.00  0.00     0.000 O
ATOM     47   O  GU6 D   3      80.636  45.619  28.0590  0.00  0.00     0.000 OA
ENDBRANCH 38 43
BRANCH 39 48
ATOM     48   O  GU6 D   3      81.399  44.814  24.0780  0.00  0.00     0.000 O
ATOM     49   S  GU6 D   3      82.335  46.022  24.1170  0.00  0.00     0.000 S
ATOM     50   O  GU6 D   3      81.812  47.037  25.0390  0.00  0.00     0.000 OA
ATOM     51   O  GU6 D   3      83.594  45.451  24.6140  0.00  0.00     0.000 OA
ATOM     52   O  GU6 D   3      82.448  46.586  22.7530  0.00  0.00     0.000 O
ENDBRANCH 39 48
BRANCH 41 53
ATOM     53   C  GU6 D   3      77.696  43.420  21.0330  0.00  0.00     0.000 C
ATOM     54   O  GU6 D   3      77.597  44.493  20.1330  0.00  0.00     0.000 O
ATOM     55   S  GU6 D   3      77.022  44.278  18.7260  0.00  0.00     0.000 S
ATOM     56   O  GU6 D   3      75.594  43.924  18.8970  0.00  0.00     0.000 O
ATOM     57   O  GU6 D   3      77.161  45.530  17.9680  0.00  0.00     0.000 OA
ATOM     58   O  GU6 D   3      77.777  43.164  18.1100  0.00  0.00     0.000 OA
ENDBRANCH 41 53
BRANCH 37 59
ATOM     59  O4  Z9K D   4      77.309  46.474  23.9450  0.00  0.00     0.000 O
BRANCH 59 63
ATOM     60  C1  Z9K D   4      76.273  50.247  24.3270  0.00  0.00     0.000 C
ATOM     61  C2  Z9K D   4      75.982  49.708  25.7560  0.00  0.00     0.000 C
ATOM     62  C3  Z9K D   4      76.573  48.236  25.6490  0.00  0.00     0.000 C
ATOM     63  C4  Z9K D   4      76.239  47.365  24.3780  0.00  0.00     0.000 C
ATOM     64  C5  Z9K D   4      75.917  48.142  23.0930  0.00  0.00     0.000 C
ATOM     65  O5  Z9K D   4      76.735  49.334  23.2240  0.00  0.00     0.000 O
ATOM     66   O  Z9K D   4      76.228  47.402  26.7700  0.00  0.00     0.000 O
ATOM     67   C  Z9K D   4      77.100  47.524  27.8810  0.00  0.00     0.000 C
BRANCH 61 68
ATOM     68   O  Z9K D   4      76.820  50.406  26.6370  0.00  0.00     0.000 O
ATOM     69   O  Z9K D   4      74.587  49.827  27.7450  0.00  0.00     0.000 OA
ATOM     70   S  Z9K D   4      75.350  50.872  27.1320  0.00  0.00     0.000 S
ATOM     71   O  Z9K D   4      74.843  51.856  26.2250  0.00  0.00     0.000 OA
ATOM     72   O  Z9K D   4      76.209  51.501  28.0830  0.00  0.00     0.000 OA
ENDBRANCH 61 68
BRANCH 64 73
ATOM     73   C  Z9K D   4      76.104  47.247  21.8490  0.00  0.00     0.000 C
ATOM     74   O  Z9K D   4      75.293  46.312  21.5870  0.00  0.00     0.000 O
ATOM     75   O  Z9K D   4      77.058  47.416  21.0510  0.00  0.00     0.000 OA
ENDBRANCH 64 73
BRANCH 60 76
ATOM     76  O4  Z9L D   5      75.421  51.032  23.4760  0.00  0.00     0.000 O
BRANCH 76 80
ATOM     77  C1  Z9L D   5      75.325  54.099  20.9170  0.00  0.00     0.000 C
ATOM     78  C2  Z9L D   5      74.939  52.782  20.0860  0.00  0.00     0.000 C
ATOM     79  C3  Z9L D   5      74.531  51.595  21.2210  0.00  0.00     0.000 C
ATOM     80  C4  Z9L D   5      75.707  51.824  22.3530  0.00  0.00     0.000 C
ATOM     81  C5  Z9L D   5      76.268  53.174  23.0320  0.00  0.00     0.000 C
ATOM     82  O5  Z9L D   5      76.360  54.147  21.9800  0.00  0.00     0.000 O
ATOM     83   C  Z9L D   5      74.297  55.898  22.1810  0.00  0.00     0.000 C
ATOM     84   C  Z9L D   5      74.297  55.898  22.1810  0.00  0.00     0.000 C
BRANCH 78 85
ATOM     85   O  Z9L D   5      73.821  53.074  19.3100  0.00  0.00     0.000 O
ATOM     86   O  Z9L D   5      73.812  53.205  17.3880  0.00  0.00     0.000 OA
ATOM     87   S  Z9L D   5      74.927  52.783  18.1810  0.00  0.00     0.000 S
ATOM     88   O  Z9L D   5      75.094  51.384  17.8770  0.00  0.00     0.000 OA
ATOM     89   O  Z9L D   5      75.919  53.785  17.9940  0.00  0.00     0.000 OA
ENDBRANCH 78 85
BRANCH 79 90
ATOM     90   O  Z9L D   5      74.815  50.319  20.7430  0.00  0.00     0.000 O
ATOM     91   S  Z9L D   5      73.256  50.158  21.0230  0.00  0.00     0.000 S
ATOM     92   O  Z9L D   5      72.274  51.031  20.4350  0.00  0.00     0.000 OA
ATOM     93   O  Z9L D   5      73.062  49.604  22.3390  0.00  0.00     0.000 O
ATOM     94   O  Z9L D   5      73.438  49.063  20.1270  0.00  0.00     0.000 OA
ENDBRANCH 79 90
BRANCH 81 95
ATOM     95   C  Z9L D   5      77.556  53.022  24.0950  0.00  0.00     0.000 C
ATOM     96   S  Z9L D   5      79.537  53.119  24.2740  0.00  0.00     0.000 S
ATOM     97   O  Z9L D   5      78.531  52.630  23.1670  0.00  0.00     0.000 O
ATOM     98   O  Z9L D   5      79.497  52.142  25.3320  0.00  0.00     0.000 OA
ATOM     99   O  Z9L D   5      79.519  54.515  24.5540  0.00  0.00     0.000 OA
ATOM    100   O  Z9L D   5      80.494  52.683  23.2870  0.00  0.00     0.000 O
ENDBRANCH 81 95
ENDBRANCH 76 80
ENDBRANCH 60 76
ENDBRANCH 59 63
ENDBRANCH 37 59
ENDBRANCH 36 40
ENDBRANCH 23 36
ENDBRANCH 22 26
ENDBRANCH 1 22
TORSDOF 19
ENDMDL
MODEL 38
REMARK VINA RESULT:       0.0     41.062     48.258
ROOT
ATOM      1  C1  Z9H D   1      19.910  48.692 110.8880  0.00  0.00     0.000 C
ATOM      2  C2  Z9H D   1      20.753  47.557 111.5150  0.00  0.00     0.000 C
ATOM      3  C3  Z9H D   1      21.794  47.392 110.3650  0.00  0.00     0.000 C
ATOM      4  C4  Z9H D   1      21.181  47.237 108.9120  0.00  0.00     0.000 C
ATOM      5  C5  Z9H D   1      20.048  48.183 108.3460  0.00  0.00     0.000 C
ATOM      6  O5  Z9H D   1      19.338  48.538 109.5590  0.00  0.00     0.000 O
ATOM      7   O  Z9H D   1      22.712  46.330 110.6340  0.00  0.00     0.000 O
ATOM      8   C  Z9H D   1      23.980  46.735 111.1760  0.00  0.00     0.000 C
ATOM      9   O  Z9H D   1      22.291  47.321 108.0120  0.00  0.00     0.000 O
ATOM     10   C  Z9H D   1      22.794  46.070 107.5340  0.00  0.00     0.000 C
ENDROOT
BRANCH 2 11
ATOM     11   O  Z9H D   1      21.440  48.232 112.5360  0.00  0.00     0.000 O
ATOM     12   O  Z9H D   1      21.174  47.923 114.3770  0.00  0.00     0.000 OA
ATOM     13   S  Z9H D   1      20.519  47.211 113.3310  0.00  0.00     0.000 S
ATOM     14   O  Z9H D   1      21.030  45.887 113.1230  0.00  0.00     0.000 OA
ATOM     15   O  Z9H D   1      19.125  47.585 113.2630  0.00  0.00     0.000 O
ENDBRANCH 2 11
BRANCH 5 16
ATOM     16   C  Z9H D   1      19.240  47.595 107.0040  0.00  0.00     0.000 C
ATOM     17   S  Z9H D   1      18.390  48.113 105.2580  0.00  0.00     0.000 S
ATOM     18   O  Z9H D   1      19.726  48.524 106.0650  0.00  0.00     0.000 O
ATOM     19   O  Z9H D   1      17.162  48.533 105.8700  0.00  0.00     0.000 O
ATOM     20   O  Z9H D   1      18.559  46.843 104.6430  0.00  0.00     0.000 OA
ATOM     21   O  Z9H D   1      18.909  49.105 104.3620  0.00  0.00     0.000 OA
ENDBRANCH 5 16
BRANCH 1 22
ATOM     22  O4  GU1 D   2      20.619  49.974 110.7270  0.00  0.00     0.000 O
BRANCH 22 26
ATOM     23  C1  GU1 D   2      20.241  54.074 110.8640  0.00  0.00     0.000 C
ATOM     24  C2  GU1 D   2      19.393  53.319 111.8770  0.00  0.00     0.000 C
ATOM     25  C3  GU1 D   2      19.892  51.908 111.9910  0.00  0.00     0.000 C
ATOM     26  C4  GU1 D   2      19.967  51.245 110.6230  0.00  0.00     0.000 C
ATOM     27  C5  GU1 D   2      20.752  52.133 109.6520  0.00  0.00     0.000 C
ATOM     28  O5  GU1 D   2      20.179  53.436 109.5940  0.00  0.00     0.000 O
ATOM     29   O  GU1 D   2      19.448  53.916 113.1670  0.00  0.00     0.000 O
ATOM     30   C  GU1 D   2      18.361  54.788 113.4440  0.00  0.00     0.000 C
ATOM     31   C  GU1 D   2      19.415  50.950 114.1460  0.00  0.00     0.000 C
ATOM     32   O  GU1 D   2      18.978  51.169 112.8070  0.00  0.00     0.000 O
BRANCH 27 33
ATOM     33   C  GU1 D   2      20.741  51.559 108.2560  0.00  0.00     0.000 C
ATOM     34   O  GU1 D   2      19.697  51.565 107.6370  0.00  0.00     0.000 OA
ATOM     35   O  GU1 D   2      21.762  51.105 107.7630  0.00  0.00     0.000 O
ENDBRANCH 27 33
BRANCH 23 36
ATOM     36  O4  GU6 D   3      19.818  55.368 110.3920  0.00  0.00     0.000 O
BRANCH 36 40
ATOM     37  C1  GU6 D   3      18.223  58.425 108.2000  0.00  0.00     0.000 C
ATOM     38  C2  GU6 D   3      19.372  58.848 109.1060  0.00  0.00     0.000 C
ATOM     39  C3  GU6 D   3      20.060  57.625 109.6540  0.00  0.00     0.000 C
ATOM     40  C4  GU6 D   3      19.416  56.325 109.4330  0.00  0.00     0.000 C
ATOM     41  C5  GU6 D   3      17.865  56.481 109.5590  0.00  0.00     0.000 C
ATOM     42  O5  GU6 D   3      17.305  57.657 108.9630  0.00  0.00     0.000 O
BRANCH 38 43
ATOM     43   O  GU6 D   3      20.300  59.644 108.3940  0.00  0.00     0.000 O
ATOM     44   S  GU6 D   3      20.579  61.002 109.0260  0.00  0.00     0.000 S
ATOM     45   O  GU6 D   3      19.500  61.928 108.6420  0.00  0.00     0.000 OA
ATOM     46   O  GU6 D   3      20.592  60.845 110.4920  0.00  0.00     0.000 O
ATOM     47   O  GU6 D   3      21.878  61.478 108.5620  0.00  0.00     0.000 OA
ENDBRANCH 38 43
BRANCH 39 48
ATOM     48   O  GU6 D   3      21.381  57.697 110.1550  0.00  0.00     0.000 O
ATOM     49   S  GU6 D   3      22.706  57.347 109.4780  0.00  0.00     0.000 S
ATOM     50   O  GU6 D   3      22.844  58.092 108.2210  0.00  0.00     0.000 OA
ATOM     51   O  GU6 D   3      23.707  57.779 110.4640  0.00  0.00     0.000 OA
ATOM     52   O  GU6 D   3      22.739  55.892 109.2110  0.00  0.00     0.000 O
ENDBRANCH 39 48
BRANCH 41 53
ATOM     53   C  GU6 D   3      16.870  55.559 110.2100  0.00  0.00     0.000 C
ATOM     54   O  GU6 D   3      17.017  54.471 109.3340  0.00  0.00     0.000 O
ATOM     55   S  GU6 D   3      16.117  53.235 109.4690  0.00  0.00     0.000 S
ATOM     56   O  GU6 D   3      14.740  53.672 109.1430  0.00  0.00     0.000 O
ATOM     57   O  GU6 D   3      16.578  52.214 108.5180  0.00  0.00     0.000 OA
ATOM     58   O  GU6 D   3      16.212  52.775 110.8730  0.00  0.00     0.000 OA
ENDBRANCH 41 53
BRANCH 37 59
ATOM     59  O4  Z9K D   4      18.372  57.771 106.9220  0.00  0.00     0.000 O
BRANCH 59 63
ATOM     60  C1  Z9K D   4      19.041  57.471 103.0610  0.00  0.00     0.000 C
ATOM     61  C2  Z9K D   4      18.873  59.008 103.2190  0.00  0.00     0.000 C
ATOM     62  C3  Z9K D   4      18.787  59.140 104.8010  0.00  0.00     0.000 C
ATOM     63  C4  Z9K D   4      17.868  58.145 105.6070  0.00  0.00     0.000 C
ATOM     64  C5  Z9K D   4      17.616  56.779 104.9510  0.00  0.00     0.000 C
ATOM     65  O5  Z9K D   4      18.850  56.537 104.2250  0.00  0.00     0.000 O
ATOM     66   O  Z9K D   4      18.387  60.451 105.2410  0.00  0.00     0.000 O
ATOM     67   C  Z9K D   4      19.452  61.380 105.3590  0.00  0.00     0.000 C
BRANCH 61 68
ATOM     68   O  Z9K D   4      20.087  59.595 102.8400  0.00  0.00     0.000 O
ATOM     69   O  Z9K D   4      18.104  61.097 102.2370  0.00  0.00     0.000 OA
ATOM     70   S  Z9K D   4      19.070  60.175 101.7200  0.00  0.00     0.000 S
ATOM     71   O  Z9K D   4      18.817  59.156 100.7480  0.00  0.00     0.000 OA
ATOM     72   O  Z9K D   4      20.291  60.843 101.4020  0.00  0.00     0.000 OA
ENDBRANCH 61 68
BRANCH 64 73
ATOM     73   C  Z9K D   4      17.158  55.743 105.9990  0.00  0.00     0.000 C
ATOM     74   O  Z9K D   4      16.005  55.800 106.5170  0.00  0.00     0.000 O
ATOM     75   O  Z9K D   4      17.903  54.804 106.3710  0.00  0.00     0.000 OA
ENDBRANCH 64 73
BRANCH 60 76
ATOM     76  O4  Z9L D   5      18.412  56.596 102.1090  0.00  0.00     0.000 O
BRANCH 76 80
ATOM     77  C1  Z9L D   5      19.004  53.474  99.6850  0.00  0.00     0.000 C
ATOM     78  C2  Z9L D   5      17.954  53.008 100.8040  0.00  0.00     0.000 C
ATOM     79  C3  Z9L D   5      17.360  54.415 101.5300  0.00  0.00     0.000 C
ATOM     80  C4  Z9L D   5      18.742  55.300 101.6810  0.00  0.00     0.000 C
ATOM     81  C5  Z9L D   5      19.928  55.590 100.6280  0.00  0.00     0.000 C
ATOM     82  O5  Z9L D   5      20.174  54.351  99.9450  0.00  0.00     0.000 O
ATOM     83   C  Z9L D   5      19.079  54.451  97.4640  0.00  0.00     0.000 C
ATOM     84   C  Z9L D   5      19.079  54.451  97.4640  0.00  0.00     0.000 C
BRANCH 78 85
ATOM     85   O  Z9L D   5      16.908  52.347 100.1670  0.00  0.00     0.000 O
ATOM     86   O  Z9L D   5      16.540  50.462 100.3090  0.00  0.00     0.000 OA
ATOM     87   S  Z9L D   5      17.535  51.166 101.0590  0.00  0.00     0.000 S
ATOM     88   O  Z9L D   5      17.058  51.150 102.4200  0.00  0.00     0.000 OA
ATOM     89   O  Z9L D   5      18.779  50.634 100.6220  0.00  0.00     0.000 OA
ENDBRANCH 78 85
BRANCH 79 90
ATOM     90   O  Z9L D   5      17.000  54.189 102.8550  0.00  0.00     0.000 O
ATOM     91   S  Z9L D   5      15.607  54.707 102.2850  0.00  0.00     0.000 S
ATOM     92   O  Z9L D   5      14.954  54.085 101.1630  0.00  0.00     0.000 OA
ATOM     93   O  Z9L D   5      15.495  56.126 102.5150  0.00  0.00     0.000 O
ATOM     94   O  Z9L D   5      15.138  54.051 103.4630  0.00  0.00     0.000 OA
ENDBRANCH 79 90
BRANCH 81 95
ATOM     95   C  Z9L D   5      21.244  56.475 101.1750  0.00  0.00     0.000 C
ATOM     96   S  Z9L D   5      23.086  56.356 101.9220  0.00  0.00     0.000 S
ATOM     97   O  Z9L D   5      21.755  55.528 102.0740  0.00  0.00     0.000 O
ATOM     98   O  Z9L D   5      22.886  57.595 102.6310  0.00  0.00     0.000 OA
ATOM     99   O  Z9L D   5      23.689  56.329 100.6320  0.00  0.00     0.000 OA
ATOM    100   O  Z9L D   5      23.552  55.365 102.8600  0.00  0.00     0.000 O
ENDBRANCH 81 95
ENDBRANCH 76 80
ENDBRANCH 60 76
ENDBRANCH 59 63
ENDBRANCH 37 59
ENDBRANCH 36 40
ENDBRANCH 23 36
ENDBRANCH 22 26
ENDBRANCH 1 22
TORSDOF 19
ENDMDL
MODEL 39
REMARK VINA RESULT:       0.0    125.274    130.987
ROOT
ATOM      1  C1  Z9H D   1     136.528 129.303  23.1980  0.00  0.00     0.000 C
ATOM      2  C2  Z9H D   1     136.800 127.862  22.7040  0.00  0.00     0.000 C
ATOM      3  C3  Z9H D   1     137.476 127.309  23.9960  0.00  0.00     0.000 C
ATOM      4  C4  Z9H D   1     138.648 128.198  24.5840  0.00  0.00     0.000 C
ATOM      5  C5  Z9H D   1     138.530 129.761  24.7870  0.00  0.00     0.000 C
ATOM      6  O5  Z9H D   1     137.611 130.119  23.7230  0.00  0.00     0.000 O
ATOM      7   O  Z9H D   1     137.913 125.959  23.8250  0.00  0.00     0.000 O
ATOM      8   C  Z9H D   1     137.027 124.954  24.3450  0.00  0.00     0.000 C
ATOM      9   O  Z9H D   1     138.966 127.629  25.8590  0.00  0.00     0.000 O
ATOM     10   C  Z9H D   1     140.105 126.764  25.8830  0.00  0.00     0.000 C
ENDROOT
BRANCH 2 11
ATOM     11   O  Z9H D   1     135.511 127.307  22.6990  0.00  0.00     0.000 O
ATOM     12   O  Z9H D   1     134.591 126.778  21.1390  0.00  0.00     0.000 OA
ATOM     13   S  Z9H D   1     135.917 127.298  21.1630  0.00  0.00     0.000 S
ATOM     14   O  Z9H D   1     136.934 126.304  20.9710  0.00  0.00     0.000 OA
ATOM     15   O  Z9H D   1     135.945 128.633  20.6110  0.00  0.00     0.000 O
ENDBRANCH 2 11
BRANCH 5 16
ATOM     16   C  Z9H D   1     139.985 130.562  24.9870  0.00  0.00     0.000 C
ATOM     17   S  Z9H D   1     140.897 132.067  25.9580  0.00  0.00     0.000 S
ATOM     18   O  Z9H D   1     139.821 130.925  26.3360  0.00  0.00     0.000 O
ATOM     19   O  Z9H D   1     140.417 133.070  25.0510  0.00  0.00     0.000 O
ATOM     20   O  Z9H D   1     142.201 131.507  25.8820  0.00  0.00     0.000 OA
ATOM     21   O  Z9H D   1     140.652 132.420  27.3260  0.00  0.00     0.000 OA
ENDBRANCH 5 16
BRANCH 1 22
ATOM     22  O4  GU1 D   2     135.556 129.406  24.3010  0.00  0.00     0.000 O
BRANCH 22 26
ATOM     23  C1  GU1 D   2     132.517 131.672  25.9130  0.00  0.00     0.000 C
ATOM     24  C2  GU1 D   2     132.572 131.665  24.3930  0.00  0.00     0.000 C
ATOM     25  C3  GU1 D   2     133.445 130.534  23.9330  0.00  0.00     0.000 C
ATOM     26  C4  GU1 D   2     134.808 130.590  24.6060  0.00  0.00     0.000 C
ATOM     27  C5  GU1 D   2     134.639 130.700  26.1240  0.00  0.00     0.000 C
ATOM     28  O5  GU1 D   2     133.824 131.821  26.4550  0.00  0.00     0.000 O
ATOM     29   O  GU1 D   2     131.283 131.496  23.8140  0.00  0.00     0.000 O
ATOM     30   C  GU1 D   2     130.663 132.714  23.4280  0.00  0.00     0.000 C
ATOM     31   C  GU1 D   2     132.838 129.758  21.7360  0.00  0.00     0.000 C
ATOM     32   O  GU1 D   2     133.628 130.651  22.5180  0.00  0.00     0.000 O
BRANCH 27 33
ATOM     33   C  GU1 D   2     135.972 130.879  26.8110  0.00  0.00     0.000 C
ATOM     34   O  GU1 D   2     136.564 131.928  26.6590  0.00  0.00     0.000 OA
ATOM     35   O  GU1 D   2     136.438 129.988  27.5040  0.00  0.00     0.000 O
ENDBRANCH 27 33
BRANCH 23 36
ATOM     36  O4  GU6 D   3     131.948 132.800  26.6080  0.00  0.00     0.000 O
BRANCH 36 40
ATOM     37  C1  GU6 D   3     131.417 136.293  28.6600  0.00  0.00     0.000 C
ATOM     38  C2  GU6 D   3     130.303 135.275  28.8720  0.00  0.00     0.000 C
ATOM     39  C3  GU6 D   3     130.721 133.944  28.3050  0.00  0.00     0.000 C
ATOM     40  C4  GU6 D   3     131.942 133.902  27.4920  0.00  0.00     0.000 C
ATOM     41  C5  GU6 D   3     132.032 135.196  26.6170  0.00  0.00     0.000 C
ATOM     42  O5  GU6 D   3     131.657 136.416  27.2670  0.00  0.00     0.000 O
BRANCH 38 43
ATOM     43   O  GU6 D   3     130.007 135.142  30.2490  0.00  0.00     0.000 O
ATOM     44   S  GU6 D   3     128.544 135.375  30.6040  0.00  0.00     0.000 S
ATOM     45   O  GU6 D   3     128.311 136.826  30.7020  0.00  0.00     0.000 OA
ATOM     46   O  GU6 D   3     127.705 134.815  29.5290  0.00  0.00     0.000 O
ATOM     47   O  GU6 D   3     128.254 134.703  31.8660  0.00  0.00     0.000 OA
ENDBRANCH 38 43
BRANCH 39 48
ATOM     48   O  GU6 D   3     130.097 132.746  28.7270  0.00  0.00     0.000 O
ATOM     49   S  GU6 D   3     130.548 131.719  29.7650  0.00  0.00     0.000 S
ATOM     50   O  GU6 D   3     130.791 132.376  31.0540  0.00  0.00     0.000 OA
ATOM     51   O  GU6 D   3     129.404 130.801  29.8430  0.00  0.00     0.000 OA
ATOM     52   O  GU6 D   3     131.788 131.067  29.2870  0.00  0.00     0.000 O
ENDBRANCH 39 48
BRANCH 41 53
ATOM     53   C  GU6 D   3     132.473 135.343  25.1860  0.00  0.00     0.000 C
ATOM     54   O  GU6 D   3     133.817 134.974  25.3620  0.00  0.00     0.000 O
ATOM     55   S  GU6 D   3     134.806 135.056  24.1920  0.00  0.00     0.000 S
ATOM     56   O  GU6 D   3     134.952 136.491  23.8560  0.00  0.00     0.000 O
ATOM     57   O  GU6 D   3     136.092 134.490  24.6250  0.00  0.00     0.000 OA
ATOM     58   O  GU6 D   3     134.215 134.303  23.0640  0.00  0.00     0.000 OA
ENDBRANCH 41 53
BRANCH 37 59
ATOM     59  O4  Z9K D   4     132.702 136.264  29.3170  0.00  0.00     0.000 O
BRANCH 59 63
ATOM     60  C1  Z9K D   4     135.309 136.820  32.2050  0.00  0.00     0.000 C
ATOM     61  C2  Z9K D   4     134.105 137.656  32.7210  0.00  0.00     0.000 C
ATOM     62  C3  Z9K D   4     132.995 137.280  31.6460  0.00  0.00     0.000 C
ATOM     63  C4  Z9K D   4     133.375 137.279  30.1170  0.00  0.00     0.000 C
ATOM     64  C5  Z9K D   4     134.855 137.027  29.7900  0.00  0.00     0.000 C
ATOM     65  O5  Z9K D   4     135.276 136.143  30.8620  0.00  0.00     0.000 O
ATOM     66   O  Z9K D   4     131.817 138.103  31.7340  0.00  0.00     0.000 O
ATOM     67   C  Z9K D   4     130.859 137.655  32.6790  0.00  0.00     0.000 C
BRANCH 61 68
ATOM     68   O  Z9K D   4     133.693 137.080  33.9300  0.00  0.00     0.000 O
ATOM     69   O  Z9K D   4     133.347 139.616  33.9460  0.00  0.00     0.000 OA
ATOM     70   S  Z9K D   4     134.183 138.549  34.4080  0.00  0.00     0.000 S
ATOM     71   O  Z9K D   4     135.613 138.569  34.4600  0.00  0.00     0.000 OA
ATOM     72   O  Z9K D   4     133.672 137.987  35.6160  0.00  0.00     0.000 OA
ENDBRANCH 61 68
BRANCH 64 73
ATOM     73   C  Z9K D   4     135.022 136.555  28.3300  0.00  0.00     0.000 C
ATOM     74   O  Z9K D   4     134.857 137.352  27.3610  0.00  0.00     0.000 O
ATOM     75   O  Z9K D   4     135.333 135.372  28.0490  0.00  0.00     0.000 OA
ENDBRANCH 64 73
BRANCH 60 76
ATOM     76  O4  Z9L D   5     136.689 137.209  32.1020  0.00  0.00     0.000 O
BRANCH 76 80
ATOM     77  C1  Z9L D   5     140.456 135.985  32.6390  0.00  0.00     0.000 C
ATOM     78  C2  Z9L D   5     140.267 136.247  31.0690  0.00  0.00     0.000 C
ATOM     79  C3  Z9L D   5     138.868 137.182  30.8970  0.00  0.00     0.000 C
ATOM     80  C4  Z9L D   5     137.862 136.446  31.9740  0.00  0.00     0.000 C
ATOM     81  C5  Z9L D   5     138.113 135.965  33.4930  0.00  0.00     0.000 C
ATOM     82  O5  Z9L D   5     139.423 135.381  33.5200  0.00  0.00     0.000 O
ATOM     83   C  Z9L D   5     141.166 137.117  34.6660  0.00  0.00     0.000 C
ATOM     84   C  Z9L D   5     141.166 137.117  34.6660  0.00  0.00     0.000 C
BRANCH 78 85
ATOM     85   O  Z9L D   5     141.362 136.978  30.6180  0.00  0.00     0.000 O
ATOM     86   O  Z9L D   5     142.727 136.310  29.4340  0.00  0.00     0.000 OA
ATOM     87   S  Z9L D   5     141.536 135.606  29.8000  0.00  0.00     0.000 S
ATOM     88   O  Z9L D   5     140.751 135.546  28.5910  0.00  0.00     0.000 OA
ATOM     89   O  Z9L D   5     141.981 134.477  30.5430  0.00  0.00     0.000 OA
ENDBRANCH 78 85
BRANCH 79 90
ATOM     90   O  Z9L D   5     138.240 136.937  29.6790  0.00  0.00     0.000 O
ATOM     91   S  Z9L D   5     138.487 138.504  29.5410  0.00  0.00     0.000 S
ATOM     92   O  Z9L D   5     139.796 139.091  29.6600  0.00  0.00     0.000 OA
ATOM     93   O  Z9L D   5     137.313 139.214  29.9840  0.00  0.00     0.000 O
ATOM     94   O  Z9L D   5     138.292 138.183  28.1640  0.00  0.00     0.000 OA
ENDBRANCH 79 90
BRANCH 81 95
ATOM     95   C  Z9L D   5     136.860 135.154  34.2590  0.00  0.00     0.000 C
ATOM     96   S  Z9L D   5     136.120 133.362  34.7130  0.00  0.00     0.000 S
ATOM     97   O  Z9L D   5     136.879 133.987  33.4830  0.00  0.00     0.000 O
ATOM     98   O  Z9L D   5     134.784 133.900  34.6930  0.00  0.00     0.000 OA
ATOM     99   O  Z9L D   5     136.867 133.275  35.9220  0.00  0.00     0.000 OA
ATOM    100   O  Z9L D   5     136.154 132.198  33.8620  0.00  0.00     0.000 O
ENDBRANCH 81 95
ENDBRANCH 76 80
ENDBRANCH 60 76
ENDBRANCH 59 63
ENDBRANCH 37 59
ENDBRANCH 36 40
ENDBRANCH 23 36
ENDBRANCH 22 26
ENDBRANCH 1 22
TORSDOF 19
ENDMDL
MODEL 40
REMARK VINA RESULT:       0.0    105.083    111.385
ROOT
ATOM      1  C1  Z9H D   1      96.182 117.506 120.3390  0.00  0.00     0.000 C
ATOM      2  C2  Z9H D   1      94.679 117.268 120.0590  0.00  0.00     0.000 C
ATOM      3  C3  Z9H D   1      94.098 118.095 121.2460  0.00  0.00     0.000 C
ATOM      4  C4  Z9H D   1      94.717 117.769 122.6680  0.00  0.00     0.000 C
ATOM      5  C5  Z9H D   1      96.272 117.661 122.9290  0.00  0.00     0.000 C
ATOM      6  O5  Z9H D   1      96.747 117.192 121.6420  0.00  0.00     0.000 O
ATOM      7   O  Z9H D   1      92.672 118.015 121.2950  0.00  0.00     0.000 O
ATOM      8   C  Z9H D   1      91.973 119.126 120.7100  0.00  0.00     0.000 C
ATOM      9   O  Z9H D   1      94.209 118.773 123.5530  0.00  0.00     0.000 O
ATOM     10   C  Z9H D   1      93.093 118.381 124.3570  0.00  0.00     0.000 C
ENDROOT
BRANCH 2 11
ATOM     11   O  Z9H D   1      94.465 118.062 118.9210  0.00  0.00     0.000 O
ATOM     12   O  Z9H D   1      94.039 117.377 117.2160  0.00  0.00     0.000 OA
ATOM     13   S  Z9H D   1      94.212 116.587 118.3880  0.00  0.00     0.000 S
ATOM     14   O  Z9H D   1      92.982 116.109 118.9520  0.00  0.00     0.000 OA
ATOM     15   O  Z9H D   1      95.440 115.830 118.3090  0.00  0.00     0.000 O
ENDBRANCH 2 11
BRANCH 5 16
ATOM     16   C  Z9H D   1      96.700 116.886 124.3490  0.00  0.00     0.000 C
ATOM     17   S  Z9H D   1      98.014 116.881 125.8710  0.00  0.00     0.000 S
ATOM     18   O  Z9H D   1      97.216 118.005 125.0300  0.00  0.00     0.000 O
ATOM     19   O  Z9H D   1      99.016 116.171 125.1290  0.00  0.00     0.000 O
ATOM     20   O  Z9H D   1      97.141 116.253 126.8000  0.00  0.00     0.000 OA
ATOM     21   O  Z9H D   1      98.542 118.059 126.4940  0.00  0.00     0.000 OA
ENDBRANCH 5 16
BRANCH 1 22
ATOM     22  O4  GU1 D   2      96.627 118.903 120.1840  0.00  0.00     0.000 O
BRANCH 22 26
ATOM     23  C1  GU1 D   2      99.720 121.338 118.9710  0.00  0.00     0.000 C
ATOM     24  C2  GU1 D   2      99.557 120.061 118.1620  0.00  0.00     0.000 C
ATOM     25  C3  GU1 D   2      98.206 119.467 118.4370  0.00  0.00     0.000 C
ATOM     26  C4  GU1 D   2      97.982 119.291 119.9320  0.00  0.00     0.000 C
ATOM     27  C5  GU1 D   2      98.273 120.605 120.6630  0.00  0.00     0.000 C
ATOM     28  O5  GU1 D   2      99.587 121.064 120.3610  0.00  0.00     0.000 O
ATOM     29   O  GU1 D   2      99.662 120.299 116.7630  0.00  0.00     0.000 O
ATOM     30   C  GU1 D   2     100.954 120.045 116.2320  0.00  0.00     0.000 C
ATOM     31   C  GU1 D   2      97.405 118.147 116.5900  0.00  0.00     0.000 C
ATOM     32   O  GU1 D   2      98.141 118.182 117.8100  0.00  0.00     0.000 O
BRANCH 27 33
ATOM     33   C  GU1 D   2      98.177 120.430 122.1600  0.00  0.00     0.000 C
ATOM     34   O  GU1 D   2      99.026 119.768 122.7200  0.00  0.00     0.000 OA
ATOM     35   O  GU1 D   2      97.267 120.948 122.7890  0.00  0.00     0.000 O
ENDBRANCH 27 33
BRANCH 23 36
ATOM     36  O4  GU6 D   3     101.013 121.966 119.0750  0.00  0.00     0.000 O
BRANCH 36 40
ATOM     37  C1  GU6 D   3     104.704 123.179 120.3390  0.00  0.00     0.000 C
ATOM     38  C2  GU6 D   3     104.021 124.159 119.3930  0.00  0.00     0.000 C
ATOM     39  C3  GU6 D   3     102.581 123.760 119.2070  0.00  0.00     0.000 C
ATOM     40  C4  GU6 D   3     102.160 122.459 119.7370  0.00  0.00     0.000 C
ATOM     41  C5  GU6 D   3     103.303 121.412 119.5220  0.00  0.00     0.000 C
ATOM     42  O5  GU6 D   3     104.633 121.880 119.7720  0.00  0.00     0.000 O
BRANCH 38 43
ATOM     43   O  GU6 D   3     104.095 125.476 119.9040  0.00  0.00     0.000 O
ATOM     44   S  GU6 D   3     104.718 126.487 118.9500  0.00  0.00     0.000 S
ATOM     45   O  GU6 D   3     106.184 126.377 119.0420  0.00  0.00     0.000 OA
ATOM     46   O  GU6 D   3     104.288 126.165 117.5770  0.00  0.00     0.000 O
ATOM     47   O  GU6 D   3     104.261 127.824 119.3170  0.00  0.00     0.000 OA
ENDBRANCH 38 43
BRANCH 39 48
ATOM     48   O  GU6 D   3     101.622 124.694 118.7500  0.00  0.00     0.000 O
ATOM     49   S  GU6 D   3     100.616 125.532 119.5380  0.00  0.00     0.000 S
ATOM     50   O  GU6 D   3     101.309 126.324 120.5610  0.00  0.00     0.000 OA
ATOM     51   O  GU6 D   3     100.024 126.397 118.5080  0.00  0.00     0.000 OA
ATOM     52   O  GU6 D   3      99.634 124.628 120.1760  0.00  0.00     0.000 O
ENDBRANCH 39 48
BRANCH 41 53
ATOM     53   C  GU6 D   3     103.200 119.971 119.1010  0.00  0.00     0.000 C
ATOM     54   O  GU6 D   3     102.526 119.489 120.2340  0.00  0.00     0.000 O
ATOM     55   S  GU6 D   3     102.249 117.988 120.3950  0.00  0.00     0.000 S
ATOM     56   O  GU6 D   3     103.564 117.325 120.5500  0.00  0.00     0.000 O
ATOM     57   O  GU6 D   3     101.423 117.790 121.5950  0.00  0.00     0.000 OA
ATOM     58   O  GU6 D   3     101.565 117.533 119.1640  0.00  0.00     0.000 OA
ENDBRANCH 41 53
BRANCH 37 59
ATOM     59  O4  Z9K D   4     104.417 123.049 121.7470  0.00  0.00     0.000 O
BRANCH 59 63
ATOM     60  C1  Z9K D   4     104.572 123.934 125.5740  0.00  0.00     0.000 C
ATOM     61  C2  Z9K D   4     105.727 124.811 125.0150  0.00  0.00     0.000 C
ATOM     62  C3  Z9K D   4     105.541 124.592 123.4510  0.00  0.00     0.000 C
ATOM     63  C4  Z9K D   4     105.302 123.134 122.9020  0.00  0.00     0.000 C
ATOM     64  C5  Z9K D   4     104.660 122.141 123.8820  0.00  0.00     0.000 C
ATOM     65  O5  Z9K D   4     103.803 122.993 124.6880  0.00  0.00     0.000 O
ATOM     66   O  Z9K D   4     106.636 125.106 122.6710  0.00  0.00     0.000 O
ATOM     67   C  Z9K D   4     106.533 126.484 122.3510  0.00  0.00     0.000 C
BRANCH 61 68
ATOM     68   O  Z9K D   4     105.388 126.147 125.2680  0.00  0.00     0.000 O
ATOM     69   O  Z9K D   4     107.920 125.794 125.3910  0.00  0.00     0.000 OA
ATOM     70   S  Z9K D   4     106.726 125.965 126.1630  0.00  0.00     0.000 S
ATOM     71   O  Z9K D   4     106.393 125.251 127.3580  0.00  0.00     0.000 OA
ATOM     72   O  Z9K D   4     106.425 127.349 126.3380  0.00  0.00     0.000 OA
ENDBRANCH 61 68
BRANCH 64 73
ATOM     73   C  Z9K D   4     104.027 120.954 123.1260  0.00  0.00     0.000 C
ATOM     74   O  Z9K D   4     104.745 120.072 122.5720  0.00  0.00     0.000 O
ATOM     75   O  Z9K D   4     102.782 120.815 123.0360  0.00  0.00     0.000 OA
ENDBRANCH 64 73
BRANCH 60 76
ATOM     76  O4  Z9L D   5     104.593 123.039 126.6990  0.00  0.00     0.000 O
BRANCH 76 80
ATOM     77  C1  Z9L D   5     102.524 121.765 129.8720  0.00  0.00     0.000 C
ATOM     78  C2  Z9L D   5     102.677 120.516 128.8780  0.00  0.00     0.000 C
ATOM     79  C3  Z9L D   5     103.911 120.908 127.7900  0.00  0.00     0.000 C
ATOM     80  C4  Z9L D   5     103.553 122.482 127.4610  0.00  0.00     0.000 C
ATOM     81  C5  Z9L D   5     103.169 123.704 128.4420  0.00  0.00     0.000 C
ATOM     82  O5  Z9L D   5     102.282 123.163 129.4320  0.00  0.00     0.000 O
ATOM     83   C  Z9L D   5     103.627 122.814 131.7630  0.00  0.00     0.000 C
ATOM     84   C  Z9L D   5     103.627 122.814 131.7630  0.00  0.00     0.000 C
BRANCH 78 85
ATOM     85   O  Z9L D   5     103.065 119.411 129.6300  0.00  0.00     0.000 O
ATOM     86   O  Z9L D   5     101.970 117.864 129.9720  0.00  0.00     0.000 OA
ATOM     87   S  Z9L D   5     101.623 118.943 129.0980  0.00  0.00     0.000 S
ATOM     88   O  Z9L D   5     101.648 118.374 127.7730  0.00  0.00     0.000 OA
ATOM     89   O  Z9L D   5     100.494 119.564 129.7010  0.00  0.00     0.000 OA
ENDBRANCH 78 85
BRANCH 79 90
ATOM     90   O  Z9L D   5     103.717 120.290 126.5580  0.00  0.00     0.000 O
ATOM     91   S  Z9L D   5     105.153 119.707 126.9270  0.00  0.00     0.000 S
ATOM     92   O  Z9L D   5     105.403 118.990 128.1500  0.00  0.00     0.000 OA
ATOM     93   O  Z9L D   5     106.172 120.536 126.3310  0.00  0.00     0.000 O
ATOM     94   O  Z9L D   5     104.764 118.746 125.9450  0.00  0.00     0.000 OA
ENDBRANCH 79 90
BRANCH 81 95
ATOM     95   C  Z9L D   5     102.772 125.168 127.7270  0.00  0.00     0.000 C
ATOM     96   S  Z9L D   5     101.272 126.317 127.0990  0.00  0.00     0.000 S
ATOM     97   O  Z9L D   5     101.570 124.771 127.1240  0.00  0.00     0.000 O
ATOM     98   O  Z9L D   5     102.122 126.888 126.0860  0.00  0.00     0.000 OA
ATOM     99   O  Z9L D   5     101.115 126.938 128.3710  0.00  0.00     0.000 OA
ATOM    100   O  Z9L D   5     100.061 125.851 126.4690  0.00  0.00     0.000 O
ENDBRANCH 81 95
ENDBRANCH 76 80
ENDBRANCH 60 76
ENDBRANCH 59 63
ENDBRANCH 37 59
ENDBRANCH 36 40
ENDBRANCH 23 36
ENDBRANCH 22 26
ENDBRANCH 1 22
TORSDOF 19
ENDMDL
MODEL 41
REMARK VINA RESULT:       0.0    133.616    138.124
ROOT
ATOM      1  C1  Z9H D   1     137.201  94.243 144.3630  0.00  0.00     0.000 C
ATOM      2  C2  Z9H D   1     137.079  94.029 145.8910  0.00  0.00     0.000 C
ATOM      3  C3  Z9H D   1     138.592  94.143 146.2520  0.00  0.00     0.000 C
ATOM      4  C4  Z9H D   1     139.567  93.244 145.3850  0.00  0.00     0.000 C
ATOM      5  C5  Z9H D   1     139.498  93.167 143.8080  0.00  0.00     0.000 C
ATOM      6  O5  Z9H D   1     138.087  93.405 143.5710  0.00  0.00     0.000 O
ATOM      7   O  Z9H D   1     138.819  93.921 147.6450  0.00  0.00     0.000 O
ATOM      8   C  Z9H D   1     138.955  95.108 148.4440  0.00  0.00     0.000 C
ATOM      9   O  Z9H D   1     140.892  93.663 145.7300  0.00  0.00     0.000 O
ATOM     10   C  Z9H D   1     141.572  92.839 146.6810  0.00  0.00     0.000 C
ENDROOT
BRANCH 2 11
ATOM     11   O  Z9H D   1     136.511  95.242 146.3110  0.00  0.00     0.000 O
ATOM     12   O  Z9H D   1     134.776  95.405 147.0340  0.00  0.00     0.000 OA
ATOM     13   S  Z9H D   1     135.383  94.175 146.6490  0.00  0.00     0.000 S
ATOM     14   O  Z9H D   1     135.833  93.379 147.7550  0.00  0.00     0.000 OA
ATOM     15   O  Z9H D   1     134.760  93.659 145.4520  0.00  0.00     0.000 O
ENDBRANCH 2 11
BRANCH 5 16
ATOM     16   C  Z9H D   1     140.287  91.858 143.1270  0.00  0.00     0.000 C
ATOM     17   S  Z9H D   1     141.393  91.256 141.5600  0.00  0.00     0.000 S
ATOM     18   O  Z9H D   1     141.330  92.566 142.5020  0.00  0.00     0.000 O
ATOM     19   O  Z9H D   1     140.255  91.073 140.7050  0.00  0.00     0.000 O
ATOM     20   O  Z9H D   1     142.031  90.188 142.2480  0.00  0.00     0.000 OA
ATOM     21   O  Z9H D   1     142.413  92.045 140.9330  0.00  0.00     0.000 OA
ENDBRANCH 5 16
BRANCH 1 22
ATOM     22  O4  GU1 D   2     137.667  95.581 143.9600  0.00  0.00     0.000 O
BRANCH 22 26
ATOM     23  C1  GU1 D   2     137.303  98.570 141.1490  0.00  0.00     0.000 C
ATOM     24  C2  GU1 D   2     136.018  97.814 141.4490  0.00  0.00     0.000 C
ATOM     25  C3  GU1 D   2     136.181  97.042 142.7260  0.00  0.00     0.000 C
ATOM     26  C4  GU1 D   2     137.423  96.164 142.6740  0.00  0.00     0.000 C
ATOM     27  C5  GU1 D   2     138.640  96.999 142.2630  0.00  0.00     0.000 C
ATOM     28  O5  GU1 D   2     138.393  97.664 141.0270  0.00  0.00     0.000 O
ATOM     29   O  GU1 D   2     134.908  98.691 141.5990  0.00  0.00     0.000 O
ATOM     30   C  GU1 D   2     134.125  98.835 140.4220  0.00  0.00     0.000 C
ATOM     31   C  GU1 D   2     134.079  96.680 143.8400  0.00  0.00     0.000 C
ATOM     32   O  GU1 D   2     135.035  96.203 142.8960  0.00  0.00     0.000 O
BRANCH 27 33
ATOM     33   C  GU1 D   2     139.863  96.132 142.0870  0.00  0.00     0.000 C
ATOM     34   O  GU1 D   2     139.897  95.364 141.1470  0.00  0.00     0.000 OA
ATOM     35   O  GU1 D   2     140.796  96.208 142.8710  0.00  0.00     0.000 O
ENDBRANCH 27 33
BRANCH 23 36
ATOM     36  O4  GU6 D   3     137.492  99.189 139.8610  0.00  0.00     0.000 O
BRANCH 36 40
ATOM     37  C1  GU6 D   3     138.588  99.992 136.0080  0.00  0.00     0.000 C
ATOM     38  C2  GU6 D   3     138.348 101.236 136.8540  0.00  0.00     0.000 C
ATOM     39  C3  GU6 D   3     138.220 100.843 138.3030  0.00  0.00     0.000 C
ATOM     40  C4  GU6 D   3     138.121  99.413 138.6150  0.00  0.00     0.000 C
ATOM     41  C5  GU6 D   3     137.255  98.700 137.5260  0.00  0.00     0.000 C
ATOM     42  O5  GU6 D   3     137.487  99.112 136.1740  0.00  0.00     0.000 O
BRANCH 38 43
ATOM     43   O  GU6 D   3     139.409 102.158 136.6960  0.00  0.00     0.000 O
ATOM     44   S  GU6 D   3     138.972 103.551 136.2600  0.00  0.00     0.000 S
ATOM     45   O  GU6 D   3     138.770 103.543 134.8010  0.00  0.00     0.000 OA
ATOM     46   O  GU6 D   3     137.699 103.876 136.9290  0.00  0.00     0.000 O
ATOM     47   O  GU6 D   3     140.001 104.510 136.6500  0.00  0.00     0.000 OA
ENDBRANCH 38 43
BRANCH 39 48
ATOM     48   O  GU6 D   3     138.423 101.792 139.3330  0.00  0.00     0.000 O
ATOM     49   S  GU6 D   3     139.663 102.065 140.1840  0.00  0.00     0.000 S
ATOM     50   O  GU6 D   3     140.818 102.341 139.3220  0.00  0.00     0.000 OA
ATOM     51   O  GU6 D   3     139.281 103.255 140.9560  0.00  0.00     0.000 OA
ATOM     52   O  GU6 D   3     139.934 100.882 141.0310  0.00  0.00     0.000 O
ENDBRANCH 39 48
BRANCH 41 53
ATOM     53   C  GU6 D   3     136.217  97.623 137.6960  0.00  0.00     0.000 C
ATOM     54   O  GU6 D   3     137.070  96.606 138.1520  0.00  0.00     0.000 O
ATOM     55   S  GU6 D   3     136.533  95.188 138.3880  0.00  0.00     0.000 S
ATOM     56   O  GU6 D   3     136.143  94.652 137.0640  0.00  0.00     0.000 O
ATOM     57   O  GU6 D   3     137.604  94.375 138.9830  0.00  0.00     0.000 OA
ATOM     58   O  GU6 D   3     135.359  95.306 139.2820  0.00  0.00     0.000 OA
ENDBRANCH 41 53
BRANCH 37 59
ATOM     59  O4  Z9K D   4     139.787  99.190 136.0350  0.00  0.00     0.000 O
BRANCH 59 63
ATOM     60  C1  Z9K D   4     143.491  98.179 135.1960  0.00  0.00     0.000 C
ATOM     61  C2  Z9K D   4     143.249  99.317 134.1660  0.00  0.00     0.000 C
ATOM     62  C3  Z9K D   4     141.822  99.844 134.6290  0.00  0.00     0.000 C
ATOM     63  C4  Z9K D   4     140.687  98.801 134.9570  0.00  0.00     0.000 C
ATOM     64  C5  Z9K D   4     141.158  97.410 135.4070  0.00  0.00     0.000 C
ATOM     65  O5  Z9K D   4     142.396  97.701 136.1090  0.00  0.00     0.000 O
ATOM     66   O  Z9K D   4     141.224 100.761 133.6960  0.00  0.00     0.000 O
ATOM     67   C  Z9K D   4     141.625 102.111 133.8620  0.00  0.00     0.000 C
BRANCH 61 68
ATOM     68   O  Z9K D   4     144.161 100.339 134.4600  0.00  0.00     0.000 O
ATOM     69   O  Z9K D   4     143.703 100.201 131.9450  0.00  0.00     0.000 OA
ATOM     70   S  Z9K D   4     144.638  99.879 132.9810  0.00  0.00     0.000 S
ATOM     71   O  Z9K D   4     145.380  98.660 133.0890  0.00  0.00     0.000 OA
ATOM     72   O  Z9K D   4     145.499 100.985 133.2520  0.00  0.00     0.000 OA
ENDBRANCH 61 68
BRANCH 64 73
ATOM     73   C  Z9K D   4     140.035  96.667 136.1610  0.00  0.00     0.000 C
ATOM     74   O  Z9K D   4     139.021  96.218 135.5500  0.00  0.00     0.000 O
ATOM     75   O  Z9K D   4     140.085  96.474 137.4000  0.00  0.00     0.000 OA
ENDBRANCH 64 73
BRANCH 60 76
ATOM     76  O4  Z9L D   5     144.031  96.866 134.9680  0.00  0.00     0.000 O
BRANCH 76 80
ATOM     77  C1  Z9L D   5     146.484  94.067 136.4250  0.00  0.00     0.000 C
ATOM     78  C2  Z9L D   5     145.003  93.452 136.4480  0.00  0.00     0.000 C
ATOM     79  C3  Z9L D   5     144.059  94.421 135.4320  0.00  0.00     0.000 C
ATOM     80  C4  Z9L D   5     144.585  95.925 135.8510  0.00  0.00     0.000 C
ATOM     81  C5  Z9L D   5     146.077  96.500 136.0580  0.00  0.00     0.000 C
ATOM     82  O5  Z9L D   5     146.811  95.479 136.7500  0.00  0.00     0.000 O
ATOM     83   C  Z9L D   5     148.447  94.198 135.0040  0.00  0.00     0.000 C
ATOM     84   C  Z9L D   5     148.447  94.198 135.0040  0.00  0.00     0.000 C
BRANCH 78 85
ATOM     85   O  Z9L D   5     145.062  92.164 135.9250  0.00  0.00     0.000 O
ATOM     86   O  Z9L D   5     144.787  90.546 136.9330  0.00  0.00     0.000 OA
ATOM     87   S  Z9L D   5     144.604  91.873 137.4370  0.00  0.00     0.000 S
ATOM     88   O  Z9L D   5     143.183  92.000 137.6490  0.00  0.00     0.000 OA
ATOM     89   O  Z9L D   5     145.598  92.032 138.4420  0.00  0.00     0.000 OA
ENDBRANCH 78 85
BRANCH 79 90
ATOM     90   O  Z9L D   5     142.729  94.440 135.8420  0.00  0.00     0.000 O
ATOM     91   S  Z9L D   5     142.544  93.885 134.3610  0.00  0.00     0.000 S
ATOM     92   O  Z9L D   5     143.217  92.704 133.8910  0.00  0.00     0.000 OA
ATOM     93   O  Z9L D   5     142.267  94.985 133.4700  0.00  0.00     0.000 O
ATOM     94   O  Z9L D   5     141.296  93.469 134.9150  0.00  0.00     0.000 OA
ENDBRANCH 79 90
BRANCH 81 95
ATOM     95   C  Z9L D   5     146.224  98.086 136.5840  0.00  0.00     0.000 C
ATOM     96   S  Z9L D   5     146.467  99.254 138.1790  0.00  0.00     0.000 S
ATOM     97   O  Z9L D   5     145.701  97.912 137.8740  0.00  0.00     0.000 O
ATOM     98   O  Z9L D   5     145.733 100.308 137.5280  0.00  0.00     0.000 OA
ATOM     99   O  Z9L D   5     147.887  99.186 138.1060  0.00  0.00     0.000 OA
ATOM    100   O  Z9L D   5     145.888  99.032 139.4810  0.00  0.00     0.000 O
ENDBRANCH 81 95
ENDBRANCH 76 80
ENDBRANCH 60 76
ENDBRANCH 59 63
ENDBRANCH 37 59
ENDBRANCH 36 40
ENDBRANCH 23 36
ENDBRANCH 22 26
ENDBRANCH 1 22
TORSDOF 19
ENDMDL
MODEL 42
REMARK VINA RESULT:       0.0     76.686     83.510
ROOT
ATOM      1  C1  Z9H D   1      92.839  39.629 115.1640  0.00  0.00     0.000 C
ATOM      2  C2  Z9H D   1      94.108  40.240 114.5240  0.00  0.00     0.000 C
ATOM      3  C3  Z9H D   1      95.020  38.977 114.5870  0.00  0.00     0.000 C
ATOM      4  C4  Z9H D   1      95.091  38.260 115.9980  0.00  0.00     0.000 C
ATOM      5  C5  Z9H D   1      93.810  37.920 116.8600  0.00  0.00     0.000 C
ATOM      6  O5  Z9H D   1      92.908  38.985 116.4660  0.00  0.00     0.000 O
ATOM      7   O  Z9H D   1      96.335  39.252 114.1030  0.00  0.00     0.000 O
ATOM      8   C  Z9H D   1      96.584  38.865 112.7410  0.00  0.00     0.000 C
ATOM      9   O  Z9H D   1      95.788  37.030 115.7750  0.00  0.00     0.000 O
ATOM     10   C  Z9H D   1      97.177  37.036 116.1190  0.00  0.00     0.000 C
ENDROOT
BRANCH 2 11
ATOM     11   O  Z9H D   1      93.731  40.353 113.1770  0.00  0.00     0.000 O
ATOM     12   O  Z9H D   1      93.495  41.993 112.2750  0.00  0.00     0.000 OA
ATOM     13   S  Z9H D   1      93.924  41.864 113.6270  0.00  0.00     0.000 S
ATOM     14   O  Z9H D   1      95.326  42.102 113.8160  0.00  0.00     0.000 OA
ATOM     15   O  Z9H D   1      92.879  42.289 114.5300  0.00  0.00     0.000 O
ENDBRANCH 2 11
BRANCH 5 16
ATOM     16   C  Z9H D   1      94.109  37.584 118.4720  0.00  0.00     0.000 C
ATOM     17   S  Z9H D   1      93.555  36.440 120.0290  0.00  0.00     0.000 S
ATOM     18   O  Z9H D   1      93.784  36.216 118.4470  0.00  0.00     0.000 O
ATOM     19   O  Z9H D   1      92.434  37.272 120.3630  0.00  0.00     0.000 O
ATOM     20   O  Z9H D   1      94.805  36.511 120.7010  0.00  0.00     0.000 OA
ATOM     21   O  Z9H D   1      93.187  35.058 119.9330  0.00  0.00     0.000 OA
ENDBRANCH 5 16
BRANCH 1 22
ATOM     22  O4  GU1 D   2      92.198  38.564 114.3720  0.00  0.00     0.000 O
BRANCH 22 26
ATOM     23  C1  GU1 D   2      88.601  36.884 113.2730  0.00  0.00     0.000 C
ATOM     24  C2  GU1 D   2      88.574  38.395 113.4500  0.00  0.00     0.000 C
ATOM     25  C3  GU1 D   2      89.981  38.919 113.4660  0.00  0.00     0.000 C
ATOM     26  C4  GU1 D   2      90.822  38.185 114.5000  0.00  0.00     0.000 C
ATOM     27  C5  GU1 D   2      90.698  36.672 114.2980  0.00  0.00     0.000 C
ATOM     28  O5  GU1 D   2      89.330  36.275 114.3320  0.00  0.00     0.000 O
ATOM     29   O  GU1 D   2      87.871  39.042 112.3960  0.00  0.00     0.000 O
ATOM     30   C  GU1 D   2      86.517  39.341 112.7070  0.00  0.00     0.000 C
ATOM     31   C  GU1 D   2      90.105  41.201 112.7120  0.00  0.00     0.000 C
ATOM     32   O  GU1 D   2      89.942  40.307 113.8110  0.00  0.00     0.000 O
BRANCH 27 33
ATOM     33   C  GU1 D   2      91.426  35.914 115.3830  0.00  0.00     0.000 C
ATOM     34   O  GU1 D   2      90.975  35.943 116.5100  0.00  0.00     0.000 OA
ATOM     35   O  GU1 D   2      92.442  35.286 115.1270  0.00  0.00     0.000 O
ENDBRANCH 27 33
BRANCH 23 36
ATOM     36  O4  GU6 D   3      87.399  36.114 113.4690  0.00  0.00     0.000 O
BRANCH 36 40
ATOM     37  C1  GU6 D   3      84.441  33.774 115.0430  0.00  0.00     0.000 C
ATOM     38  C2  GU6 D   3      84.543  33.705 113.5240  0.00  0.00     0.000 C
ATOM     39  C3  GU6 D   3      85.815  34.374 113.0720  0.00  0.00     0.000 C
ATOM     40  C4  GU6 D   3      86.577  35.133 114.0690  0.00  0.00     0.000 C
ATOM     41  C5  GU6 D   3      85.589  35.881 115.0240  0.00  0.00     0.000 C
ATOM     42  O5  GU6 D   3      84.434  35.139 115.4330  0.00  0.00     0.000 O
BRANCH 38 43
ATOM     43   O  GU6 D   3      84.522  32.360 113.0850  0.00  0.00     0.000 O
ATOM     44   S  GU6 D   3      83.439  32.049 112.0600  0.00  0.00     0.000 S
ATOM     45   O  GU6 D   3      82.170  31.828 112.7730  0.00  0.00     0.000 OA
ATOM     46   O  GU6 D   3      83.299  33.206 111.1580  0.00  0.00     0.000 O
ATOM     47   O  GU6 D   3      83.836  30.868 111.3010  0.00  0.00     0.000 OA
ENDBRANCH 38 43
BRANCH 39 48
ATOM     48   O  GU6 D   3      86.373  34.091 111.8030  0.00  0.00     0.000 O
ATOM     49   S  GU6 D   3      87.501  33.134 111.4200  0.00  0.00     0.000 S
ATOM     50   O  GU6 D   3      87.200  31.780 111.8990  0.00  0.00     0.000 OA
ATOM     51   O  GU6 D   3      87.500  33.189 109.9520  0.00  0.00     0.000 OA
ATOM     52   O  GU6 D   3      88.764  33.615 112.0220  0.00  0.00     0.000 O
ENDBRANCH 39 48
BRANCH 41 53
ATOM     53   C  GU6 D   3      85.688  37.272 115.5900  0.00  0.00     0.000 C
ATOM     54   O  GU6 D   3      86.826  37.073 116.3880  0.00  0.00     0.000 O
ATOM     55   S  GU6 D   3      87.331  38.186 117.3150  0.00  0.00     0.000 S
ATOM     56   O  GU6 D   3      86.292  38.382 118.3530  0.00  0.00     0.000 O
ATOM     57   O  GU6 D   3      88.597  37.752 117.9220  0.00  0.00     0.000 OA
ATOM     58   O  GU6 D   3      87.494  39.404 116.4900  0.00  0.00     0.000 OA
ENDBRANCH 41 53
BRANCH 37 59
ATOM     59  O4  Z9K D   4      85.299  33.068 115.9640  0.00  0.00     0.000 O
BRANCH 59 63
ATOM     60  C1  Z9K D   4      86.632  30.031 118.0730  0.00  0.00     0.000 C
ATOM     61  C2  Z9K D   4      85.250  29.493 117.6100  0.00  0.00     0.000 C
ATOM     62  C3  Z9K D   4      84.797  30.644 116.6110  0.00  0.00     0.000 C
ATOM     63  C4  Z9K D   4      84.968  32.150 117.0460  0.00  0.00     0.000 C
ATOM     64  C5  Z9K D   4      86.078  32.434 118.0690  0.00  0.00     0.000 C
ATOM     65  O5  Z9K D   4      87.077  31.431 117.7480  0.00  0.00     0.000 O
ATOM     66   O  Z9K D   4      83.423  30.533 116.1990  0.00  0.00     0.000 O
ATOM     67   C  Z9K D   4      83.211  29.675 115.0900  0.00  0.00     0.000 C
BRANCH 61 68
ATOM     68   O  Z9K D   4      85.492  28.360 116.8210  0.00  0.00     0.000 O
ATOM     69   O  Z9K D   4      83.305  28.127 118.1280  0.00  0.00     0.000 OA
ATOM     70   S  Z9K D   4      84.679  27.730 118.0720  0.00  0.00     0.000 S
ATOM     71   O  Z9K D   4      85.563  27.614 119.1910  0.00  0.00     0.000 OA
ATOM     72   O  Z9K D   4      84.849  26.601 117.2150  0.00  0.00     0.000 OA
ENDBRANCH 61 68
BRANCH 64 73
ATOM     73   C  Z9K D   4      86.485  33.923 118.0390  0.00  0.00     0.000 C
ATOM     74   O  Z9K D   4      85.719  34.821 118.4940  0.00  0.00     0.000 O
ATOM     75   O  Z9K D   4      87.587  34.298 117.5700  0.00  0.00     0.000 OA
ENDBRANCH 64 73
BRANCH 60 76
ATOM     76  O4  Z9L D   5      87.191  30.038 119.3970  0.00  0.00     0.000 O
BRANCH 76 80
ATOM     77  C1  Z9L D   5      90.530  29.454 121.5150  0.00  0.00     0.000 C
ATOM     78  C2  Z9L D   5      90.137  31.000 121.6740  0.00  0.00     0.000 C
ATOM     79  C3  Z9L D   5      88.524  31.145 121.1840  0.00  0.00     0.000 C
ATOM     80  C4  Z9L D   5      88.514  30.185 119.8450  0.00  0.00     0.000 C
ATOM     81  C5  Z9L D   5      89.113  28.708 119.6020  0.00  0.00     0.000 C
ATOM     82  O5  Z9L D   5      90.391  28.678 120.2560  0.00  0.00     0.000 O
ATOM     83   C  Z9L D   5      90.186  27.303 122.5860  0.00  0.00     0.000 C
ATOM     84   C  Z9L D   5      90.186  27.303 122.5860  0.00  0.00     0.000 C
BRANCH 78 85
ATOM     85   O  Z9L D   5      90.236  31.334 123.0220  0.00  0.00     0.000 O
ATOM     86   O  Z9L D   5      91.559  32.514 123.7750  0.00  0.00     0.000 OA
ATOM     87   S  Z9L D   5      91.375  32.267 122.3780  0.00  0.00     0.000 S
ATOM     88   O  Z9L D   5      90.875  33.508 121.8410  0.00  0.00     0.000 OA
ATOM     89   O  Z9L D   5      92.565  31.612 121.9540  0.00  0.00     0.000 OA
ENDBRANCH 78 85
BRANCH 79 90
ATOM     90   O  Z9L D   5      88.267  32.406 120.6550  0.00  0.00     0.000 O
ATOM     91   S  Z9L D   5      87.198  32.389 121.8350  0.00  0.00     0.000 S
ATOM     92   O  Z9L D   5      87.568  32.159 123.2070  0.00  0.00     0.000 OA
ATOM     93   O  Z9L D   5      85.929  31.934 121.3230  0.00  0.00     0.000 O
ATOM     94   O  Z9L D   5      87.262  33.797 121.6090  0.00  0.00     0.000 OA
ENDBRANCH 79 90
BRANCH 81 95
ATOM     95   C  Z9L D   5      88.992  28.074 118.0540  0.00  0.00     0.000 C
ATOM     96   S  Z9L D   5      89.941  27.820 116.3220  0.00  0.00     0.000 S
ATOM     97   O  Z9L D   5      89.877  28.953 117.4140  0.00  0.00     0.000 O
ATOM     98   O  Z9L D   5      88.684  27.848 115.6200  0.00  0.00     0.000 OA
ATOM     99   O  Z9L D   5      90.531  26.592 116.7380  0.00  0.00     0.000 OA
ATOM    100   O  Z9L D   5      90.830  28.771 115.7020  0.00  0.00     0.000 O
ENDBRANCH 81 95
ENDBRANCH 76 80
ENDBRANCH 60 76
ENDBRANCH 59 63
ENDBRANCH 37 59
ENDBRANCH 36 40
ENDBRANCH 23 36
ENDBRANCH 22 26
ENDBRANCH 1 22
TORSDOF 19
ENDMDL
MODEL 43
REMARK VINA RESULT:       0.0     52.992     59.592
ROOT
ATOM      1  C1  Z9H D   1      19.218 106.332  83.9030  0.00  0.00     0.000 C
ATOM      2  C2  Z9H D   1      18.728 105.099  83.1080  0.00  0.00     0.000 C
ATOM      3  C3  Z9H D   1      19.263 103.990  84.0650  0.00  0.00     0.000 C
ATOM      4  C4  Z9H D   1      20.785 104.130  84.4840  0.00  0.00     0.000 C
ATOM      5  C5  Z9H D   1      21.422 105.487  84.9860  0.00  0.00     0.000 C
ATOM      6  O5  Z9H D   1      20.619 106.462  84.2730  0.00  0.00     0.000 O
ATOM      7   O  Z9H D   1      19.008 102.682  83.5500  0.00  0.00     0.000 O
ATOM      8   C  Z9H D   1      17.850 102.022  84.0910  0.00  0.00     0.000 C
ATOM      9   O  Z9H D   1      20.996 103.159  85.5140  0.00  0.00     0.000 O
ATOM     10   C  Z9H D   1      21.605 101.935  85.0930  0.00  0.00     0.000 C
ENDROOT
BRANCH 2 11
ATOM     11   O  Z9H D   1      17.343 105.139  83.3310  0.00  0.00     0.000 O
ATOM     12   O  Z9H D   1      16.062 105.475  81.9880  0.00  0.00     0.000 OA
ATOM     13   S  Z9H D   1      17.467 105.384  81.7670  0.00  0.00     0.000 S
ATOM     14   O  Z9H D   1      17.878 104.157  81.1480  0.00  0.00     0.000 OA
ATOM     15   O  Z9H D   1      18.015 106.688  81.4730  0.00  0.00     0.000 O
ENDBRANCH 2 11
BRANCH 5 16
ATOM     16   C  Z9H D   1      23.094 105.542  84.9490  0.00  0.00     0.000 C
ATOM     17   S  Z9H D   1      24.724 106.221  85.9090  0.00  0.00     0.000 S
ATOM     18   O  Z9H D   1      23.316 105.558  86.3390  0.00  0.00     0.000 O
ATOM     19   O  Z9H D   1      24.623 107.537  85.3480  0.00  0.00     0.000 O
ATOM     20   O  Z9H D   1      25.602 105.224  85.4060  0.00  0.00     0.000 OA
ATOM     21   O  Z9H D   1      24.873 106.256  87.3350  0.00  0.00     0.000 OA
ENDBRANCH 5 16
BRANCH 1 22
ATOM     22  O4  GU1 D   2      18.577 106.516  85.2170  0.00  0.00     0.000 O
BRANCH 22 26
ATOM     23  C1  GU1 D   2      17.179 109.287  87.9260  0.00  0.00     0.000 C
ATOM     24  C2  GU1 D   2      16.998 109.672  86.4660  0.00  0.00     0.000 C
ATOM     25  C3  GU1 D   2      17.181 108.456  85.6050  0.00  0.00     0.000 C
ATOM     26  C4  GU1 D   2      18.504 107.769  85.9080  0.00  0.00     0.000 C
ATOM     27  C5  GU1 D   2      18.632 107.520  87.4140  0.00  0.00     0.000 C
ATOM     28  O5  GU1 D   2      18.475 108.739  88.1360  0.00  0.00     0.000 O
ATOM     29   O  GU1 D   2      15.703 110.205  86.2130  0.00  0.00     0.000 O
ATOM     30   C  GU1 D   2      15.654 111.625  86.2210  0.00  0.00     0.000 C
ATOM     31   C  GU1 D   2      15.967 108.624  83.5330  0.00  0.00     0.000 C
ATOM     32   O  GU1 D   2      17.183 108.869  84.2340  0.00  0.00     0.000 O
BRANCH 27 33
ATOM     33   C  GU1 D   2      19.987 106.949  87.7600  0.00  0.00     0.000 C
ATOM     34   O  GU1 D   2      20.961 107.665  87.6530  0.00  0.00     0.000 OA
ATOM     35   O  GU1 D   2      20.094 105.794  88.1420  0.00  0.00     0.000 O
ENDBRANCH 27 33
BRANCH 23 36
ATOM     36  O4  GU6 D   3      17.297 110.312  88.9330  0.00  0.00     0.000 O
BRANCH 36 40
ATOM     37  C1  GU6 D   3      18.725 113.017  91.6420  0.00  0.00     0.000 C
ATOM     38  C2  GU6 D   3      17.316 112.523  91.9450  0.00  0.00     0.000 C
ATOM     39  C3  GU6 D   3      16.993 111.346  91.0620  0.00  0.00     0.000 C
ATOM     40  C4  GU6 D   3      17.924 111.036  89.9720  0.00  0.00     0.000 C
ATOM     41  C5  GU6 D   3      18.461 112.367  89.3480  0.00  0.00     0.000 C
ATOM     42  O5  GU6 D   3      18.784 113.406  90.2780  0.00  0.00     0.000 O
BRANCH 38 43
ATOM     43   O  GU6 D   3      17.201 112.151  93.3050  0.00  0.00     0.000 O
ATOM     44   S  GU6 D   3      16.076 112.851  94.0560  0.00  0.00     0.000 S
ATOM     45   O  GU6 D   3      16.546 114.185  94.4670  0.00  0.00     0.000 OA
ATOM     46   O  GU6 D   3      14.924 112.997  93.1470  0.00  0.00     0.000 O
ATOM     47   O  GU6 D   3      15.703 112.039  95.2100  0.00  0.00     0.000 OA
ENDBRANCH 38 43
BRANCH 39 48
ATOM     48   O  GU6 D   3      15.964 110.439  91.4080  0.00  0.00     0.000 O
ATOM     49   S  GU6 D   3      16.048 109.077  92.0960  0.00  0.00     0.000 S
ATOM     50   O  GU6 D   3      16.752 109.201  93.3770  0.00  0.00     0.000 OA
ATOM     51   O  GU6 D   3      14.637 108.719  92.2970  0.00  0.00     0.000 OA
ATOM     52   O  GU6 D   3      16.769 108.136  91.2100  0.00  0.00     0.000 O
ENDBRANCH 39 48
BRANCH 41 53
ATOM     53   C  GU6 D   3      18.702 112.705  87.9020  0.00  0.00     0.000 C
ATOM     54   O  GU6 D   3      19.740 111.791  87.6620  0.00  0.00     0.000 O
ATOM     55   S  GU6 D   3      20.471 111.780  86.3130  0.00  0.00     0.000 S
ATOM     56   O  GU6 D   3      21.202 113.064  86.2120  0.00  0.00     0.000 O
ATOM     57   O  GU6 D   3      21.407 110.646  86.2960  0.00  0.00     0.000 OA
ATOM     58   O  GU6 D   3      19.441 111.670  85.2560  0.00  0.00     0.000 OA
ENDBRANCH 41 53
BRANCH 37 59
ATOM     59  O4  Z9K D   4      19.938 112.292  91.9340  0.00  0.00     0.000 O
BRANCH 59 63
ATOM     60  C1  Z9K D   4      22.912 110.933  94.1160  0.00  0.00     0.000 C
ATOM     61  C2  Z9K D   4      22.312 112.010  95.0620  0.00  0.00     0.000 C
ATOM     62  C3  Z9K D   4      21.005 112.425  94.2560  0.00  0.00     0.000 C
ATOM     63  C4  Z9K D   4      21.110 112.686  92.7050  0.00  0.00     0.000 C
ATOM     64  C5  Z9K D   4      22.247 111.956  91.9730  0.00  0.00     0.000 C
ATOM     65  O5  Z9K D   4      22.374 110.722  92.7270  0.00  0.00     0.000 O
ATOM     66   O  Z9K D   4      20.359 113.596  94.7850  0.00  0.00     0.000 O
ATOM     67   C  Z9K D   4      19.455 113.337  95.8470  0.00  0.00     0.000 C
BRANCH 61 68
ATOM     68   O  Z9K D   4      21.869 111.345  96.2130  0.00  0.00     0.000 O
ATOM     69   O  Z9K D   4      22.720 113.694  96.7690  0.00  0.00     0.000 OA
ATOM     70   S  Z9K D   4      23.038 112.298  96.8050  0.00  0.00     0.000 S
ATOM     71   O  Z9K D   4      24.310 111.722  96.4940  0.00  0.00     0.000 OA
ATOM     72   O  Z9K D   4      22.514 111.686  97.9830  0.00  0.00     0.000 OA
ENDBRANCH 61 68
BRANCH 64 73
ATOM     73   C  Z9K D   4      21.961 111.874  90.4590  0.00  0.00     0.000 C
ATOM     74   O  Z9K D   4      22.032 112.900  89.7210  0.00  0.00     0.000 O
ATOM     75   O  Z9K D   4      21.654 110.792  89.9010  0.00  0.00     0.000 OA
ENDBRANCH 64 73
BRANCH 60 76
ATOM     76  O4  Z9L D   5      24.285 110.741  93.7360  0.00  0.00     0.000 O
BRANCH 76 80
ATOM     77  C1  Z9L D   5      27.116 108.000  93.0710  0.00  0.00     0.000 C
ATOM     78  C2  Z9L D   5      26.835 108.733  91.6730  0.00  0.00     0.000 C
ATOM     79  C3  Z9L D   5      26.006 110.163  92.0330  0.00  0.00     0.000 C
ATOM     80  C4  Z9L D   5      24.948 109.635  93.1810  0.00  0.00     0.000 C
ATOM     81  C5  Z9L D   5      25.177 108.700  94.4740  0.00  0.00     0.000 C
ATOM     82  O5  Z9L D   5      26.067 107.651  94.0620  0.00  0.00     0.000 O
ATOM     83   C  Z9L D   5      28.558 108.147  95.0190  0.00  0.00     0.000 C
ATOM     84   C  Z9L D   5      28.558 108.147  95.0190  0.00  0.00     0.000 C
BRANCH 78 85
ATOM     85   O  Z9L D   5      28.061 109.049  91.0960  0.00  0.00     0.000 O
ATOM     86   O  Z9L D   5      28.779 108.235  89.5050  0.00  0.00     0.000 OA
ATOM     87   S  Z9L D   5      27.468 108.004  90.0300  0.00  0.00     0.000 S
ATOM     88   O  Z9L D   5      26.571 108.600  89.0700  0.00  0.00     0.000 OA
ATOM     89   O  Z9L D   5      27.457 106.637  90.4210  0.00  0.00     0.000 OA
ENDBRANCH 78 85
BRANCH 79 90
ATOM     90   O  Z9L D   5      25.161 110.535  90.9910  0.00  0.00     0.000 O
ATOM     91   S  Z9L D   5      26.070 111.840  91.0760  0.00  0.00     0.000 S
ATOM     92   O  Z9L D   5      27.504 111.789  90.9620  0.00  0.00     0.000 OA
ATOM     93   O  Z9L D   5      25.428 112.815  91.9230  0.00  0.00     0.000 O
ATOM     94   O  Z9L D   5      25.547 112.015  89.7600  0.00  0.00     0.000 OA
ENDBRANCH 79 90
BRANCH 81 95
ATOM     95   C  Z9L D   5      23.824 108.291  95.3770  0.00  0.00     0.000 C
ATOM     96   S  Z9L D   5      22.427 106.903  95.6750  0.00  0.00     0.000 S
ATOM     97   O  Z9L D   5      23.193 107.476  94.4250  0.00  0.00     0.000 O
ATOM     98   O  Z9L D   5      21.496 107.920  96.0930  0.00  0.00     0.000 OA
ATOM     99   O  Z9L D   5      23.224 106.196  96.6200  0.00  0.00     0.000 OA
ATOM    100   O  Z9L D   5      21.800 106.105  94.6500  0.00  0.00     0.000 O
ENDBRANCH 81 95
ENDBRANCH 76 80
ENDBRANCH 60 76
ENDBRANCH 59 63
ENDBRANCH 37 59
ENDBRANCH 36 40
ENDBRANCH 23 36
ENDBRANCH 22 26
ENDBRANCH 1 22
TORSDOF 19
ENDMDL
MODEL 44
REMARK VINA RESULT:       0.0    128.559    134.326
ROOT
ATOM      1  C1  Z9H D   1     117.383 116.136 144.9320  0.00  0.00     0.000 C
ATOM      2  C2  Z9H D   1     116.949 114.671 145.1750  0.00  0.00     0.000 C
ATOM      3  C3  Z9H D   1     115.858 114.939 146.2560  0.00  0.00     0.000 C
ATOM      4  C4  Z9H D   1     116.309 115.861 147.4640  0.00  0.00     0.000 C
ATOM      5  C5  Z9H D   1     117.077 117.229 147.2670  0.00  0.00     0.000 C
ATOM      6  O5  Z9H D   1     117.810 116.973 146.0420  0.00  0.00     0.000 O
ATOM      7   O  Z9H D   1     115.291 113.722 146.7450  0.00  0.00     0.000 O
ATOM      8   C  Z9H D   1     114.036 113.346 146.1540  0.00  0.00     0.000 C
ATOM      9   O  Z9H D   1     115.116 116.148 148.2010  0.00  0.00     0.000 O
ATOM     10   C  Z9H D   1     114.906 115.350 149.3700  0.00  0.00     0.000 C
ENDROOT
BRANCH 2 11
ATOM     11   O  Z9H D   1     116.238 114.378 144.0020  0.00  0.00     0.000 O
ATOM     12   O  Z9H D   1     116.797 113.123 142.7090  0.00  0.00     0.000 OA
ATOM     13   S  Z9H D   1     117.484 113.395 143.9270  0.00  0.00     0.000 S
ATOM     14   O  Z9H D   1     117.318 112.379 144.9260  0.00  0.00     0.000 OA
ATOM     15   O  Z9H D   1     118.712 114.110 143.6630  0.00  0.00     0.000 O
ENDBRANCH 2 11
BRANCH 5 16
ATOM     16   C  Z9H D   1     117.843 117.815 148.6340  0.00  0.00     0.000 C
ATOM     17   S  Z9H D   1     118.310 119.484 149.6520  0.00  0.00     0.000 S
ATOM     18   O  Z9H D   1     117.020 118.935 148.8500  0.00  0.00     0.000 O
ATOM     19   O  Z9H D   1     119.448 119.781 148.8310  0.00  0.00     0.000 O
ATOM     20   O  Z9H D   1     118.407 118.847 150.9190  0.00  0.00     0.000 OA
ATOM     21   O  Z9H D   1     117.444 120.617 149.7980  0.00  0.00     0.000 OA
ENDBRANCH 5 16
BRANCH 1 22
ATOM     22  O4  GU1 D   2     116.347 116.996 144.3310  0.00  0.00     0.000 O
BRANCH 22 26
ATOM     23  C1  GU1 D   2     115.647 120.105 141.7200  0.00  0.00     0.000 C
ATOM     24  C2  GU1 D   2     116.780 119.173 141.3170  0.00  0.00     0.000 C
ATOM     25  C3  GU1 D   2     116.687 117.903 142.1120  0.00  0.00     0.000 C
ATOM     26  C4  GU1 D   2     116.624 118.199 143.6030  0.00  0.00     0.000 C
ATOM     27  C5  GU1 D   2     115.522 119.223 143.8890  0.00  0.00     0.000 C
ATOM     28  O5  GU1 D   2     115.721 120.400 143.1100  0.00  0.00     0.000 O
ATOM     29   O  GU1 D   2     116.727 118.838 139.9350  0.00  0.00     0.000 O
ATOM     30   C  GU1 D   2     117.571 119.635 139.1170  0.00  0.00     0.000 C
ATOM     31   C  GU1 D   2     117.656 116.033 140.9470  0.00  0.00     0.000 C
ATOM     32   O  GU1 D   2     117.855 117.119 141.8500  0.00  0.00     0.000 O
BRANCH 27 33
ATOM     33   C  GU1 D   2     115.515 119.627 145.3440  0.00  0.00     0.000 C
ATOM     34   O  GU1 D   2     116.438 120.294 145.7630  0.00  0.00     0.000 OA
ATOM     35   O  GU1 D   2     114.598 119.291 146.0770  0.00  0.00     0.000 O
ENDBRANCH 27 33
BRANCH 23 36
ATOM     36  O4  GU6 D   3     115.654 121.479 141.2850  0.00  0.00     0.000 O
BRANCH 36 40
ATOM     37  C1  GU6 D   3     116.113 125.533 141.0740  0.00  0.00     0.000 C
ATOM     38  C2  GU6 D   3     115.011 124.988 140.1740  0.00  0.00     0.000 C
ATOM     39  C3  GU6 D   3     114.741 123.548 140.5230  0.00  0.00     0.000 C
ATOM     40  C4  GU6 D   3     115.672 122.883 141.4420  0.00  0.00     0.000 C
ATOM     41  C5  GU6 D   3     117.131 123.363 141.1450  0.00  0.00     0.000 C
ATOM     42  O5  GU6 D   3     117.286 124.760 140.8720  0.00  0.00     0.000 O
BRANCH 38 43
ATOM     43   O  GU6 D   3     113.828 125.750 140.3190  0.00  0.00     0.000 O
ATOM     44   S  GU6 D   3     113.280 126.315 139.0160  0.00  0.00     0.000 S
ATOM     45   O  GU6 D   3     114.023 127.545 138.6900  0.00  0.00     0.000 OA
ATOM     46   O  GU6 D   3     113.486 125.320 137.9470  0.00  0.00     0.000 O
ATOM     47   O  GU6 D   3     111.854 126.583 139.1810  0.00  0.00     0.000 OA
ENDBRANCH 38 43
BRANCH 39 48
ATOM     48   O  GU6 D   3     113.518 122.931 140.1690  0.00  0.00     0.000 O
ATOM     49   S  GU6 D   3     112.259 122.698 141.0050  0.00  0.00     0.000 S
ATOM     50   O  GU6 D   3     111.779 123.968 141.5620  0.00  0.00     0.000 OA
ATOM     51   O  GU6 D   3     111.307 122.153 140.0270  0.00  0.00     0.000 OA
ATOM     52   O  GU6 D   3     112.578 121.753 142.0980  0.00  0.00     0.000 O
ENDBRANCH 39 48
BRANCH 41 53
ATOM     53   C  GU6 D   3     118.405 122.562 141.1210  0.00  0.00     0.000 C
ATOM     54   O  GU6 D   3     118.444 122.224 142.4830  0.00  0.00     0.000 O
ATOM     55   S  GU6 D   3     119.647 121.468 143.0630  0.00  0.00     0.000 S
ATOM     56   O  GU6 D   3     120.811 122.378 142.9680  0.00  0.00     0.000 O
ATOM     57   O  GU6 D   3     119.359 121.137 144.4660  0.00  0.00     0.000 OA
ATOM     58   O  GU6 D   3     119.847 120.259 142.2330  0.00  0.00     0.000 OA
ENDBRANCH 41 53
BRANCH 37 59
ATOM     59  O4  Z9K D   4     115.988 125.761 142.4930  0.00  0.00     0.000 O
BRANCH 59 63
ATOM     60  C1  Z9K D   4     114.960 127.647 145.7840  0.00  0.00     0.000 C
ATOM     61  C2  Z9K D   4     114.735 128.756 144.7190  0.00  0.00     0.000 C
ATOM     62  C3  Z9K D   4     114.974 127.937 143.3770  0.00  0.00     0.000 C
ATOM     63  C4  Z9K D   4     116.212 126.968 143.2790  0.00  0.00     0.000 C
ATOM     64  C5  Z9K D   4     116.734 126.402 144.6090  0.00  0.00     0.000 C
ATOM     65  O5  Z9K D   4     115.528 126.305 145.4120  0.00  0.00     0.000 O
ATOM     66   O  Z9K D   4     115.065 128.773 142.2090  0.00  0.00     0.000 O
ATOM     67   C  Z9K D   4     113.816 129.102 141.6250  0.00  0.00     0.000 C
BRANCH 61 68
ATOM     68   O  Z9K D   4     113.373 129.082 144.7450  0.00  0.00     0.000 O
ATOM     69   O  Z9K D   4     114.803 131.129 144.1860  0.00  0.00     0.000 OA
ATOM     70   S  Z9K D   4     114.058 130.471 145.2170  0.00  0.00     0.000 S
ATOM     71   O  Z9K D   4     114.451 130.355 146.5880  0.00  0.00     0.000 OA
ATOM     72   O  Z9K D   4     112.675 130.819 145.1470  0.00  0.00     0.000 OA
ENDBRANCH 61 68
BRANCH 64 73
ATOM     73   C  Z9K D   4     117.572 125.128 144.3720  0.00  0.00     0.000 C
ATOM     74   O  Z9K D   4     118.723 125.188 143.8500  0.00  0.00     0.000 O
ATOM     75   O  Z9K D   4     117.150 123.990 144.6930  0.00  0.00     0.000 OA
ENDBRANCH 64 73
BRANCH 60 76
ATOM     76  O4  Z9L D   5     115.676 127.734 147.0280  0.00  0.00     0.000 O
BRANCH 76 80
ATOM     77  C1  Z9L D   5     115.638 126.663 150.8780  0.00  0.00     0.000 C
ATOM     78  C2  Z9L D   5     116.901 125.941 150.2020  0.00  0.00     0.000 C
ATOM     79  C3  Z9L D   5     117.187 126.735 148.7360  0.00  0.00     0.000 C
ATOM     80  C4  Z9L D   5     115.650 126.921 148.1730  0.00  0.00     0.000 C
ATOM     81  C5  Z9L D   5     114.311 127.432 148.9120  0.00  0.00     0.000 C
ATOM     82  O5  Z9L D   5     114.319 126.838 150.2180  0.00  0.00     0.000 O
ATOM     83   C  Z9L D   5     115.041 128.699 152.0560  0.00  0.00     0.000 C
ATOM     84   C  Z9L D   5     115.041 128.699 152.0560  0.00  0.00     0.000 C
BRANCH 78 85
ATOM     85   O  Z9L D   5     117.999 126.119 151.0390  0.00  0.00     0.000 O
ATOM     86   O  Z9L D   5     118.864 124.720 152.0410  0.00  0.00     0.000 OA
ATOM     87   S  Z9L D   5     117.818 124.523 151.0850  0.00  0.00     0.000 S
ATOM     88   O  Z9L D   5     118.443 123.834 149.9830  0.00  0.00     0.000 OA
ATOM     89   O  Z9L D   5     116.713 124.032 151.8350  0.00  0.00     0.000 OA
ENDBRANCH 78 85
BRANCH 79 90
ATOM     90   O  Z9L D   5     117.751 125.876 147.7970  0.00  0.00     0.000 O
ATOM     91   S  Z9L D   5     118.880 126.999 147.8450  0.00  0.00     0.000 S
ATOM     92   O  Z9L D   5     119.532 127.384 149.0690  0.00  0.00     0.000 OA
ATOM     93   O  Z9L D   5     118.641 127.961 146.7980  0.00  0.00     0.000 O
ATOM     94   O  Z9L D   5     119.643 125.936 147.2750  0.00  0.00     0.000 OA
ENDBRANCH 79 90
BRANCH 81 95
ATOM     95   C  Z9L D   5     112.885 127.400 148.0290  0.00  0.00     0.000 C
ATOM     96   S  Z9L D   5     111.243 126.346 147.6280  0.00  0.00     0.000 S
ATOM     97   O  Z9L D   5     112.753 126.008 147.9210  0.00  0.00     0.000 O
ATOM     98   O  Z9L D   5     111.194 126.912 146.3040  0.00  0.00     0.000 OA
ATOM     99   O  Z9L D   5     110.517 126.925 148.7080  0.00  0.00     0.000 OA
ATOM    100   O  Z9L D   5     111.172 124.911 147.5130  0.00  0.00     0.000 O
ENDBRANCH 81 95
ENDBRANCH 76 80
ENDBRANCH 60 76
ENDBRANCH 59 63
ENDBRANCH 37 59
ENDBRANCH 36 40
ENDBRANCH 23 36
ENDBRANCH 22 26
ENDBRANCH 1 22
TORSDOF 19
ENDMDL
MODEL 45
REMARK VINA RESULT:       0.0    115.318    121.322
ROOT
ATOM      1  C1  Z9H D   1     104.878 132.465 133.3520  0.00  0.00     0.000 C
ATOM      2  C2  Z9H D   1     104.191 132.703 134.7180  0.00  0.00     0.000 C
ATOM      3  C3  Z9H D   1     102.966 133.524 134.2110  0.00  0.00     0.000 C
ATOM      4  C4  Z9H D   1     103.313 134.741 133.2570  0.00  0.00     0.000 C
ATOM      5  C5  Z9H D   1     104.300 134.622 132.0280  0.00  0.00     0.000 C
ATOM      6  O5  Z9H D   1     105.206 133.587 132.4870  0.00  0.00     0.000 O
ATOM      7   O  Z9H D   1     102.141 133.960 135.2920  0.00  0.00     0.000 O
ATOM      8   C  Z9H D   1     100.979 133.151 135.5450  0.00  0.00     0.000 C
ATOM      9   O  Z9H D   1     102.058 135.205 132.7470  0.00  0.00     0.000 O
ATOM     10   C  Z9H D   1     101.511 136.352 133.4040  0.00  0.00     0.000 C
ENDROOT
BRANCH 2 11
ATOM     11   O  Z9H D   1     103.680 131.429 135.0140  0.00  0.00     0.000 O
ATOM     12   O  Z9H D   1     104.281 130.352 136.4410  0.00  0.00     0.000 OA
ATOM     13   S  Z9H D   1     104.756 131.664 136.1590  0.00  0.00     0.000 S
ATOM     14   O  Z9H D   1     104.252 132.668 137.0510  0.00  0.00     0.000 OA
ATOM     15   O  Z9H D   1     106.105 131.611 135.6430  0.00  0.00     0.000 O
ENDBRANCH 2 11
BRANCH 5 16
ATOM     16   C  Z9H D   1     104.871 136.078 131.4340  0.00  0.00     0.000 C
ATOM     17   S  Z9H D   1     105.379 137.069 129.7610  0.00  0.00     0.000 S
ATOM     18   O  Z9H D   1     104.199 136.058 130.1980  0.00  0.00     0.000 O
ATOM     19   O  Z9H D   1     106.685 136.478 129.6930  0.00  0.00     0.000 O
ATOM     20   O  Z9H D   1     105.137 138.365 130.2920  0.00  0.00     0.000 OA
ATOM     21   O  Z9H D   1     104.681 136.971 128.5120  0.00  0.00     0.000 OA
ENDBRANCH 5 16
BRANCH 1 22
ATOM     22  O4  GU1 D   2     104.117 131.619 132.4150  0.00  0.00     0.000 O
BRANCH 22 26
ATOM     23  C1  GU1 D   2     104.402 128.741 129.4810  0.00  0.00     0.000 C
ATOM     24  C2  GU1 D   2     105.438 128.630 130.5900  0.00  0.00     0.000 C
ATOM     25  C3  GU1 D   2     105.005 129.463 131.7610  0.00  0.00     0.000 C
ATOM     26  C4  GU1 D   2     104.705 130.891 131.3300  0.00  0.00     0.000 C
ATOM     27  C5  GU1 D   2     103.735 130.888 130.1450  0.00  0.00     0.000 C
ATOM     28  O5  GU1 D   2     104.253 130.098 129.0790  0.00  0.00     0.000 O
ATOM     29   O  GU1 D   2     105.599 127.288 131.0340  0.00  0.00     0.000 O
ATOM     30   C  GU1 D   2     106.694 126.611 130.4340  0.00  0.00     0.000 C
ATOM     31   C  GU1 D   2     105.887 128.630 133.8390  0.00  0.00     0.000 C
ATOM     32   O  GU1 D   2     106.071 129.488 132.7160  0.00  0.00     0.000 O
BRANCH 27 33
ATOM     33   C  GU1 D   2     103.511 132.286 129.6180  0.00  0.00     0.000 C
ATOM     34   O  GU1 D   2     104.427 132.842 129.0480  0.00  0.00     0.000 OA
ATOM     35   O  GU1 D   2     102.431 132.838 129.7610  0.00  0.00     0.000 O
ENDBRANCH 27 33
BRANCH 23 36
ATOM     36  O4  GU6 D   3     104.698 128.236 128.1640  0.00  0.00     0.000 O
BRANCH 36 40
ATOM     37  C1  GU6 D   3     105.791 127.882 124.2430  0.00  0.00     0.000 C
ATOM     38  C2  GU6 D   3     104.811 126.813 124.7110  0.00  0.00     0.000 C
ATOM     39  C3  GU6 D   3     104.267 127.185 126.0660  0.00  0.00     0.000 C
ATOM     40  C4  GU6 D   3     104.896 128.310 126.7670  0.00  0.00     0.000 C
ATOM     41  C5  GU6 D   3     106.440 128.285 126.5170  0.00  0.00     0.000 C
ATOM     42  O5  GU6 D   3     106.851 127.966 125.1830  0.00  0.00     0.000 O
BRANCH 38 43
ATOM     43   O  GU6 D   3     103.750 126.672 123.7870  0.00  0.00     0.000 O
ATOM     44   S  GU6 D   3     103.551 125.253 123.2680  0.00  0.00     0.000 S
ATOM     45   O  GU6 D   3     104.519 125.011 122.1840  0.00  0.00     0.000 OA
ATOM     46   O  GU6 D   3     103.806 124.309 124.3720  0.00  0.00     0.000 O
ATOM     47   O  GU6 D   3     102.177 125.113 122.7970  0.00  0.00     0.000 OA
ENDBRANCH 38 43
BRANCH 39 48
ATOM     48   O  GU6 D   3     103.055 126.629 126.5400  0.00  0.00     0.000 O
ATOM     49   S  GU6 D   3     101.641 127.207 126.5270  0.00  0.00     0.000 S
ATOM     50   O  GU6 D   3     101.259 127.580 125.1600  0.00  0.00     0.000 OA
ATOM     51   O  GU6 D   3     100.822 126.092 127.0210  0.00  0.00     0.000 OA
ATOM     52   O  GU6 D   3     101.600 128.396 127.4060  0.00  0.00     0.000 O
ENDBRANCH 39 48
BRANCH 41 53
ATOM     53   C  GU6 D   3     107.560 128.564 127.4820  0.00  0.00     0.000 C
ATOM     54   O  GU6 D   3     107.288 129.924 127.7020  0.00  0.00     0.000 O
ATOM     55   S  GU6 D   3     108.231 130.778 128.5600  0.00  0.00     0.000 S
ATOM     56   O  GU6 D   3     109.515 130.865 127.8270  0.00  0.00     0.000 O
ATOM     57   O  GU6 D   3     107.635 132.112 128.7260  0.00  0.00     0.000 OA
ATOM     58   O  GU6 D   3     108.402 130.077 129.8530  0.00  0.00     0.000 OA
ENDBRANCH 41 53
BRANCH 37 59
ATOM     59  O4  Z9K D   4     105.433 129.231 123.8780  0.00  0.00     0.000 O
BRANCH 59 63
ATOM     60  C1  Z9K D   4     104.092 132.131 121.5890  0.00  0.00     0.000 C
ATOM     61  C2  Z9K D   4     104.244 130.979 120.5570  0.00  0.00     0.000 C
ATOM     62  C3  Z9K D   4     104.608 129.763 121.5150  0.00  0.00     0.000 C
ATOM     63  C4  Z9K D   4     105.683 129.973 122.6480  0.00  0.00     0.000 C
ATOM     64  C5  Z9K D   4     105.850 131.411 123.1610  0.00  0.00     0.000 C
ATOM     65  O5  Z9K D   4     104.513 131.960 123.0230  0.00  0.00     0.000 O
ATOM     66   O  Z9K D   4     105.044 128.590 120.8050  0.00  0.00     0.000 O
ATOM     67   C  Z9K D   4     103.993 127.748 120.3620  0.00  0.00     0.000 C
BRANCH 61 68
ATOM     68   O  Z9K D   4     102.965 130.711 120.0490  0.00  0.00     0.000 O
ATOM     69   O  Z9K D   4     104.767 130.330 118.2720  0.00  0.00     0.000 OA
ATOM     70   S  Z9K D   4     103.749 131.228 118.7290  0.00  0.00     0.000 S
ATOM     71   O  Z9K D   4     103.851 132.654 118.7770  0.00  0.00     0.000 OA
ATOM     72   O  Z9K D   4     102.473 130.860 118.2050  0.00  0.00     0.000 OA
ENDBRANCH 61 68
BRANCH 64 73
ATOM     73   C  Z9K D   4     106.517 131.424 124.5530  0.00  0.00     0.000 C
ATOM     74   O  Z9K D   4     107.742 131.142 124.6950  0.00  0.00     0.000 O
ATOM     75   O  Z9K D   4     105.876 131.720 125.5910  0.00  0.00     0.000 OA
ENDBRANCH 64 73
BRANCH 60 76
ATOM     76  O4  Z9L D   5     104.563 133.486 121.4920  0.00  0.00     0.000 O
BRANCH 76 80
ATOM     77  C1  Z9L D   5     103.632 137.306 122.2060  0.00  0.00     0.000 C
ATOM     78  C2  Z9L D   5     104.877 136.942 123.1490  0.00  0.00     0.000 C
ATOM     79  C3  Z9L D   5     105.553 135.519 122.5330  0.00  0.00     0.000 C
ATOM     80  C4  Z9L D   5     104.197 134.648 122.1900  0.00  0.00     0.000 C
ATOM     81  C5  Z9L D   5     102.834 135.071 121.4400  0.00  0.00     0.000 C
ATOM     82  O5  Z9L D   5     102.504 136.385 121.9130  0.00  0.00     0.000 O
ATOM     83   C  Z9L D   5     103.134 138.218 120.0120  0.00  0.00     0.000 C
ATOM     84   C  Z9L D   5     103.134 138.218 120.0120  0.00  0.00     0.000 C
BRANCH 78 85
ATOM     85   O  Z9L D   5     105.810 137.970 123.0490  0.00  0.00     0.000 O
ATOM     86   O  Z9L D   5     106.249 139.207 124.4590  0.00  0.00     0.000 OA
ATOM     87   S  Z9L D   5     105.386 138.073 124.5960  0.00  0.00     0.000 S
ATOM     88   O  Z9L D   5     106.099 137.162 125.4560  0.00  0.00     0.000 OA
ATOM     89   O  Z9L D   5     104.098 138.614 124.8650  0.00  0.00     0.000 OA
ENDBRANCH 78 85
BRANCH 79 90
ATOM     90   O  Z9L D   5     106.151 134.764 123.5390  0.00  0.00     0.000 O
ATOM     91   S  Z9L D   5     107.405 134.972 122.5800  0.00  0.00     0.000 S
ATOM     92   O  Z9L D   5     107.863 136.277 122.1810  0.00  0.00     0.000 OA
ATOM     93   O  Z9L D   5     107.518 133.843 121.6900  0.00  0.00     0.000 O
ATOM     94   O  Z9L D   5     108.094 134.632 123.7820  0.00  0.00     0.000 OA
ENDBRANCH 79 90
BRANCH 81 95
ATOM     95   C  Z9L D   5     101.615 133.922 121.3550  0.00  0.00     0.000 C
ATOM     96   S  Z9L D   5      99.940 133.263 122.2070  0.00  0.00     0.000 S
ATOM     97   O  Z9L D   5     101.298 133.873 122.7200  0.00  0.00     0.000 O
ATOM     98   O  Z9L D   5     100.229 131.925 121.7580  0.00  0.00     0.000 OA
ATOM     99   O  Z9L D   5      99.117 134.139 121.4440  0.00  0.00     0.000 OA
ATOM    100   O  Z9L D   5      99.677 133.221 123.6250  0.00  0.00     0.000 O
ENDBRANCH 81 95
ENDBRANCH 76 80
ENDBRANCH 60 76
ENDBRANCH 59 63
ENDBRANCH 37 59
ENDBRANCH 36 40
ENDBRANCH 23 36
ENDBRANCH 22 26
ENDBRANCH 1 22
TORSDOF 19
ENDMDL
MODEL 46
REMARK VINA RESULT:       0.0     91.459     97.700
ROOT
ATOM      1  C1  Z9H D   1     114.538  11.133  93.3070  0.00  0.00     0.000 C
ATOM      2  C2  Z9H D   1     114.504   9.836  94.1500  0.00  0.00     0.000 C
ATOM      3  C3  Z9H D   1     114.109   8.843  93.0140  0.00  0.00     0.000 C
ATOM      4  C4  Z9H D   1     112.859   9.272  92.1400  0.00  0.00     0.000 C
ATOM      5  C5  Z9H D   1     112.685  10.722  91.5350  0.00  0.00     0.000 C
ATOM      6  O5  Z9H D   1     113.382  11.529  92.5180  0.00  0.00     0.000 O
ATOM      7   O  Z9H D   1     113.934   7.515  93.5130  0.00  0.00     0.000 O
ATOM      8   C  Z9H D   1     115.059   6.637  93.3350  0.00  0.00     0.000 C
ATOM      9   O  Z9H D   1     112.814   8.350  91.0460  0.00  0.00     0.000 O
ATOM     10   C  Z9H D   1     111.883   7.272  91.1850  0.00  0.00     0.000 C
ENDROOT
BRANCH 2 11
ATOM     11   O  Z9H D   1     115.868   9.602  94.3820  0.00  0.00     0.000 O
ATOM     12   O  Z9H D   1     116.686   9.697  96.0790  0.00  0.00     0.000 OA
ATOM     13   S  Z9H D   1     115.295   9.884  95.8370  0.00  0.00     0.000 S
ATOM     14   O  Z9H D   1     114.483   8.766  96.2250  0.00  0.00     0.000 OA
ATOM     15   O  Z9H D   1     114.935  11.272  96.0090  0.00  0.00     0.000 O
ENDBRANCH 2 11
BRANCH 5 16
ATOM     16   C  Z9H D   1     111.132  11.101  91.0400  0.00  0.00     0.000 C
ATOM     17   S  Z9H D   1     110.058  12.074  89.6470  0.00  0.00     0.000 S
ATOM     18   O  Z9H D   1     111.378  11.145  89.6550  0.00  0.00     0.000 O
ATOM     19   O  Z9H D   1     110.217  13.352  90.2800  0.00  0.00     0.000 O
ATOM     20   O  Z9H D   1     108.893  11.273  89.7910  0.00  0.00     0.000 OA
ATOM     21   O  Z9H D   1     110.386  12.122  88.2520  0.00  0.00     0.000 OA
ENDBRANCH 5 16
BRANCH 1 22
ATOM     22  O4  GU1 D   2     115.591  11.174  92.2780  0.00  0.00     0.000 O
BRANCH 22 26
ATOM     23  C1  GU1 D   2     118.283  13.592  90.3070  0.00  0.00     0.000 C
ATOM     24  C2  GU1 D   2     118.052  13.950  91.7680  0.00  0.00     0.000 C
ATOM     25  C3  GU1 D   2     117.376  12.802  92.4600  0.00  0.00     0.000 C
ATOM     26  C4  GU1 D   2     116.117  12.382  91.7140  0.00  0.00     0.000 C
ATOM     27  C5  GU1 D   2     116.438  12.148  90.2350  0.00  0.00     0.000 C
ATOM     28  O5  GU1 D   2     117.045  13.305  89.6670  0.00  0.00     0.000 O
ATOM     29   O  GU1 D   2     119.271  14.223  92.4480  0.00  0.00     0.000 O
ATOM     30   C  GU1 D   2     119.585  15.606  92.5320  0.00  0.00     0.000 C
ATOM     31   C  GU1 D   2     117.864  12.751  94.8160  0.00  0.00     0.000 C
ATOM     32   O  GU1 D   2     117.008  13.221  93.7780  0.00  0.00     0.000 O
BRANCH 27 33
ATOM     33   C  GU1 D   2     115.186  11.847  89.4450  0.00  0.00     0.000 C
ATOM     34   O  GU1 D   2     114.382  12.741  89.2750  0.00  0.00     0.000 OA
ATOM     35   O  GU1 D   2     114.993  10.731  88.9880  0.00  0.00     0.000 O
ENDBRANCH 27 33
BRANCH 23 36
ATOM     36  O4  GU6 D   3     118.691  14.610  89.3720  0.00  0.00     0.000 O
BRANCH 36 40
ATOM     37  C1  GU6 D   3     118.747  17.515  86.4990  0.00  0.00     0.000 C
ATOM     38  C2  GU6 D   3     120.060  16.753  86.6340  0.00  0.00     0.000 C
ATOM     39  C3  GU6 D   3     119.854  15.545  87.5100  0.00  0.00     0.000 C
ATOM     40  C4  GU6 D   3     118.580  15.432  88.2280  0.00  0.00     0.000 C
ATOM     41  C5  GU6 D   3     118.130  16.848  88.7190  0.00  0.00     0.000 C
ATOM     42  O5  GU6 D   3     118.325  17.922  87.7910  0.00  0.00     0.000 O
BRANCH 38 43
ATOM     43   O  GU6 D   3     120.536  16.353  85.3640  0.00  0.00     0.000 O
ATOM     44   S  GU6 D   3     121.954  16.813  85.0500  0.00  0.00     0.000 S
ATOM     45   O  GU6 D   3     121.901  18.209  84.5820  0.00  0.00     0.000 OA
ATOM     46   O  GU6 D   3     122.756  16.740  86.2840  0.00  0.00     0.000 O
ATOM     47   O  GU6 D   3     122.520  15.932  84.0320  0.00  0.00     0.000 OA
ENDBRANCH 38 43
BRANCH 39 48
ATOM     48   O  GU6 D   3     120.751  14.451  87.4610  0.00  0.00     0.000 O
ATOM     49   S  GU6 D   3     120.640  13.125  86.7100  0.00  0.00     0.000 S
ATOM     50   O  GU6 D   3     120.424  13.371  85.2800  0.00  0.00     0.000 OA
ATOM     51   O  GU6 D   3     121.947  12.497  86.9500  0.00  0.00     0.000 OA
ATOM     52   O  GU6 D   3     119.509  12.351  87.2680  0.00  0.00     0.000 O
ENDBRANCH 39 48
BRANCH 41 53
ATOM     53   C  GU6 D   3     117.503  17.241  90.0290  0.00  0.00     0.000 C
ATOM     54   O  GU6 D   3     116.291  16.549  89.8760  0.00  0.00     0.000 O
ATOM     55   S  GU6 D   3     115.174  16.694  90.9190  0.00  0.00     0.000 S
ATOM     56   O  GU6 D   3     114.705  18.097  90.8500  0.00  0.00     0.000 O
ATOM     57   O  GU6 D   3     114.088  15.765  90.5750  0.00  0.00     0.000 OA
ATOM     58   O  GU6 D   3     115.768  16.395  92.2410  0.00  0.00     0.000 OA
ENDBRANCH 41 53
BRANCH 37 59
ATOM     59  O4  Z9K D   4     117.580  17.037  85.7970  0.00  0.00     0.000 O
BRANCH 59 63
ATOM     60  C1  Z9K D   4     115.273  16.261  82.7110  0.00  0.00     0.000 C
ATOM     61  C2  Z9K D   4     116.336  17.191  82.0650  0.00  0.00     0.000 C
ATOM     62  C3  Z9K D   4     117.366  17.352  83.2670  0.00  0.00     0.000 C
ATOM     63  C4  Z9K D   4     116.816  17.644  84.7150  0.00  0.00     0.000 C
ATOM     64  C5  Z9K D   4     115.389  17.156  85.0060  0.00  0.00     0.000 C
ATOM     65  O5  Z9K D   4     115.283  15.963  84.1860  0.00  0.00     0.000 O
ATOM     66   O  Z9K D   4     118.356  18.370  83.0350  0.00  0.00     0.000 O
ATOM     67   C  Z9K D   4     119.489  17.930  82.3040  0.00  0.00     0.000 C
BRANCH 61 68
ATOM     68   O  Z9K D   4     116.994  16.442  81.0810  0.00  0.00     0.000 O
ATOM     69   O  Z9K D   4     116.824  18.905  80.4100  0.00  0.00     0.000 OA
ATOM     70   S  Z9K D   4     116.280  17.598  80.2000  0.00  0.00     0.000 S
ATOM     71   O  Z9K D   4     114.891  17.283  80.0570  0.00  0.00     0.000 OA
ATOM     72   O  Z9K D   4     117.032  16.884  79.2190  0.00  0.00     0.000 OA
ENDBRANCH 61 68
BRANCH 64 73
ATOM     73   C  Z9K D   4     115.149  17.035  86.5260  0.00  0.00     0.000 C
ATOM     74   O  Z9K D   4     115.037  18.062  87.2560  0.00  0.00     0.000 O
ATOM     75   O  Z9K D   4     115.051  15.919  87.0930  0.00  0.00     0.000 OA
ENDBRANCH 64 73
BRANCH 60 76
ATOM     76  O4  Z9L D   5     113.840  16.343  82.6220  0.00  0.00     0.000 O
BRANCH 76 80
ATOM     77  C1  Z9L D   5     110.486  14.212  82.2020  0.00  0.00     0.000 C
ATOM     78  C2  Z9L D   5     110.432  14.890  83.6540  0.00  0.00     0.000 C
ATOM     79  C3  Z9L D   5     111.585  16.128  83.6550  0.00  0.00     0.000 C
ATOM     80  C4  Z9L D   5     112.838  15.393  82.8770  0.00  0.00     0.000 C
ATOM     81  C5  Z9L D   5     112.869  14.507  81.5300  0.00  0.00     0.000 C
ATOM     82  O5  Z9L D   5     111.714  13.656  81.5800  0.00  0.00     0.000 O
ATOM     83   C  Z9L D   5     109.805  14.617  79.9070  0.00  0.00     0.000 C
ATOM     84   C  Z9L D   5     109.805  14.617  79.9070  0.00  0.00     0.000 C
BRANCH 78 85
ATOM     85   O  Z9L D   5     109.167  15.444  83.8260  0.00  0.00     0.000 O
ATOM     86   O  Z9L D   5     107.835  14.801  85.0590  0.00  0.00     0.000 OA
ATOM     87   S  Z9L D   5     109.178  14.314  84.9690  0.00  0.00     0.000 S
ATOM     88   O  Z9L D   5     109.811  14.733  86.1950  0.00  0.00     0.000 OA
ATOM     89   O  Z9L D   5     109.059  12.967  84.5280  0.00  0.00     0.000 OA
ENDBRANCH 78 85
BRANCH 79 90
ATOM     90   O  Z9L D   5     112.102  16.339  84.9300  0.00  0.00     0.000 O
ATOM     91   S  Z9L D   5     111.531  17.794  84.6300  0.00  0.00     0.000 S
ATOM     92   O  Z9L D   5     110.154  18.024  84.2780  0.00  0.00     0.000 OA
ATOM     93   O  Z9L D   5     112.582  18.617  84.0860  0.00  0.00     0.000 O
ATOM     94   O  Z9L D   5     111.623  17.877  86.0510  0.00  0.00     0.000 OA
ENDBRANCH 79 90
BRANCH 81 95
ATOM     95   C  Z9L D   5     114.339  13.835  81.0850  0.00  0.00     0.000 C
ATOM     96   S  Z9L D   5     115.472  12.199  81.1730  0.00  0.00     0.000 S
ATOM     97   O  Z9L D   5     114.464  12.922  82.1430  0.00  0.00     0.000 O
ATOM     98   O  Z9L D   5     116.661  13.011  81.1300  0.00  0.00     0.000 OA
ATOM     99   O  Z9L D   5     114.905  11.650  79.9880  0.00  0.00     0.000 OA
ATOM    100   O  Z9L D   5     115.573  11.304  82.3000  0.00  0.00     0.000 O
ENDBRANCH 81 95
ENDBRANCH 76 80
ENDBRANCH 60 76
ENDBRANCH 59 63
ENDBRANCH 37 59
ENDBRANCH 36 40
ENDBRANCH 23 36
ENDBRANCH 22 26
ENDBRANCH 1 22
TORSDOF 19
ENDMDL
MODEL 47
REMARK VINA RESULT:       0.0     78.689     84.747
ROOT
ATOM      1  C1  Z9H D   1      47.558  74.250 142.6640  0.00  0.00     0.000 C
ATOM      2  C2  Z9H D   1      46.935  72.851 142.8880  0.00  0.00     0.000 C
ATOM      3  C3  Z9H D   1      45.511  73.310 143.3280  0.00  0.00     0.000 C
ATOM      4  C4  Z9H D   1      45.474  74.406 144.4730  0.00  0.00     0.000 C
ATOM      5  C5  Z9H D   1      46.368  75.709 144.4510  0.00  0.00     0.000 C
ATOM      6  O5  Z9H D   1      47.533  75.246 143.7230  0.00  0.00     0.000 O
ATOM      7   O  Z9H D   1      44.684  72.199 143.6770  0.00  0.00     0.000 O
ATOM      8   C  Z9H D   1      43.781  71.756 142.6500  0.00  0.00     0.000 C
ATOM      9   O  Z9H D   1      44.110  74.830 144.5610  0.00  0.00     0.000 O
ATOM     10   C  Z9H D   1      43.345  74.235 145.6130  0.00  0.00     0.000 C
ENDROOT
BRANCH 2 11
ATOM     11   O  Z9H D   1      46.779  72.386 141.5730  0.00  0.00     0.000 O
ATOM     12   O  Z9H D   1      47.730  70.929 140.8440  0.00  0.00     0.000 OA
ATOM     13   S  Z9H D   1      47.843  71.381 142.1900  0.00  0.00     0.000 S
ATOM     14   O  Z9H D   1      47.172  70.542 143.1420  0.00  0.00     0.000 OA
ATOM     15   O  Z9H D   1      49.122  72.020 142.4020  0.00  0.00     0.000 O
ENDBRANCH 2 11
BRANCH 5 16
ATOM     16   C  Z9H D   1      46.515  76.493 145.9220  0.00  0.00     0.000 C
ATOM     17   S  Z9H D   1      46.640  78.295 146.8040  0.00  0.00     0.000 S
ATOM     18   O  Z9H D   1      45.782  77.649 145.5980  0.00  0.00     0.000 O
ATOM     19   O  Z9H D   1      48.043  78.434 146.5380  0.00  0.00     0.000 O
ATOM     20   O  Z9H D   1      46.122  77.868 148.0570  0.00  0.00     0.000 OA
ATOM     21   O  Z9H D   1      45.900  79.453 146.3960  0.00  0.00     0.000 OA
ENDBRANCH 5 16
BRANCH 1 22
ATOM     22  O4  GU1 D   2      46.965  75.021 141.5570  0.00  0.00     0.000 O
BRANCH 22 26
ATOM     23  C1  GU1 D   2      47.742  77.681 138.5090  0.00  0.00     0.000 C
ATOM     24  C2  GU1 D   2      48.851  76.676 138.7780  0.00  0.00     0.000 C
ATOM     25  C3  GU1 D   2      48.311  75.552 139.6150  0.00  0.00     0.000 C
ATOM     26  C4  GU1 D   2      47.634  76.085 140.8700  0.00  0.00     0.000 C
ATOM     27  C5  GU1 D   2      46.612  77.163 140.4970  0.00  0.00     0.000 C
ATOM     28  O5  GU1 D   2      47.231  78.195 139.7340  0.00  0.00     0.000 O
ATOM     29   O  GU1 D   2      49.371  76.123 137.5750  0.00  0.00     0.000 O
ATOM     30   C  GU1 D   2      50.553  76.762 137.1140  0.00  0.00     0.000 C
ATOM     31   C  GU1 D   2      49.520  73.501 139.2650  0.00  0.00     0.000 C
ATOM     32   O  GU1 D   2      49.403  74.714 140.0050  0.00  0.00     0.000 O
BRANCH 27 33
ATOM     33   C  GU1 D   2      46.011  77.796 141.7300  0.00  0.00     0.000 C
ATOM     34   O  GU1 D   2      46.717  78.504 142.4180  0.00  0.00     0.000 OA
ATOM     35   O  GU1 D   2      44.841  77.600 142.0200  0.00  0.00     0.000 O
ENDBRANCH 27 33
BRANCH 23 36
ATOM     36  O4  GU6 D   3      48.057  78.967 137.9390  0.00  0.00     0.000 O
BRANCH 36 40
ATOM     37  C1  GU6 D   3      48.916  82.925 137.4020  0.00  0.00     0.000 C
ATOM     38  C2  GU6 D   3      48.269  82.263 136.1920  0.00  0.00     0.000 C
ATOM     39  C3  GU6 D   3      47.749  80.903 136.5790  0.00  0.00     0.000 C
ATOM     40  C4  GU6 D   3      48.128  80.378 137.8950  0.00  0.00     0.000 C
ATOM     41  C5  GU6 D   3      49.608  80.776 138.2100  0.00  0.00     0.000 C
ATOM     42  O5  GU6 D   3      49.988  82.108 137.8460  0.00  0.00     0.000 O
BRANCH 38 43
ATOM     43   O  GU6 D   3      47.212  83.060 135.6940  0.00  0.00     0.000 O
ATOM     44   S  GU6 D   3      47.334  83.419 134.2190  0.00  0.00     0.000 S
ATOM     45   O  GU6 D   3      48.250  84.565 134.0900  0.00  0.00     0.000 OA
ATOM     46   O  GU6 D   3      47.895  82.261 133.4980  0.00  0.00     0.000 O
ATOM     47   O  GU6 D   3      46.008  83.737 133.7000  0.00  0.00     0.000 OA
ENDBRANCH 38 43
BRANCH 39 48
ATOM     48   O  GU6 D   3      46.751  80.261 135.8090  0.00  0.00     0.000 O
ATOM     49   S  GU6 D   3      45.240  80.189 136.0260  0.00  0.00     0.000 S
ATOM     50   O  GU6 D   3      44.680  81.540 136.1340  0.00  0.00     0.000 OA
ATOM     51   O  GU6 D   3      44.762  79.511 134.8130  0.00  0.00     0.000 OA
ATOM     52   O  GU6 D   3      44.969  79.427 137.2650  0.00  0.00     0.000 O
ENDBRANCH 39 48
BRANCH 41 53
ATOM     53   C  GU6 D   3      50.691  79.958 138.8600  0.00  0.00     0.000 C
ATOM     54   O  GU6 D   3      50.106  79.843 140.1320  0.00  0.00     0.000 O
ATOM     55   S  GU6 D   3      50.867  79.167 141.2800  0.00  0.00     0.000 S
ATOM     56   O  GU6 D   3      52.033  80.028 141.5860  0.00  0.00     0.000 O
ATOM     57   O  GU6 D   3      49.972  79.071 142.4430  0.00  0.00     0.000 OA
ATOM     58   O  GU6 D   3      51.301  77.837 140.7970  0.00  0.00     0.000 OA
ENDBRANCH 41 53
BRANCH 37 59
ATOM     59  O4  Z9K D   4      48.209  83.381 138.5740  0.00  0.00     0.000 O
BRANCH 59 63
ATOM     60  C1  Z9K D   4      46.027  85.792 140.7820  0.00  0.00     0.000 C
ATOM     61  C2  Z9K D   4      46.385  86.718 139.5870  0.00  0.00     0.000 C
ATOM     62  C3  Z9K D   4      47.108  85.690 138.6140  0.00  0.00     0.000 C
ATOM     63  C4  Z9K D   4      48.176  84.694 139.2060  0.00  0.00     0.000 C
ATOM     64  C5  Z9K D   4      48.018  84.340 140.6920  0.00  0.00     0.000 C
ATOM     65  O5  Z9K D   4      46.580  84.397 140.8860  0.00  0.00     0.000 O
ATOM     66   O  Z9K D   4      47.769  86.325 137.5050  0.00  0.00     0.000 O
ATOM     67   C  Z9K D   4      46.930  86.579 136.3900  0.00  0.00     0.000 C
BRANCH 61 68
ATOM     68   O  Z9K D   4      45.180  87.070 138.9640  0.00  0.00     0.000 O
ATOM     69   O  Z9K D   4      46.885  88.972 138.8210  0.00  0.00     0.000 OA
ATOM     70   S  Z9K D   4      45.712  88.504 139.4960  0.00  0.00     0.000 S
ATOM     71   O  Z9K D   4      45.460  88.603 140.9010  0.00  0.00     0.000 OA
ATOM     72   O  Z9K D   4      44.533  88.862 138.7760  0.00  0.00     0.000 OA
ENDBRANCH 61 68
BRANCH 64 73
ATOM     73   C  Z9K D   4      48.760  83.029 141.0260  0.00  0.00     0.000 C
ATOM     74   O  Z9K D   4      50.024  82.982 141.0630  0.00  0.00     0.000 O
ATOM     75   O  Z9K D   4      48.143  81.965 141.2800  0.00  0.00     0.000 OA
ENDBRANCH 64 73
BRANCH 60 76
ATOM     76  O4  Z9L D   5      46.139  86.063 142.1900  0.00  0.00     0.000 O
BRANCH 76 80
ATOM     77  C1  Z9L D   5      44.343  85.627 145.7330  0.00  0.00     0.000 C
ATOM     78  C2  Z9L D   5      45.705  84.782 145.7900  0.00  0.00     0.000 C
ATOM     79  C3  Z9L D   5      46.666  85.324 144.5070  0.00  0.00     0.000 C
ATOM     80  C4  Z9L D   5      45.548  85.446 143.3040  0.00  0.00     0.000 C
ATOM     81  C5  Z9L D   5      44.071  86.094 143.2980  0.00  0.00     0.000 C
ATOM     82  O5  Z9L D   5      43.461  85.719 144.5420  0.00  0.00     0.000 O
ATOM     83   C  Z9L D   5      43.475  87.838 146.2370  0.00  0.00     0.000 C
ATOM     84   C  Z9L D   5      43.475  87.838 146.2370  0.00  0.00     0.000 C
BRANCH 78 85
ATOM     85   O  Z9L D   5      46.343  85.072 146.9920  0.00  0.00     0.000 O
ATOM     86   O  Z9L D   5      46.562  83.836 148.4540  0.00  0.00     0.000 OA
ATOM     87   S  Z9L D   5      46.020  83.508 147.1710  0.00  0.00     0.000 S
ATOM     88   O  Z9L D   5      46.998  82.639 146.5630  0.00  0.00     0.000 OA
ATOM     89   O  Z9L D   5      44.661  83.165 147.4150  0.00  0.00     0.000 OA
ENDBRANCH 78 85
BRANCH 79 90
ATOM     90   O  Z9L D   5      47.504  84.315 144.0410  0.00  0.00     0.000 O
ATOM     91   S  Z9L D   5      48.594  85.409 144.4290  0.00  0.00     0.000 S
ATOM     92   O  Z9L D   5      48.683  85.974 145.7500  0.00  0.00     0.000 OA
ATOM     93   O  Z9L D   5      48.918  86.194 143.2640  0.00  0.00     0.000 O
ATOM     94   O  Z9L D   5      49.432  84.254 144.4050  0.00  0.00     0.000 OA
ENDBRANCH 79 90
BRANCH 81 95
ATOM     95   C  Z9L D   5      43.172  85.948 141.8900  0.00  0.00     0.000 C
ATOM     96   S  Z9L D   5      41.780  84.875 140.9530  0.00  0.00     0.000 S
ATOM     97   O  Z9L D   5      42.978  84.560 141.9260  0.00  0.00     0.000 O
ATOM     98   O  Z9L D   5      42.359  85.221 139.6810  0.00  0.00     0.000 OA
ATOM     99   O  Z9L D   5      40.712  85.633 141.5120  0.00  0.00     0.000 OA
ATOM    100   O  Z9L D   5      41.640  83.441 141.0150  0.00  0.00     0.000 O
ENDBRANCH 81 95
ENDBRANCH 76 80
ENDBRANCH 60 76
ENDBRANCH 59 63
ENDBRANCH 37 59
ENDBRANCH 36 40
ENDBRANCH 23 36
ENDBRANCH 22 26
ENDBRANCH 1 22
TORSDOF 19
ENDMDL
MODEL 48
REMARK VINA RESULT:       0.0    132.726    138.557
ROOT
ATOM      1  C1  Z9H D   1     143.931 133.523  22.6310  0.00  0.00     0.000 C
ATOM      2  C2  Z9H D   1     144.756 132.215  22.6890  0.00  0.00     0.000 C
ATOM      3  C3  Z9H D   1     145.425 132.437  24.0810  0.00  0.00     0.000 C
ATOM      4  C4  Z9H D   1     146.125 133.844  24.2820  0.00  0.00     0.000 C
ATOM      5  C5  Z9H D   1     145.433 135.215  23.9040  0.00  0.00     0.000 C
ATOM      6  O5  Z9H D   1     144.582 134.813  22.8020  0.00  0.00     0.000 O
ATOM      7   O  Z9H D   1     146.332 131.380  24.4030  0.00  0.00     0.000 O
ATOM      8   C  Z9H D   1     145.807 130.361  25.2700  0.00  0.00     0.000 C
ATOM      9   O  Z9H D   1     146.469 133.913  25.6700  0.00  0.00     0.000 O
ATOM     10   C  Z9H D   1     147.830 133.603  25.9840  0.00  0.00     0.000 C
ENDROOT
BRANCH 2 11
ATOM     11   O  Z9H D   1     143.761 131.251  22.9110  0.00  0.00     0.000 O
ATOM     12   O  Z9H D   1     143.284 129.915  21.6690  0.00  0.00     0.000 OA
ATOM     13   S  Z9H D   1     144.324 130.868  21.4760  0.00  0.00     0.000 S
ATOM     14   O  Z9H D   1     145.644 130.328  21.6390  0.00  0.00     0.000 OA
ATOM     15   O  Z9H D   1     143.940 131.838  20.4760  0.00  0.00     0.000 O
ENDBRANCH 2 11
BRANCH 5 16
ATOM     16   C  Z9H D   1     146.472 136.520  23.7710  0.00  0.00     0.000 C
ATOM     17   S  Z9H D   1     146.664 138.491  24.1110  0.00  0.00     0.000 S
ATOM     18   O  Z9H D   1     146.029 137.234  24.9000  0.00  0.00     0.000 O
ATOM     19   O  Z9H D   1     145.971 138.862  22.9110  0.00  0.00     0.000 O
ATOM     20   O  Z9H D   1     148.081 138.472  24.2180  0.00  0.00     0.000 OA
ATOM     21   O  Z9H D   1     146.147 139.173  25.2610  0.00  0.00     0.000 OA
ENDBRANCH 5 16
BRANCH 1 22
ATOM     22  O4  GU1 D   2     142.862 133.626  23.6400  0.00  0.00     0.000 O
BRANCH 22 26
ATOM     23  C1  GU1 D   2     139.045 134.989  24.3770  0.00  0.00     0.000 C
ATOM     24  C2  GU1 D   2     139.281 134.481  22.9620  0.00  0.00     0.000 C
ATOM     25  C3  GU1 D   2     140.548 133.676  22.9280  0.00  0.00     0.000 C
ATOM     26  C4  GU1 D   2     141.711 134.468  23.5080  0.00  0.00     0.000 C
ATOM     27  C5  GU1 D   2     141.334 135.021  24.8850  0.00  0.00     0.000 C
ATOM     28  O5  GU1 D   2     140.139 135.794  24.8020  0.00  0.00     0.000 O
ATOM     29   O  GU1 D   2     138.217 133.652  22.5100  0.00  0.00     0.000 O
ATOM     30   C  GU1 D   2     137.253 134.335  21.7190  0.00  0.00     0.000 C
ATOM     31   C  GU1 D   2     140.525 132.026  21.1760  0.00  0.00     0.000 C
ATOM     32   O  GU1 D   2     140.845 133.360  21.5640  0.00  0.00     0.000 O
BRANCH 27 33
ATOM     33   C  GU1 D   2     142.423 135.912  25.4340  0.00  0.00     0.000 C
ATOM     34   O  GU1 D   2     142.615 136.985  24.9000  0.00  0.00     0.000 OA
ATOM     35   O  GU1 D   2     143.089 135.559  26.3940  0.00  0.00     0.000 O
ENDBRANCH 27 33
BRANCH 23 36
ATOM     36  O4  GU6 D   3     138.033 135.985  24.6250  0.00  0.00     0.000 O
BRANCH 36 40
ATOM     37  C1  GU6 D   3     136.050 139.497  25.2770  0.00  0.00     0.000 C
ATOM     38  C2  GU6 D   3     135.355 138.276  25.8660  0.00  0.00     0.000 C
ATOM     39  C3  GU6 D   3     136.285 137.092  25.8130  0.00  0.00     0.000 C
ATOM     40  C4  GU6 D   3     137.528 137.235  25.0480  0.00  0.00     0.000 C
ATOM     41  C5  GU6 D   3     137.255 138.081  23.7610  0.00  0.00     0.000 C
ATOM     42  O5  GU6 D   3     136.396 139.214  23.9290  0.00  0.00     0.000 O
BRANCH 38 43
ATOM     43   O  GU6 D   3     134.964 138.523  27.2030  0.00  0.00     0.000 O
ATOM     44   S  GU6 D   3     133.483 138.296  27.4770  0.00  0.00     0.000 S
ATOM     45   O  GU6 D   3     132.738 139.491  27.0450  0.00  0.00     0.000 OA
ATOM     46   O  GU6 D   3     133.033 137.130  26.6960  0.00  0.00     0.000 O
ATOM     47   O  GU6 D   3     133.302 138.043  28.9030  0.00  0.00     0.000 OA
ENDBRANCH 38 43
BRANCH 39 48
ATOM     48   O  GU6 D   3     136.084 135.972  26.6540  0.00  0.00     0.000 O
ATOM     49   S  GU6 D   3     136.744 135.614  27.9850  0.00  0.00     0.000 S
ATOM     50   O  GU6 D   3     136.580 136.714  28.9430  0.00  0.00     0.000 OA
ATOM     51   O  GU6 D   3     136.001 134.421  28.4150  0.00  0.00     0.000 OA
ATOM     52   O  GU6 D   3     138.182 135.354  27.7530  0.00  0.00     0.000 O
ENDBRANCH 39 48
BRANCH 41 53
ATOM     53   C  GU6 D   3     137.784 137.882  22.3660  0.00  0.00     0.000 C
ATOM     54   O  GU6 D   3     139.139 138.129  22.6380  0.00  0.00     0.000 O
ATOM     55   S  GU6 D   3     140.166 138.169  21.4990  0.00  0.00     0.000 S
ATOM     56   O  GU6 D   3     139.830 139.344  20.6610  0.00  0.00     0.000 O
ATOM     57   O  GU6 D   3     141.508 138.314  22.0830  0.00  0.00     0.000 OA
ATOM     58   O  GU6 D   3     140.022 136.911  20.7330  0.00  0.00     0.000 OA
ENDBRANCH 41 53
BRANCH 37 59
ATOM     59  O4  Z9K D   4     137.172 140.180  25.8730  0.00  0.00     0.000 O
BRANCH 59 63
ATOM     60  C1  Z9K D   4     139.044 142.631  28.3100  0.00  0.00     0.000 C
ATOM     61  C2  Z9K D   4     137.569 143.076  28.5110  0.00  0.00     0.000 C
ATOM     62  C3  Z9K D   4     136.803 141.966  27.6690  0.00  0.00     0.000 C
ATOM     63  C4  Z9K D   4     137.339 141.582  26.2370  0.00  0.00     0.000 C
ATOM     64  C5  Z9K D   4     138.839 141.809  25.9950  0.00  0.00     0.000 C
ATOM     65  O5  Z9K D   4     139.416 141.574  27.3060  0.00  0.00     0.000 O
ATOM     66   O  Z9K D   4     135.408 142.262  27.4740  0.00  0.00     0.000 O
ATOM     67   C  Z9K D   4     134.566 141.842  28.5350  0.00  0.00     0.000 C
BRANCH 61 68
ATOM     68   O  Z9K D   4     137.248 142.841  29.8550  0.00  0.00     0.000 O
ATOM     69   O  Z9K D   4     136.021 144.899  28.9540  0.00  0.00     0.000 OA
ATOM     70   S  Z9K D   4     137.121 144.453  29.7560  0.00  0.00     0.000 S
ATOM     71   O  Z9K D   4     138.432 145.026  29.7690  0.00  0.00     0.000 OA
ATOM     72   O  Z9K D   4     136.702 144.194  31.0950  0.00  0.00     0.000 OA
ENDBRANCH 61 68
BRANCH 64 73
ATOM     73   C  Z9K D   4     139.337 140.963  24.8030  0.00  0.00     0.000 C
ATOM     74   O  Z9K D   4     139.015 141.253  23.6140  0.00  0.00     0.000 O
ATOM     75   O  Z9K D   4     140.080 139.965  24.9660  0.00  0.00     0.000 OA
ENDBRANCH 64 73
BRANCH 60 76
ATOM     76  O4  Z9L D   5     140.197 143.449  28.0460  0.00  0.00     0.000 O
BRANCH 76 80
ATOM     77  C1  Z9L D   5     144.059 143.995  28.9180  0.00  0.00     0.000 C
ATOM     78  C2  Z9L D   5     143.978 143.609  27.3630  0.00  0.00     0.000 C
ATOM     79  C3  Z9L D   5     142.369 143.830  26.8910  0.00  0.00     0.000 C
ATOM     80  C4  Z9L D   5     141.570 143.188  28.1810  0.00  0.00     0.000 C
ATOM     81  C5  Z9L D   5     141.793 143.391  29.7660  0.00  0.00     0.000 C
ATOM     82  O5  Z9L D   5     143.212 143.390  29.9780  0.00  0.00     0.000 O
ATOM     83   C  Z9L D   5     144.071 145.932  30.3800  0.00  0.00     0.000 C
ATOM     84   C  Z9L D   5     144.071 145.932  30.3800  0.00  0.00     0.000 C
BRANCH 78 85
ATOM     85   O  Z9L D   5     144.786 144.495  26.6560  0.00  0.00     0.000 O
ATOM     86   O  Z9L D   5     146.431 144.026  25.7700  0.00  0.00     0.000 OA
ATOM     87   S  Z9L D   5     145.535 143.098  26.3900  0.00  0.00     0.000 S
ATOM     88   O  Z9L D   5     144.974 142.336  25.3010  0.00  0.00     0.000 OA
ATOM     89   O  Z9L D   5     146.260 142.549  27.4830  0.00  0.00     0.000 OA
ENDBRANCH 78 85
BRANCH 79 90
ATOM     90   O  Z9L D   5     142.020 142.964  25.8580  0.00  0.00     0.000 O
ATOM     91   S  Z9L D   5     141.707 144.358  25.1550  0.00  0.00     0.000 S
ATOM     92   O  Z9L D   5     142.697 145.396  25.0280  0.00  0.00     0.000 OA
ATOM     93   O  Z9L D   5     140.313 144.681  25.3330  0.00  0.00     0.000 O
ATOM     94   O  Z9L D   5     141.805 143.536  23.9930  0.00  0.00     0.000 OA
ENDBRANCH 79 90
BRANCH 81 95
ATOM     95   C  Z9L D   5     140.830 142.486  30.7990  0.00  0.00     0.000 C
ATOM     96   S  Z9L D   5     140.729 140.821  31.8870  0.00  0.00     0.000 S
ATOM     97   O  Z9L D   5     141.356 141.221  30.4990  0.00  0.00     0.000 O
ATOM     98   O  Z9L D   5     139.301 140.776  31.6990  0.00  0.00     0.000 OA
ATOM     99   O  Z9L D   5     141.306 141.443  33.0310  0.00  0.00     0.000 OA
ATOM    100   O  Z9L D   5     141.277 139.540  31.5180  0.00  0.00     0.000 O
ENDBRANCH 81 95
ENDBRANCH 76 80
ENDBRANCH 60 76
ENDBRANCH 59 63
ENDBRANCH 37 59
ENDBRANCH 36 40
ENDBRANCH 23 36
ENDBRANCH 22 26
ENDBRANCH 1 22
TORSDOF 19
ENDMDL
MODEL 49
REMARK VINA RESULT:       0.0     56.032     63.357
ROOT
ATOM      1  C1  Z9H D   1      79.215  44.073  12.5250  0.00  0.00     0.000 C
ATOM      2  C2  Z9H D   1      80.276  44.136  11.4010  0.00  0.00     0.000 C
ATOM      3  C3  Z9H D   1      80.685  45.632  11.5650  0.00  0.00     0.000 C
ATOM      4  C4  Z9H D   1      79.484  46.665  11.6030  0.00  0.00     0.000 C
ATOM      5  C5  Z9H D   1      78.197  46.461  12.4970  0.00  0.00     0.000 C
ATOM      6  O5  Z9H D   1      78.107  45.015  12.5450  0.00  0.00     0.000 O
ATOM      7   O  Z9H D   1      81.649  46.025  10.5860  0.00  0.00     0.000 O
ATOM      8   C  Z9H D   1      83.015  46.024  11.0310  0.00  0.00     0.000 C
ATOM      9   O  Z9H D   1      80.062  47.921  11.9740  0.00  0.00     0.000 O
ATOM     10   C  Z9H D   1      80.322  48.824  10.8940  0.00  0.00     0.000 C
ENDROOT
BRANCH 2 11
ATOM     11   O  Z9H D   1      81.336  43.404  11.9580  0.00  0.00     0.000 O
ATOM     12   O  Z9H D   1      81.941  41.744  11.2960  0.00  0.00     0.000 OA
ATOM     13   S  Z9H D   1      80.899  42.521  10.7120  0.00  0.00     0.000 S
ATOM     14   O  Z9H D   1      81.289  43.207   9.5140  0.00  0.00     0.000 OA
ATOM     15   O  Z9H D   1      79.618  41.889  10.9290  0.00  0.00     0.000 O
ENDBRANCH 2 11
BRANCH 5 16
ATOM     16   C  Z9H D   1      76.881  47.402  12.0700  0.00  0.00     0.000 C
ATOM     17   S  Z9H D   1      75.319  48.443  12.7890  0.00  0.00     0.000 S
ATOM     18   O  Z9H D   1      76.866  48.238  13.2010  0.00  0.00     0.000 O
ATOM     19   O  Z9H D   1      74.494  47.280  12.9470  0.00  0.00     0.000 O
ATOM     20   O  Z9H D   1      75.220  49.324  11.6780  0.00  0.00     0.000 OA
ATOM     21   O  Z9H D   1      75.352  49.243  13.9780  0.00  0.00     0.000 OA
ENDBRANCH 5 16
BRANCH 1 22
ATOM     22  O4  GU1 D   2      79.745  44.254  13.8880  0.00  0.00     0.000 O
BRANCH 22 26
ATOM     23  C1  GU1 D   2      79.379  43.102  17.8260  0.00  0.00     0.000 C
ATOM     24  C2  GU1 D   2      79.099  42.005  16.8100  0.00  0.00     0.000 C
ATOM     25  C3  GU1 D   2      79.628  42.423  15.4680  0.00  0.00     0.000 C
ATOM     26  C4  GU1 D   2      79.089  43.790  15.0740  0.00  0.00     0.000 C
ATOM     27  C5  GU1 D   2      79.328  44.795  16.2050  0.00  0.00     0.000 C
ATOM     28  O5  GU1 D   2      78.761  44.318  17.4230  0.00  0.00     0.000 O
ATOM     29   O  GU1 D   2      79.720  40.776  17.1690  0.00  0.00     0.000 O
ATOM     30   C  GU1 D   2      78.858  39.873  17.8460  0.00  0.00     0.000 C
ATOM     31   C  GU1 D   2      80.202  40.533  14.0920  0.00  0.00     0.000 C
ATOM     32   O  GU1 D   2      79.200  41.465  14.4950  0.00  0.00     0.000 O
BRANCH 27 33
ATOM     33   C  GU1 D   2      78.697  46.131  15.8920  0.00  0.00     0.000 C
ATOM     34   O  GU1 D   2      77.486  46.211  15.8880  0.00  0.00     0.000 OA
ATOM     35   O  GU1 D   2      79.393  47.106  15.6540  0.00  0.00     0.000 O
ENDBRANCH 27 33
BRANCH 23 36
ATOM     36  O4  GU6 D   3      78.759  43.055  19.1260  0.00  0.00     0.000 O
BRANCH 36 40
ATOM     37  C1  GU6 D   3      76.276  43.621  22.3210  0.00  0.00     0.000 C
ATOM     38  C2  GU6 D   3      77.702  43.246  22.7050  0.00  0.00     0.000 C
ATOM     39  C3  GU6 D   3      78.590  43.328  21.4910  0.00  0.00     0.000 C
ATOM     40  C4  GU6 D   3      77.945  43.513  20.1860  0.00  0.00     0.000 C
ATOM     41  C5  GU6 D   3      76.616  42.688  20.1380  0.00  0.00     0.000 C
ATOM     42  O5  GU6 D   3      75.821  42.715  21.3290  0.00  0.00     0.000 O
BRANCH 38 43
ATOM     43   O  GU6 D   3      78.188  44.107  23.7170  0.00  0.00     0.000 O
ATOM     44   S  GU6 D   3      78.693  43.391  24.9630  0.00  0.00     0.000 S
ATOM     45   O  GU6 D   3      77.537  43.056  25.8120  0.00  0.00     0.000 OA
ATOM     46   O  GU6 D   3      79.373  42.150  24.5490  0.00  0.00     0.000 O
ATOM     47   O  GU6 D   3      79.630  44.266  25.6610  0.00  0.00     0.000 OA
ENDBRANCH 38 43
BRANCH 39 48
ATOM     48   O  GU6 D   3      79.992  43.456  21.6240  0.00  0.00     0.000 O
ATOM     49   S  GU6 D   3      80.874  44.703  21.5560  0.00  0.00     0.000 S
ATOM     50   O  GU6 D   3      80.411  45.703  22.5240  0.00  0.00     0.000 OA
ATOM     51   O  GU6 D   3      82.203  44.190  21.9170  0.00  0.00     0.000 OA
ATOM     52   O  GU6 D   3      80.815  45.258  20.1860  0.00  0.00     0.000 O
ENDBRANCH 39 48
BRANCH 41 53
ATOM     53   C  GU6 D   3      76.045  41.878  19.0060  0.00  0.00     0.000 C
ATOM     54   O  GU6 D   3      75.804  42.937  18.1160  0.00  0.00     0.000 O
ATOM     55   S  GU6 D   3      75.091  42.685  16.7810  0.00  0.00     0.000 S
ATOM     56   O  GU6 D   3      73.706  42.272  17.1070  0.00  0.00     0.000 O
ATOM     57   O  GU6 D   3      75.093  43.934  16.0060  0.00  0.00     0.000 OA
ATOM     58   O  GU6 D   3      75.822  41.598  16.0920  0.00  0.00     0.000 OA
ENDBRANCH 41 53
BRANCH 37 59
ATOM     59  O4  Z9K D   4      75.844  44.941  21.9270  0.00  0.00     0.000 O
BRANCH 59 63
ATOM     60  C1  Z9K D   4      74.694  48.670  22.4010  0.00  0.00     0.000 C
ATOM     61  C2  Z9K D   4      74.583  48.133  23.8550  0.00  0.00     0.000 C
ATOM     62  C3  Z9K D   4      75.221  46.686  23.6920  0.00  0.00     0.000 C
ATOM     63  C4  Z9K D   4      74.790  45.789  22.4700  0.00  0.00     0.000 C
ATOM     64  C5  Z9K D   4      74.298  46.540  21.2230  0.00  0.00     0.000 C
ATOM     65  O5  Z9K D   4      75.073  47.767  21.2590  0.00  0.00     0.000 O
ATOM     66   O  Z9K D   4      75.036  45.849  24.8480  0.00  0.00     0.000 O
ATOM     67   C  Z9K D   4      76.017  46.018  25.8580  0.00  0.00     0.000 C
BRANCH 61 68
ATOM     68   O  Z9K D   4      75.480  48.873  24.6370  0.00  0.00     0.000 O
ATOM     69   O  Z9K D   4      73.406  48.211  25.9830  0.00  0.00     0.000 OA
ATOM     70   S  Z9K D   4      74.053  49.282  25.2860  0.00  0.00     0.000 S
ATOM     71   O  Z9K D   4      73.409  50.235  24.4350  0.00  0.00     0.000 OA
ATOM     72   O  Z9K D   4      74.981  49.955  26.1360  0.00  0.00     0.000 OA
ENDBRANCH 61 68
BRANCH 64 73
ATOM     73   C  Z9K D   4      74.388  45.642  19.9700  0.00  0.00     0.000 C
ATOM     74   O  Z9K D   4      73.594  44.671  19.8020  0.00  0.00     0.000 O
ATOM     75   O  Z9K D   4      75.242  45.843  19.0730  0.00  0.00     0.000 OA
ENDBRANCH 64 73
BRANCH 60 76
ATOM     76  O4  Z9L D   5      73.722  49.409  21.6440  0.00  0.00     0.000 O
BRANCH 76 80
ATOM     77  C1  Z9L D   5      73.218  52.445  19.0940  0.00  0.00     0.000 C
ATOM     78  C2  Z9L D   5      72.801  51.106  18.3170  0.00  0.00     0.000 C
ATOM     79  C3  Z9L D   5      72.571  49.914  19.4950  0.00  0.00     0.000 C
ATOM     80  C4  Z9L D   5      73.850  50.202  20.4910  0.00  0.00     0.000 C
ATOM     81  C5  Z9L D   5      74.423  51.582  21.0990  0.00  0.00     0.000 C
ATOM     82  O5  Z9L D   5      74.359  52.547  20.0390  0.00  0.00     0.000 O
ATOM     83   C  Z9L D   5      72.256  54.212  20.4540  0.00  0.00     0.000 C
ATOM     84   C  Z9L D   5      72.256  54.212  20.4540  0.00  0.00     0.000 C
BRANCH 78 85
ATOM     85   O  Z9L D   5      71.595  51.342  17.6650  0.00  0.00     0.000 O
ATOM     86   O  Z9L D   5      71.373  51.455  15.7550  0.00  0.00     0.000 OA
ATOM     87   S  Z9L D   5      72.584  51.088  16.4240  0.00  0.00     0.000 S
ATOM     88   O  Z9L D   5      72.777  49.694  16.1110  0.00  0.00     0.000 OA
ATOM     89   O  Z9L D   5      73.506  52.129  16.1260  0.00  0.00     0.000 OA
ENDBRANCH 78 85
BRANCH 79 90
ATOM     90   O  Z9L D   5      72.856  48.646  18.9950  0.00  0.00     0.000 O
ATOM     91   S  Z9L D   5      71.344  48.422  19.4430  0.00  0.00     0.000 S
ATOM     92   O  Z9L D   5      70.268  49.247  18.9610  0.00  0.00     0.000 OA
ATOM     93   O  Z9L D   5      71.317  47.873  20.7760  0.00  0.00     0.000 O
ATOM     94   O  Z9L D   5      71.476  47.327  18.5380  0.00  0.00     0.000 OA
ENDBRANCH 79 90
BRANCH 81 95
ATOM     95   C  Z9L D   5      75.824  51.494  22.0180  0.00  0.00     0.000 C
ATOM     96   S  Z9L D   5      77.807  51.676  21.9800  0.00  0.00     0.000 S
ATOM     97   O  Z9L D   5      76.708  51.135  20.9910  0.00  0.00     0.000 O
ATOM     98   O  Z9L D   5      77.923  50.709  23.0410  0.00  0.00     0.000 OA
ATOM     99   O  Z9L D   5      77.759  53.073  22.2540  0.00  0.00     0.000 OA
ATOM    100   O  Z9L D   5      78.669  51.272  20.8980  0.00  0.00     0.000 O
ENDBRANCH 81 95
ENDBRANCH 76 80
ENDBRANCH 60 76
ENDBRANCH 59 63
ENDBRANCH 37 59
ENDBRANCH 36 40
ENDBRANCH 23 36
ENDBRANCH 22 26
ENDBRANCH 1 22
TORSDOF 19
ENDMDL
MODEL 50
REMARK VINA RESULT:       0.0     75.753     83.319
ROOT
ATOM      1  C1  Z9H D   1      50.583  78.246 146.9500  0.00  0.00     0.000 C
ATOM      2  C2  Z9H D   1      51.822  78.170 147.8730  0.00  0.00     0.000 C
ATOM      3  C3  Z9H D   1      52.483  76.900 147.2540  0.00  0.00     0.000 C
ATOM      4  C4  Z9H D   1      51.524  75.650 147.0830  0.00  0.00     0.000 C
ATOM      5  C5  Z9H D   1      50.081  75.749 146.4450  0.00  0.00     0.000 C
ATOM      6  O5  Z9H D   1      49.699  77.099 146.8080  0.00  0.00     0.000 O
ATOM      7   O  Z9H D   1      53.667  76.525 147.9600  0.00  0.00     0.000 O
ATOM      8   C  Z9H D   1      54.902  76.961 147.3680  0.00  0.00     0.000 C
ATOM      9   O  Z9H D   1      52.263  74.697 146.3120  0.00  0.00     0.000 O
ATOM     10   C  Z9H D   1      52.889  73.650 147.0600  0.00  0.00     0.000 C
ENDROOT
BRANCH 2 11
ATOM     11   O  Z9H D   1      52.596  79.247 147.4120  0.00  0.00     0.000 O
ATOM     12   O  Z9H D   1      52.970  80.793 148.4250  0.00  0.00     0.000 OA
ATOM     13   S  Z9H D   1      52.227  79.673 148.8970  0.00  0.00     0.000 S
ATOM     14   O  Z9H D   1      52.957  78.833 149.8030  0.00  0.00     0.000 OA
ATOM     15   O  Z9H D   1      50.828  80.013 149.0230  0.00  0.00     0.000 O
ENDBRANCH 2 11
BRANCH 5 16
ATOM     16   C  Z9H D   1      49.078  74.446 146.7570  0.00  0.00     0.000 C
ATOM     17   S  Z9H D   1      47.651  73.265 145.9770  0.00  0.00     0.000 S
ATOM     18   O  Z9H D   1      49.025  73.928 145.4500  0.00  0.00     0.000 O
ATOM     19   O  Z9H D   1      46.596  74.200 146.2470  0.00  0.00     0.000 O
ATOM     20   O  Z9H D   1      47.932  72.147 146.8070  0.00  0.00     0.000 OA
ATOM     21   O  Z9H D   1      47.626  72.806 144.6190  0.00  0.00     0.000 OA
ENDBRANCH 5 16
BRANCH 1 22
ATOM     22  O4  GU1 D   2      50.881  78.530 145.5360  0.00  0.00     0.000 O
BRANCH 22 26
ATOM     23  C1  GU1 D   2      49.582  80.474 142.1440  0.00  0.00     0.000 C
ATOM     24  C2  GU1 D   2      49.280  81.194 143.4490  0.00  0.00     0.000 C
ATOM     25  C3  GU1 D   2      50.116  80.605 144.5470  0.00  0.00     0.000 C
ATOM     26  C4  GU1 D   2      49.941  79.095 144.6140  0.00  0.00     0.000 C
ATOM     27  C5  GU1 D   2      50.164  78.479 143.2290  0.00  0.00     0.000 C
ATOM     28  O5  GU1 D   2      49.302  79.085 142.2690  0.00  0.00     0.000 O
ATOM     29   O  GU1 D   2      49.569  82.585 143.3680  0.00  0.00     0.000 O
ATOM     30   C  GU1 D   2      48.436  83.391 143.0780  0.00  0.00     0.000 C
ATOM     31   C  GU1 D   2      50.545  82.189 146.3080  0.00  0.00     0.000 C
ATOM     32   O  GU1 D   2      49.692  81.170 145.7920  0.00  0.00     0.000 O
BRANCH 27 33
ATOM     33   C  GU1 D   2      49.879  76.996 143.2370  0.00  0.00     0.000 C
ATOM     34   O  GU1 D   2      48.729  76.630 143.3690  0.00  0.00     0.000 OA
ATOM     35   O  GU1 D   2      50.786  76.189 143.1100  0.00  0.00     0.000 O
ENDBRANCH 27 33
BRANCH 23 36
ATOM     36  O4  GU6 D   3      48.739  80.683 140.9930  0.00  0.00     0.000 O
BRANCH 36 40
ATOM     37  C1  GU6 D   3      45.876  80.323 138.1000  0.00  0.00     0.000 C
ATOM     38  C2  GU6 D   3      47.105  81.110 137.6600  0.00  0.00     0.000 C
ATOM     39  C3  GU6 D   3      48.198  80.954 138.6850  0.00  0.00     0.000 C
ATOM     40  C4  GU6 D   3      47.852  80.311 139.9580  0.00  0.00     0.000 C
ATOM     41  C5  GU6 D   3      46.418  80.758 140.3960  0.00  0.00     0.000 C
ATOM     42  O5  GU6 D   3      45.440  80.829 139.3520  0.00  0.00     0.000 O
BRANCH 38 43
ATOM     43   O  GU6 D   3      47.558  80.660 136.3980  0.00  0.00     0.000 O
ATOM     44   S  GU6 D   3      47.676  81.755 135.3450  0.00  0.00     0.000 S
ATOM     45   O  GU6 D   3      46.341  81.997 134.7710  0.00  0.00     0.000 OA
ATOM     46   O  GU6 D   3      48.160  82.985 135.9970  0.00  0.00     0.000 O
ATOM     47   O  GU6 D   3      48.624  81.324 134.3230  0.00  0.00     0.000 OA
ENDBRANCH 38 43
BRANCH 39 48
ATOM     48   O  GU6 D   3      49.550  81.201 138.3490  0.00  0.00     0.000 O
ATOM     49   S  GU6 D   3      50.658  80.223 137.9610  0.00  0.00     0.000 S
ATOM     50   O  GU6 D   3      50.234  79.404 136.8200  0.00  0.00     0.000 OA
ATOM     51   O  GU6 D   3      51.770  81.110 137.5930  0.00  0.00     0.000 OA
ATOM     52   O  GU6 D   3      50.961  79.357 139.1220  0.00  0.00     0.000 O
ENDBRANCH 39 48
BRANCH 41 53
ATOM     53   C  GU6 D   3      45.914  81.111 141.7690  0.00  0.00     0.000 C
ATOM     54   O  GU6 D   3      46.053  79.842 142.3550  0.00  0.00     0.000 O
ATOM     55   S  GU6 D   3      45.561  79.588 143.7860  0.00  0.00     0.000 S
ATOM     56   O  GU6 D   3      44.086  79.723 143.7610  0.00  0.00     0.000 O
ATOM     57   O  GU6 D   3      45.951  78.226 144.1810  0.00  0.00     0.000 OA
ATOM     58   O  GU6 D   3      46.175  80.619 144.6520  0.00  0.00     0.000 OA
ENDBRANCH 41 53
BRANCH 37 59
ATOM     59  O4  Z9K D   4      45.794  78.884 138.1650  0.00  0.00     0.000 O
BRANCH 59 63
ATOM     60  C1  Z9K D   4      45.340  75.216 136.8290  0.00  0.00     0.000 C
ATOM     61  C2  Z9K D   4      44.861  76.043 135.6050  0.00  0.00     0.000 C
ATOM     62  C3  Z9K D   4      45.218  77.518 136.0790  0.00  0.00     0.000 C
ATOM     63  C4  Z9K D   4      44.848  77.964 137.5450  0.00  0.00     0.000 C
ATOM     64  C5  Z9K D   4      44.751  76.840 138.5880  0.00  0.00     0.000 C
ATOM     65  O5  Z9K D   4      45.735  75.880 138.1200  0.00  0.00     0.000 O
ATOM     66   O  Z9K D   4      44.662  78.539 135.2310  0.00  0.00     0.000 O
ATOM     67   C  Z9K D   4      45.457  78.858 134.1000  0.00  0.00     0.000 C
BRANCH 61 68
ATOM     68   O  Z9K D   4      45.729  75.750 134.5450  0.00  0.00     0.000 O
ATOM     69   O  Z9K D   4      43.355  76.200 133.7010  0.00  0.00     0.000 OA
ATOM     70   S  Z9K D   4      44.317  75.180 133.9900  0.00  0.00     0.000 S
ATOM     71   O  Z9K D   4      44.042  73.925 134.6190  0.00  0.00     0.000 OA
ATOM     72   O  Z9K D   4      45.190  74.974 132.8790  0.00  0.00     0.000 OA
ENDBRANCH 61 68
BRANCH 64 73
ATOM     73   C  Z9K D   4      44.888  77.405 140.0180  0.00  0.00     0.000 C
ATOM     74   O  Z9K D   4      43.962  78.088 140.5450  0.00  0.00     0.000 O
ATOM     75   O  Z9K D   4      45.914  77.204 140.7130  0.00  0.00     0.000 OA
ENDBRANCH 64 73
BRANCH 60 76
ATOM     76  O4  Z9L D   5      44.689  74.105 137.4680  0.00  0.00     0.000 O
BRANCH 76 80
ATOM     77  C1  Z9L D   5      45.272  70.515 139.1250  0.00  0.00     0.000 C
ATOM     78  C2  Z9L D   5      44.746  71.488 140.2860  0.00  0.00     0.000 C
ATOM     79  C3  Z9L D   5      44.073  72.838 139.5210  0.00  0.00     0.000 C
ATOM     80  C4  Z9L D   5      45.180  73.112 138.3320  0.00  0.00     0.000 C
ATOM     81  C5  Z9L D   5      45.895  72.098 137.3020  0.00  0.00     0.000 C
ATOM     82  O5  Z9L D   5      46.218  70.920 138.0540  0.00  0.00     0.000 O
ATOM     83   C  Z9L D   5      44.448  68.950 137.4620  0.00  0.00     0.000 C
ATOM     84   C  Z9L D   5      44.448  68.950 137.4620  0.00  0.00     0.000 C
BRANCH 78 85
ATOM     85   O  Z9L D   5      43.751  70.820 140.9920  0.00  0.00     0.000 O
ATOM     86   O  Z9L D   5      43.908  70.201 142.8100  0.00  0.00     0.000 OA
ATOM     87   S  Z9L D   5      44.879  70.997 142.1230  0.00  0.00     0.000 S
ATOM     88   O  Z9L D   5      44.845  72.280 142.7810  0.00  0.00     0.000 OA
ATOM     89   O  Z9L D   5      46.028  70.167 142.0060  0.00  0.00     0.000 OA
ENDBRANCH 78 85
BRANCH 79 90
ATOM     90   O  Z9L D   5      44.187  73.978 140.3100  0.00  0.00     0.000 O
ATOM     91   S  Z9L D   5      42.605  73.934 140.1320  0.00  0.00     0.000 S
ATOM     92   O  Z9L D   5      41.820  72.785 140.4990  0.00  0.00     0.000 OA
ATOM     93   O  Z9L D   5      42.227  74.766 139.0170  0.00  0.00     0.000 O
ATOM     94   O  Z9L D   5      42.680  74.779 141.2810  0.00  0.00     0.000 OA
ENDBRANCH 79 90
BRANCH 81 95
ATOM     95   C  Z9L D   5      47.058  72.737 136.2770  0.00  0.00     0.000 C
ATOM     96   S  Z9L D   5      49.011  73.031 136.0160  0.00  0.00     0.000 S
ATOM     97   O  Z9L D   5      48.026  73.040 137.2450  0.00  0.00     0.000 O
ATOM     98   O  Z9L D   5      48.737  74.225 135.2570  0.00  0.00     0.000 OA
ATOM     99   O  Z9L D   5      49.192  71.772 135.3770  0.00  0.00     0.000 OA
ATOM    100   O  Z9L D   5      49.958  73.358 137.0530  0.00  0.00     0.000 O
ENDBRANCH 81 95
ENDBRANCH 76 80
ENDBRANCH 60 76
ENDBRANCH 59 63
ENDBRANCH 37 59
ENDBRANCH 36 40
ENDBRANCH 23 36
ENDBRANCH 22 26
ENDBRANCH 1 22
TORSDOF 19
ENDMDL
MODEL 51
REMARK VINA RESULT:       0.0     69.944     77.372
ROOT
ATOM      1  C1  Z9H D   1      53.542  28.806 132.0840  0.00  0.00     0.000 C
ATOM      2  C2  Z9H D   1      52.450  27.830 132.5860  0.00  0.00     0.000 C
ATOM      3  C3  Z9H D   1      51.515  28.875 133.2670  0.00  0.00     0.000 C
ATOM      4  C4  Z9H D   1      52.228  29.875 134.2680  0.00  0.00     0.000 C
ATOM      5  C5  Z9H D   1      53.563  30.646 133.9150  0.00  0.00     0.000 C
ATOM      6  O5  Z9H D   1      54.203  29.711 133.0110  0.00  0.00     0.000 O
ATOM      7   O  Z9H D   1      50.399  28.248 133.9030  0.00  0.00     0.000 O
ATOM      8   C  Z9H D   1      49.177  28.251 133.1450  0.00  0.00     0.000 C
ATOM      9   O  Z9H D   1      51.245  30.862 134.5990  0.00  0.00     0.000 O
ATOM     10   C  Z9H D   1      50.574  30.671 135.8480  0.00  0.00     0.000 C
ENDROOT
BRANCH 2 11
ATOM     11   O  Z9H D   1      51.800  27.480 131.3920  0.00  0.00     0.000 O
ATOM     12   O  Z9H D   1      51.825  25.751 130.6390  0.00  0.00     0.000 OA
ATOM     13   S  Z9H D   1      52.440  26.108 131.8730  0.00  0.00     0.000 S
ATOM     14   O  Z9H D   1      51.722  25.657 133.0310  0.00  0.00     0.000 OA
ATOM     15   O  Z9H D   1      53.878  26.113 131.7370  0.00  0.00     0.000 O
ENDBRANCH 2 11
BRANCH 5 16
ATOM     16   C  Z9H D   1      54.380  31.285 135.2280  0.00  0.00     0.000 C
ATOM     17   S  Z9H D   1      55.476  32.846 135.8630  0.00  0.00     0.000 S
ATOM     18   O  Z9H D   1      54.164  32.647 134.9440  0.00  0.00     0.000 O
ATOM     19   O  Z9H D   1      56.694  32.346 135.2910  0.00  0.00     0.000 O
ATOM     20   O  Z9H D   1      55.141  32.697 137.2360  0.00  0.00     0.000 OA
ATOM     21   O  Z9H D   1      55.235  34.212 135.4990  0.00  0.00     0.000 OA
ENDBRANCH 5 16
BRANCH 1 22
ATOM     22  O4  GU1 D   2      53.094  29.758 131.0530  0.00  0.00     0.000 O
BRANCH 22 26
ATOM     23  C1  GU1 D   2      54.187  31.790 127.6400  0.00  0.00     0.000 C
ATOM     24  C2  GU1 D   2      54.783  30.396 127.7730  0.00  0.00     0.000 C
ATOM     25  C3  GU1 D   2      54.029  29.632 128.8230  0.00  0.00     0.000 C
ATOM     26  C4  GU1 D   2      53.970  30.412 130.1280  0.00  0.00     0.000 C
ATOM     27  C5  GU1 D   2      53.456  31.832 129.8670  0.00  0.00     0.000 C
ATOM     28  O5  GU1 D   2      54.258  32.479 128.8830  0.00  0.00     0.000 O
ATOM     29   O  GU1 D   2      54.710  29.668 126.5540  0.00  0.00     0.000 O
ATOM     30   C  GU1 D   2      55.904  29.714 125.7850  0.00  0.00     0.000 C
ATOM     31   C  GU1 D   2      54.113  27.256 128.4460  0.00  0.00     0.000 C
ATOM     32   O  GU1 D   2      54.711  28.396 129.0590  0.00  0.00     0.000 O
BRANCH 27 33
ATOM     33   C  GU1 D   2      53.501  32.668 131.1240  0.00  0.00     0.000 C
ATOM     34   O  GU1 D   2      54.585  32.990 131.5650  0.00  0.00     0.000 OA
ATOM     35   O  GU1 D   2      52.468  33.013 131.6770  0.00  0.00     0.000 O
ENDBRANCH 27 33
BRANCH 23 36
ATOM     36  O4  GU6 D   3      54.880  32.800 126.8800  0.00  0.00     0.000 O
BRANCH 36 40
ATOM     37  C1  GU6 D   3      57.206  35.963 125.7470  0.00  0.00     0.000 C
ATOM     38  C2  GU6 D   3      56.068  35.655 124.7820  0.00  0.00     0.000 C
ATOM     39  C3  GU6 D   3      55.122  34.668 125.4160  0.00  0.00     0.000 C
ATOM     40  C4  GU6 D   3      55.540  34.032 126.6700  0.00  0.00     0.000 C
ATOM     41  C5  GU6 D   3      57.074  33.731 126.6170  0.00  0.00     0.000 C
ATOM     42  O5  GU6 D   3      57.892  34.755 126.0380  0.00  0.00     0.000 O
BRANCH 38 43
ATOM     43   O  GU6 D   3      55.373  36.838 124.4390  0.00  0.00     0.000 O
ATOM     44   S  GU6 D   3      55.282  37.102 122.9410  0.00  0.00     0.000 S
ATOM     45   O  GU6 D   3      56.542  37.721 122.4970  0.00  0.00     0.000 OA
ATOM     46   O  GU6 D   3      55.097  35.814 122.2470  0.00  0.00     0.000 O
ATOM     47   O  GU6 D   3      54.140  37.975 122.6860  0.00  0.00     0.000 OA
ENDBRANCH 38 43
BRANCH 39 48
ATOM     48   O  GU6 D   3      53.792  34.535 124.9500  0.00  0.00     0.000 O
ATOM     49   S  GU6 D   3      52.499  35.143 125.4910  0.00  0.00     0.000 S
ATOM     50   O  GU6 D   3      52.620  36.603 125.5700  0.00  0.00     0.000 OA
ATOM     51   O  GU6 D   3      51.500  34.747 124.4890  0.00  0.00     0.000 OA
ATOM     52   O  GU6 D   3      52.231  34.583 126.8350  0.00  0.00     0.000 O
ENDBRANCH 39 48
BRANCH 41 53
ATOM     53   C  GU6 D   3      57.819  32.518 127.1060  0.00  0.00     0.000 C
ATOM     54   O  GU6 D   3      57.564  32.678 128.4770  0.00  0.00     0.000 O
ATOM     55   S  GU6 D   3      58.210  31.736 129.5030  0.00  0.00     0.000 S
ATOM     56   O  GU6 D   3      59.668  31.990 129.4580  0.00  0.00     0.000 O
ATOM     57   O  GU6 D   3      57.668  32.051 130.8330  0.00  0.00     0.000 OA
ATOM     58   O  GU6 D   3      57.897  30.351 129.0850  0.00  0.00     0.000 OA
ENDBRANCH 41 53
BRANCH 37 59
ATOM     59  O4  Z9K D   4      57.067  36.687 126.9880  0.00  0.00     0.000 O
BRANCH 59 63
ATOM     60  C1  Z9K D   4      56.737  39.821 129.3370  0.00  0.00     0.000 C
ATOM     61  C2  Z9K D   4      57.162  40.490 128.0000  0.00  0.00     0.000 C
ATOM     62  C3  Z9K D   4      57.115  39.245 127.0120  0.00  0.00     0.000 C
ATOM     63  C4  Z9K D   4      57.756  37.879 127.4660  0.00  0.00     0.000 C
ATOM     64  C5  Z9K D   4      57.821  37.635 128.9810  0.00  0.00     0.000 C
ATOM     65  O5  Z9K D   4      56.641  38.326 129.4700  0.00  0.00     0.000 O
ATOM     66   O  Z9K D   4      57.699  39.518 125.7250  0.00  0.00     0.000 O
ATOM     67   C  Z9K D   4      56.812  40.116 124.7940  0.00  0.00     0.000 C
BRANCH 61 68
ATOM     68   O  Z9K D   4      56.116  41.339 127.6140  0.00  0.00     0.000 O
ATOM     69   O  Z9K D   4      58.386  42.285 126.9060  0.00  0.00     0.000 OA
ATOM     70   S  Z9K D   4      57.325  42.388 127.8620  0.00  0.00     0.000 S
ATOM     71   O  Z9K D   4      57.485  42.591 129.2690  0.00  0.00     0.000 OA
ATOM     72   O  Z9K D   4      56.281  43.231 127.3760  0.00  0.00     0.000 OA
ENDBRANCH 61 68
BRANCH 64 73
ATOM     73   C  Z9K D   4      57.982  36.131 129.2890  0.00  0.00     0.000 C
ATOM     74   O  Z9K D   4      59.070  35.528 129.0610  0.00  0.00     0.000 O
ATOM     75   O  Z9K D   4      57.047  35.454 129.7810  0.00  0.00     0.000 OA
ENDBRANCH 64 73
BRANCH 60 76
ATOM     76  O4  Z9L D   5      57.288  40.017 130.6500  0.00  0.00     0.000 O
BRANCH 76 80
ATOM     77  C1  Z9L D   5      56.385  40.432 134.5210  0.00  0.00     0.000 C
ATOM     78  C2  Z9L D   5      57.219  39.070 134.3770  0.00  0.00     0.000 C
ATOM     79  C3  Z9L D   5      57.982  39.125 132.8680  0.00  0.00     0.000 C
ATOM     80  C4  Z9L D   5      56.774  39.730 131.9250  0.00  0.00     0.000 C
ATOM     81  C5  Z9L D   5      55.768  40.967 132.1640  0.00  0.00     0.000 C
ATOM     82  O5  Z9L D   5      55.372  40.904 133.5430  0.00  0.00     0.000 O
ATOM     83   C  Z9L D   5      56.704  42.799 134.9560  0.00  0.00     0.000 C
ATOM     84   C  Z9L D   5      56.704  42.799 134.9560  0.00  0.00     0.000 C
BRANCH 78 85
ATOM     85   O  Z9L D   5      58.186  39.048 135.3770  0.00  0.00     0.000 O
ATOM     86   O  Z9L D   5      58.194  37.847 136.8820  0.00  0.00     0.000 OA
ATOM     87   S  Z9L D   5      57.274  37.791 135.7880  0.00  0.00     0.000 S
ATOM     88   O  Z9L D   5      57.604  36.577 135.0830  0.00  0.00     0.000 OA
ATOM     89   O  Z9L D   5      56.002  38.089 136.3520  0.00  0.00     0.000 OA
ENDBRANCH 78 85
BRANCH 79 90
ATOM     90   O  Z9L D   5      58.164  37.848 132.3450  0.00  0.00     0.000 O
ATOM     91   S  Z9L D   5      59.677  38.345 132.3710  0.00  0.00     0.000 S
ATOM     92   O  Z9L D   5      60.314  38.813 133.5740  0.00  0.00     0.000 OA
ATOM     93   O  Z9L D   5      60.019  38.901 131.0860  0.00  0.00     0.000 O
ATOM     94   O  Z9L D   5      59.903  36.937 132.2940  0.00  0.00     0.000 OA
ENDBRANCH 79 90
BRANCH 81 95
ATOM     95   C  Z9L D   5      54.586  41.233 131.0040  0.00  0.00     0.000 C
ATOM     96   S  Z9L D   5      52.688  40.889 130.5080  0.00  0.00     0.000 S
ATOM     97   O  Z9L D   5      53.827  40.076 131.2310  0.00  0.00     0.000 O
ATOM     98   O  Z9L D   5      53.037  40.938 129.1110  0.00  0.00     0.000 OA
ATOM     99   O  Z9L D   5      52.219  42.044 131.1970  0.00  0.00     0.000 OA
ATOM    100   O  Z9L D   5      51.962  39.667 130.7530  0.00  0.00     0.000 O
ENDBRANCH 81 95
ENDBRANCH 76 80
ENDBRANCH 60 76
ENDBRANCH 59 63
ENDBRANCH 37 59
ENDBRANCH 36 40
ENDBRANCH 23 36
ENDBRANCH 22 26
ENDBRANCH 1 22
TORSDOF 19
ENDMDL
MODEL 52
REMARK VINA RESULT:       0.0     69.257     75.637
ROOT
ATOM      1  C1  Z9H D   1      91.528  28.314  89.8700  0.00  0.00     0.000 C
ATOM      2  C2  Z9H D   1      91.034  29.354  90.9030  0.00  0.00     0.000 C
ATOM      3  C3  Z9H D   1      92.406  30.025  91.2160  0.00  0.00     0.000 C
ATOM      4  C4  Z9H D   1      93.584  29.027  91.5720  0.00  0.00     0.000 C
ATOM      5  C5  Z9H D   1      93.911  27.737  90.7210  0.00  0.00     0.000 C
ATOM      6  O5  Z9H D   1      92.600  27.391  90.2080  0.00  0.00     0.000 O
ATOM      7   O  Z9H D   1      92.283  31.029  92.2250  0.00  0.00     0.000 O
ATOM      8   C  Z9H D   1      92.192  32.380  91.7410  0.00  0.00     0.000 C
ATOM      9   O  Z9H D   1      94.773  29.825  91.6050  0.00  0.00     0.000 O
ATOM     10   C  Z9H D   1      95.211  30.227  92.9060  0.00  0.00     0.000 C
ENDROOT
BRANCH 2 11
ATOM     11   O  Z9H D   1      90.354  30.274  90.0890  0.00  0.00     0.000 O
ATOM     12   O  Z9H D   1      88.491  30.565  90.1460  0.00  0.00     0.000 OA
ATOM     13   S  Z9H D   1      89.199  29.670  90.9980  0.00  0.00     0.000 S
ATOM     14   O  Z9H D   1      89.376  30.160  92.3350  0.00  0.00     0.000 OA
ATOM     15   O  Z9H D   1      88.905  28.300  90.6470  0.00  0.00     0.000 O
ENDBRANCH 2 11
BRANCH 5 16
ATOM     16   C  Z9H D   1      94.871  26.603  91.4910  0.00  0.00     0.000 C
ATOM     17   S  Z9H D   1      96.345  25.262  91.2230  0.00  0.00     0.000 S
ATOM     18   O  Z9H D   1      96.023  26.754  90.6960  0.00  0.00     0.000 O
ATOM     19   O  Z9H D   1      95.459  24.245  90.7320  0.00  0.00     0.000 O
ATOM     20   O  Z9H D   1      96.813  25.307  92.5640  0.00  0.00     0.000 OA
ATOM     21   O  Z9H D   1      97.472  25.454  90.3590  0.00  0.00     0.000 OA
ENDBRANCH 5 16
BRANCH 1 22
ATOM     22  O4  GU1 D   2      92.052  28.886  88.6170  0.00  0.00     0.000 O
BRANCH 22 26
ATOM     23  C1  GU1 D   2      92.340  28.374  84.5400  0.00  0.00     0.000 C
ATOM     24  C2  GU1 D   2      91.036  27.889  85.1550  0.00  0.00     0.000 C
ATOM     25  C3  GU1 D   2      90.892  28.466  86.5330  0.00  0.00     0.000 C
ATOM     26  C4  GU1 D   2      92.125  28.174  87.3760  0.00  0.00     0.000 C
ATOM     27  C5  GU1 D   2      93.388  28.603  86.6240  0.00  0.00     0.000 C
ATOM     28  O5  GU1 D   2      93.444  27.977  85.3450  0.00  0.00     0.000 O
ATOM     29   O  GU1 D   2      89.906  28.287  84.3870  0.00  0.00     0.000 O
ATOM     30   C  GU1 D   2      89.438  27.287  83.4930  0.00  0.00     0.000 C
ATOM     31   C  GU1 D   2      88.586  28.675  87.1910  0.00  0.00     0.000 C
ATOM     32   O  GU1 D   2      89.756  27.861  87.1600  0.00  0.00     0.000 O
BRANCH 27 33
ATOM     33   C  GU1 D   2      94.634  28.216  87.3840  0.00  0.00     0.000 C
ATOM     34   O  GU1 D   2      94.916  27.038  87.4690  0.00  0.00     0.000 OA
ATOM     35   O  GU1 D   2      95.341  29.071  87.8940  0.00  0.00     0.000 O
ENDBRANCH 27 33
BRANCH 23 36
ATOM     36  O4  GU6 D   3      92.831  27.773  83.3250  0.00  0.00     0.000 O
BRANCH 36 40
ATOM     37  C1  GU6 D   3      94.836  25.474  80.6070  0.00  0.00     0.000 C
ATOM     38  C2  GU6 D   3      94.367  26.815  80.0560  0.00  0.00     0.000 C
ATOM     39  C3  GU6 D   3      93.891  27.687  81.1890  0.00  0.00     0.000 C
ATOM     40  C4  GU6 D   3      93.746  27.068  82.5110  0.00  0.00     0.000 C
ATOM     41  C5  GU6 D   3      93.193  25.613  82.3490  0.00  0.00     0.000 C
ATOM     42  O5  GU6 D   3      93.746  24.851  81.2700  0.00  0.00     0.000 O
BRANCH 38 43
ATOM     43   O  GU6 D   3      95.416  27.460  79.3590  0.00  0.00     0.000 O
ATOM     44   S  GU6 D   3      95.073  27.847  77.9260  0.00  0.00     0.000 S
ATOM     45   O  GU6 D   3      95.241  26.661  77.0680  0.00  0.00     0.000 OA
ATOM     46   O  GU6 D   3      93.668  28.289  77.8810  0.00  0.00     0.000 O
ATOM     47   O  GU6 D   3      95.953  28.934  77.5090  0.00  0.00     0.000 OA
ENDBRANCH 38 43
BRANCH 39 48
ATOM     48   O  GU6 D   3      93.812  29.092  81.0400  0.00  0.00     0.000 O
ATOM     49   S  GU6 D   3      94.795  30.180  81.4700  0.00  0.00     0.000 S
ATOM     50   O  GU6 D   3      96.122  29.915  80.9030  0.00  0.00     0.000 OA
ATOM     51   O  GU6 D   3      94.208  31.401  80.9010  0.00  0.00     0.000 OA
ATOM     52   O  GU6 D   3      94.870  30.202  82.9480  0.00  0.00     0.000 O
ENDBRANCH 39 48
BRANCH 41 53
ATOM     53   C  GU6 D   3      92.167  24.891  83.1800  0.00  0.00     0.000 C
ATOM     54   O  GU6 D   3      92.899  24.830  84.3770  0.00  0.00     0.000 O
ATOM     55   S  GU6 D   3      92.349  24.066  85.5880  0.00  0.00     0.000 S
ATOM     56   O  GU6 D   3      92.312  22.635  85.2100  0.00  0.00     0.000 O
ATOM     57   O  GU6 D   3      93.254  24.280  86.7270  0.00  0.00     0.000 OA
ATOM     58   O  GU6 D   3      90.987  24.582  85.8510  0.00  0.00     0.000 OA
ENDBRANCH 41 53
BRANCH 37 59
ATOM     59  O4  Z9K D   4      96.006  25.278  81.4280  0.00  0.00     0.000 O
BRANCH 59 63
ATOM     60  C1  Z9K D   4      99.822  24.818  82.2490  0.00  0.00     0.000 C
ATOM     61  C2  Z9K D   4      99.821  24.632  80.7060  0.00  0.00     0.000 C
ATOM     62  C3  Z9K D   4      98.314  25.000  80.3590  0.00  0.00     0.000 C
ATOM     63  C4  Z9K D   4      97.154  24.400  81.2410  0.00  0.00     0.000 C
ATOM     64  C5  Z9K D   4      97.526  24.033  82.6860  0.00  0.00     0.000 C
ATOM     65  O5  Z9K D   4      98.543  25.014  83.0160  0.00  0.00     0.000 O
ATOM     66   O  Z9K D   4      97.948  24.684  79.0030  0.00  0.00     0.000 O
ATOM     67   C  Z9K D   4      98.268  25.693  78.0600  0.00  0.00     0.000 C
BRANCH 61 68
ATOM     68   O  Z9K D   4     100.611  25.657  80.1680  0.00  0.00     0.000 O
ATOM     69   O  Z9K D   4     100.796  23.517  78.7760  0.00  0.00     0.000 OA
ATOM     70   S  Z9K D   4     101.450  24.334  79.7530  0.00  0.00     0.000 S
ATOM     71   O  Z9K D   4     102.166  23.859  80.8970  0.00  0.00     0.000 OA
ATOM     72   O  Z9K D   4     102.194  25.379  79.1270  0.00  0.00     0.000 OA
ENDBRANCH 61 68
BRANCH 64 73
ATOM     73   C  Z9K D   4      96.265  23.944  83.5720  0.00  0.00     0.000 C
ATOM     74   O  Z9K D   4      95.445  22.988  83.4510  0.00  0.00     0.000 O
ATOM     75   O  Z9K D   4      96.009  24.808  84.4460  0.00  0.00     0.000 OA
ENDBRANCH 64 73
BRANCH 60 76
ATOM     76  O4  Z9L D   5     100.428  23.982  83.2500  0.00  0.00     0.000 O
BRANCH 76 80
ATOM     77  C1  Z9L D   5     102.496  23.993  86.6690  0.00  0.00     0.000 C
ATOM     78  C2  Z9L D   5     101.069  23.334  86.9860  0.00  0.00     0.000 C
ATOM     79  C3  Z9L D   5     100.389  22.910  85.4960  0.00  0.00     0.000 C
ATOM     80  C4  Z9L D   5     100.763  24.234  84.5900  0.00  0.00     0.000 C
ATOM     81  C5  Z9L D   5     102.145  25.052  84.4390  0.00  0.00     0.000 C
ATOM     82  O5  Z9L D   5     102.704  25.147  85.7570  0.00  0.00     0.000 O
ATOM     83   C  Z9L D   5     104.749  23.380  86.0050  0.00  0.00     0.000 C
ATOM     84   C  Z9L D   5     104.749  23.380  86.0050  0.00  0.00     0.000 C
BRANCH 78 85
ATOM     85   O  Z9L D   5     101.282  22.180  87.7340  0.00  0.00     0.000 O
ATOM     86   O  Z9L D   5     100.797  21.956  89.5850  0.00  0.00     0.000 OA
ATOM     87   S  Z9L D   5     100.468  23.091  88.7780  0.00  0.00     0.000 S
ATOM     88   O  Z9L D   5      99.037  23.029  88.6110  0.00  0.00     0.000 OA
ATOM     89   O  Z9L D   5     101.177  24.180  89.3560  0.00  0.00     0.000 OA
ENDBRANCH 78 85
BRANCH 79 90
ATOM     90   O  Z9L D   5      98.998  22.959  85.5420  0.00  0.00     0.000 O
ATOM     91   S  Z9L D   5      99.199  21.437  85.1150  0.00  0.00     0.000 S
ATOM     92   O  Z9L D   5      99.992  20.518  85.8890  0.00  0.00     0.000 OA
ATOM     93   O  Z9L D   5      99.131  21.331  83.6790  0.00  0.00     0.000 O
ATOM     94   O  Z9L D   5      97.861  21.359  85.6070  0.00  0.00     0.000 OA
ENDBRANCH 79 90
BRANCH 81 95
ATOM     95   C  Z9L D   5     102.124  26.427  83.4790  0.00  0.00     0.000 C
ATOM     96   S  Z9L D   5     101.939  28.410  83.4820  0.00  0.00     0.000 S
ATOM     97   O  Z9L D   5     101.300  27.219  84.2910  0.00  0.00     0.000 O
ATOM     98   O  Z9L D   5     101.369  28.366  82.1600  0.00  0.00     0.000 OA
ATOM     99   O  Z9L D   5     103.334  28.615  83.6810  0.00  0.00     0.000 OA
ATOM    100   O  Z9L D   5     101.058  29.172  84.3330  0.00  0.00     0.000 O
ENDBRANCH 81 95
ENDBRANCH 76 80
ENDBRANCH 60 76
ENDBRANCH 59 63
ENDBRANCH 37 59
ENDBRANCH 36 40
ENDBRANCH 23 36
ENDBRANCH 22 26
ENDBRANCH 1 22
TORSDOF 19
ENDMDL
MODEL 53
REMARK VINA RESULT:       0.0     59.451     66.606
ROOT
ATOM      1  C1  Z9H D   1      54.928  97.306 101.0590  0.00  0.00     0.000 C
ATOM      2  C2  Z9H D   1      54.140  96.012 100.7410  0.00  0.00     0.000 C
ATOM      3  C3  Z9H D   1      53.646  95.692 102.1850  0.00  0.00     0.000 C
ATOM      4  C4  Z9H D   1      54.767  95.702 103.3050  0.00  0.00     0.000 C
ATOM      5  C5  Z9H D   1      55.831  96.862 103.4520  0.00  0.00     0.000 C
ATOM      6  O5  Z9H D   1      55.965  97.305 102.0780  0.00  0.00     0.000 O
ATOM      7   O  Z9H D   1      52.910  94.468 102.2300  0.00  0.00     0.000 O
ATOM      8   C  Z9H D   1      51.479  94.609 102.2070  0.00  0.00     0.000 C
ATOM      9   O  Z9H D   1      54.072  95.604 104.5520  0.00  0.00     0.000 O
ATOM     10   C  Z9H D   1      54.023  94.297 105.1310  0.00  0.00     0.000 C
ENDROOT
BRANCH 2 11
ATOM     11   O  Z9H D   1      53.013  96.514 100.0710  0.00  0.00     0.000 O
ATOM     12   O  Z9H D   1      52.648  96.219  98.2440  0.00  0.00     0.000 OA
ATOM     13   S  Z9H D   1      53.762  95.677  98.9470  0.00  0.00     0.000 S
ATOM     14   O  Z9H D   1      53.629  94.282  99.2590  0.00  0.00     0.000 OA
ATOM     15   O  Z9H D   1      54.985  96.322  98.5270  0.00  0.00     0.000 O
ENDBRANCH 2 11
BRANCH 5 16
ATOM     16   C  Z9H D   1      57.171  96.481 104.3800  0.00  0.00     0.000 C
ATOM     17   S  Z9H D   1      58.459  97.189 105.7500  0.00  0.00     0.000 S
ATOM     18   O  Z9H D   1      56.868  97.285 105.4940  0.00  0.00     0.000 O
ATOM     19   O  Z9H D   1      59.268  97.868 104.7790  0.00  0.00     0.000 O
ATOM     20   O  Z9H D   1      58.793  95.918 106.2910  0.00  0.00     0.000 OA
ATOM     21   O  Z9H D   1      58.098  98.047 106.8410  0.00  0.00     0.000 OA
ENDBRANCH 5 16
BRANCH 1 22
ATOM     22  O4  GU1 D   2      54.101  98.436 101.5200  0.00  0.00     0.000 O
BRANCH 22 26
ATOM     23  C1  GU1 D   2      53.646 102.529 101.4420  0.00  0.00     0.000 C
ATOM     24  C2  GU1 D   2      54.195 101.922 100.1600  0.00  0.00     0.000 C
ATOM     25  C3  GU1 D   2      53.955 100.440 100.1690  0.00  0.00     0.000 C
ATOM     26  C4  GU1 D   2      54.502  99.809 101.4410  0.00  0.00     0.000 C
ATOM     27  C5  GU1 D   2      53.971 100.557 102.6680  0.00  0.00     0.000 C
ATOM     28  O5  GU1 D   2      54.277 101.946 102.5760  0.00  0.00     0.000 O
ATOM     29   O  GU1 D   2      53.570 102.466  99.0040  0.00  0.00     0.000 O
ATOM     30   C  GU1 D   2      54.304 103.519  98.3950  0.00  0.00     0.000 C
ATOM     31   C  GU1 D   2      53.791  99.536  97.9440  0.00  0.00     0.000 C
ATOM     32   O  GU1 D   2      54.633  99.866  99.0470  0.00  0.00     0.000 O
BRANCH 27 33
ATOM     33   C  GU1 D   2      54.590 100.030 103.9400  0.00  0.00     0.000 C
ATOM     34   O  GU1 D   2      55.764 100.257 104.1490  0.00  0.00     0.000 OA
ATOM     35   O  GU1 D   2      53.921  99.394 104.7390  0.00  0.00     0.000 O
ENDBRANCH 27 33
BRANCH 23 36
ATOM     36  O4  GU6 D   3      53.965 103.891 101.7890  0.00  0.00     0.000 O
BRANCH 36 40
ATOM     37  C1  GU6 D   3      55.668 107.242 103.3900  0.00  0.00     0.000 C
ATOM     38  C2  GU6 D   3      54.213 107.425 102.9780  0.00  0.00     0.000 C
ATOM     39  C3  GU6 D   3      53.606 106.083 102.6620  0.00  0.00     0.000 C
ATOM     40  C4  GU6 D   3      54.508 104.929 102.5800  0.00  0.00     0.000 C
ATOM     41  C5  GU6 D   3      55.853 105.364 101.9100  0.00  0.00     0.000 C
ATOM     42  O5  GU6 D   3      56.370 106.636 102.3160  0.00  0.00     0.000 O
BRANCH 38 43
ATOM     43   O  GU6 D   3      53.479 108.055 104.0100  0.00  0.00     0.000 O
ATOM     44   S  GU6 D   3      52.750 109.322 103.5800  0.00  0.00     0.000 S
ATOM     45   O  GU6 D   3      53.709 110.440 103.5890  0.00  0.00     0.000 OA
ATOM     46   O  GU6 D   3      52.236 109.127 102.2130  0.00  0.00     0.000 O
ATOM     47   O  GU6 D   3      51.644 109.563 104.5010  0.00  0.00     0.000 OA
ENDBRANCH 38 43
BRANCH 39 48
ATOM     48   O  GU6 D   3      52.203 105.899 102.6740  0.00  0.00     0.000 O
ATOM     49   S  GU6 D   3      51.298 105.329 103.7660  0.00  0.00     0.000 S
ATOM     50   O  GU6 D   3      51.493 106.067 105.0200  0.00  0.00     0.000 OA
ATOM     51   O  GU6 D   3      49.949 105.546 103.2270  0.00  0.00     0.000 OA
ATOM     52   O  GU6 D   3      51.626 103.900 103.9630  0.00  0.00     0.000 O
ENDBRANCH 39 48
BRANCH 41 53
ATOM     53   C  GU6 D   3      56.694 104.623 100.9060  0.00  0.00     0.000 C
ATOM     54   O  GU6 D   3      57.077 103.552 101.7300  0.00  0.00     0.000 O
ATOM     55   S  GU6 D   3      58.075 102.501 101.2270  0.00  0.00     0.000 S
ATOM     56   O  GU6 D   3      59.372 103.194 101.0490  0.00  0.00     0.000 O
ATOM     57   O  GU6 D   3      58.187 101.440 102.2380  0.00  0.00     0.000 OA
ATOM     58   O  GU6 D   3      57.562 101.991  99.9350  0.00  0.00     0.000 OA
ENDBRANCH 41 53
BRANCH 37 59
ATOM     59  O4  Z9K D   4      56.112 106.604 104.6070  0.00  0.00     0.000 O
BRANCH 59 63
ATOM     60  C1  Z9K D   4      56.948 106.283 108.4340  0.00  0.00     0.000 C
ATOM     61  C2  Z9K D   4      56.766 107.820 108.2930  0.00  0.00     0.000 C
ATOM     62  C3  Z9K D   4      56.249 107.926 106.7930  0.00  0.00     0.000 C
ATOM     63  C4  Z9K D   4      56.980 107.097 105.6680  0.00  0.00     0.000 C
ATOM     64  C5  Z9K D   4      57.694 105.818 106.1300  0.00  0.00     0.000 C
ATOM     65  O5  Z9K D   4      56.871 105.372 107.2400  0.00  0.00     0.000 O
ATOM     66   O  Z9K D   4      56.220 109.276 106.2960  0.00  0.00     0.000 O
ATOM     67   C  Z9K D   4      55.035 109.990 106.6090  0.00  0.00     0.000 C
BRANCH 61 68
ATOM     68   O  Z9K D   4      55.686 108.183 109.1080  0.00  0.00     0.000 O
ATOM     69   O  Z9K D   4      57.451 110.034 109.0320  0.00  0.00     0.000 OA
ATOM     70   S  Z9K D   4      56.916 108.962 109.8160  0.00  0.00     0.000 S
ATOM     71   O  Z9K D   4      57.680 108.027 110.5850  0.00  0.00     0.000 OA
ATOM     72   O  Z9K D   4      55.794 109.401 110.5810  0.00  0.00     0.000 OA
ENDBRANCH 61 68
BRANCH 64 73
ATOM     73   C  Z9K D   4      57.923 104.858 104.9430  0.00  0.00     0.000 C
ATOM     74   O  Z9K D   4      58.780 105.115 104.0480  0.00  0.00     0.000 O
ATOM     75   O  Z9K D   4      57.276 103.789 104.8230  0.00  0.00     0.000 OA
ENDBRANCH 64 73
BRANCH 60 76
ATOM     76  O4  Z9L D   5      58.025 105.563 109.0570  0.00  0.00     0.000 O
BRANCH 76 80
ATOM     77  C1  Z9L D   5      58.922 102.447 111.3920  0.00  0.00     0.000 C
ATOM     78  C2  Z9L D   5      59.565 102.155 109.9530  0.00  0.00     0.000 C
ATOM     79  C3  Z9L D   5      59.592 103.630 109.1250  0.00  0.00     0.000 C
ATOM     80  C4  Z9L D   5      58.112 104.239 109.5170  0.00  0.00     0.000 C
ATOM     81  C5  Z9L D   5      57.352 104.330 110.9370  0.00  0.00     0.000 C
ATOM     82  O5  Z9L D   5      57.598 103.085 111.6070  0.00  0.00     0.000 O
ATOM     83   C  Z9L D   5      59.474 103.447 113.5340  0.00  0.00     0.000 C
ATOM     84   C  Z9L D   5      59.474 103.447 113.5340  0.00  0.00     0.000 C
BRANCH 78 85
ATOM     85   O  Z9L D   5      60.871 101.716 110.1440  0.00  0.00     0.000 O
ATOM     86   O  Z9L D   5      61.498  99.926 109.8060  0.00  0.00     0.000 OA
ATOM     87   S  Z9L D   5      60.190 100.414 109.4930  0.00  0.00     0.000 S
ATOM     88   O  Z9L D   5      60.137 100.445 108.0520  0.00  0.00     0.000 OA
ATOM     89   O  Z9L D   5      59.305  99.677 110.3280  0.00  0.00     0.000 OA
ENDBRANCH 78 85
BRANCH 79 90
ATOM     90   O  Z9L D   5      59.486 103.442 107.7500  0.00  0.00     0.000 O
ATOM     91   S  Z9L D   5      60.875 104.220 107.8070  0.00  0.00     0.000 S
ATOM     92   O  Z9L D   5      61.986 103.754 108.5940  0.00  0.00     0.000 OA
ATOM     93   O  Z9L D   5      60.641 105.629 107.6150  0.00  0.00     0.000 O
ATOM     94   O  Z9L D   5      60.998 103.632 106.5120  0.00  0.00     0.000 OA
ENDBRANCH 79 90
BRANCH 81 95
ATOM     95   C  Z9L D   5      55.790 104.942 110.9350  0.00  0.00     0.000 C
ATOM     96   S  Z9L D   5      53.857 104.466 110.8810  0.00  0.00     0.000 S
ATOM     97   O  Z9L D   5      55.173 103.901 110.2270  0.00  0.00     0.000 O
ATOM     98   O  Z9L D   5      53.563 105.708 110.2130  0.00  0.00     0.000 OA
ATOM     99   O  Z9L D   5      53.769 104.347 112.2970  0.00  0.00     0.000 OA
ATOM    100   O  Z9L D   5      53.277 103.389 110.1180  0.00  0.00     0.000 O
ENDBRANCH 81 95
ENDBRANCH 76 80
ENDBRANCH 60 76
ENDBRANCH 59 63
ENDBRANCH 37 59
ENDBRANCH 36 40
ENDBRANCH 23 36
ENDBRANCH 22 26
ENDBRANCH 1 22
TORSDOF 19
ENDMDL
MODEL 54
REMARK VINA RESULT:       0.0     82.760     89.709
ROOT
ATOM      1  C1  Z9H D   1      80.749 137.243  40.7900  0.00  0.00     0.000 C
ATOM      2  C2  Z9H D   1      82.094 136.834  40.1430  0.00  0.00     0.000 C
ATOM      3  C3  Z9H D   1      82.681 136.027  41.3410  0.00  0.00     0.000 C
ATOM      4  C4  Z9H D   1      82.649 136.770  42.7410  0.00  0.00     0.000 C
ATOM      5  C5  Z9H D   1      81.368 137.511  43.2970  0.00  0.00     0.000 C
ATOM      6  O5  Z9H D   1      80.727 137.936  42.0680  0.00  0.00     0.000 O
ATOM      7   O  Z9H D   1      83.999 135.552  41.0610  0.00  0.00     0.000 O
ATOM      8   C  Z9H D   1      84.081 134.185  40.6250  0.00  0.00     0.000 C
ATOM      9   O  Z9H D   1      83.022 135.786  43.7120  0.00  0.00     0.000 O
ATOM     10   C  Z9H D   1      84.388 135.825  44.1370  0.00  0.00     0.000 C
ENDROOT
BRANCH 2 11
ATOM     11   O  Z9H D   1      81.688 135.865  39.2130  0.00  0.00     0.000 O
ATOM     12   O  Z9H D   1      81.806 136.077  37.3420  0.00  0.00     0.000 OA
ATOM     13   S  Z9H D   1      82.257 137.032  38.2970  0.00  0.00     0.000 S
ATOM     14   O  Z9H D   1      83.684 137.070  38.4500  0.00  0.00     0.000 OA
ATOM     15   O  Z9H D   1      81.389 138.187  38.3040  0.00  0.00     0.000 O
ENDBRANCH 2 11
BRANCH 5 16
ATOM     16   C  Z9H D   1      81.658 138.586  44.5460  0.00  0.00     0.000 C
ATOM     17   S  Z9H D   1      80.924 139.322  46.2670  0.00  0.00     0.000 S
ATOM     18   O  Z9H D   1      81.015 137.868  45.5710  0.00  0.00     0.000 O
ATOM     19   O  Z9H D   1      80.051 140.251  45.6080  0.00  0.00     0.000 O
ATOM     20   O  Z9H D   1      82.187 139.688  46.8060  0.00  0.00     0.000 OA
ATOM     21   O  Z9H D   1      80.234 138.546  47.2550  0.00  0.00     0.000 OA
ENDBRANCH 5 16
BRANCH 1 22
ATOM     22  O4  GU1 D   2      79.835 136.123  41.0770  0.00  0.00     0.000 O
BRANCH 22 26
ATOM     23  C1  GU1 D   2      75.892 134.935  41.1850  0.00  0.00     0.000 C
ATOM     24  C2  GU1 D   2      76.234 135.917  40.0760  0.00  0.00     0.000 C
ATOM     25  C3  GU1 D   2      77.724 135.972  39.9010  0.00  0.00     0.000 C
ATOM     26  C4  GU1 D   2      78.417 136.260  41.2240  0.00  0.00     0.000 C
ATOM     27  C5  GU1 D   2      77.927 135.283  42.2970  0.00  0.00     0.000 C
ATOM     28  O5  GU1 D   2      76.507 135.333  42.4050  0.00  0.00     0.000 O
ATOM     29   O  GU1 D   2      75.654 135.540  38.8330  0.00  0.00     0.000 O
ATOM     30   C  GU1 D   2      74.427 136.197  38.5470  0.00  0.00     0.000 C
ATOM     31   C  GU1 D   2      78.350 136.595  37.6620  0.00  0.00     0.000 C
ATOM     32   O  GU1 D   2      78.033 137.025  38.9830  0.00  0.00     0.000 O
BRANCH 27 33
ATOM     33   C  GU1 D   2      78.506 135.621  43.6500  0.00  0.00     0.000 C
ATOM     34   O  GU1 D   2      78.131 136.635  44.2020  0.00  0.00     0.000 OA
ATOM     35   O  GU1 D   2      79.329 134.886  44.1740  0.00  0.00     0.000 O
ENDBRANCH 27 33
BRANCH 23 36
ATOM     36  O4  GU6 D   3      74.552 134.882  41.7140  0.00  0.00     0.000 O
BRANCH 36 40
ATOM     37  C1  GU6 D   3      71.204 135.397  43.9990  0.00  0.00     0.000 C
ATOM     38  C2  GU6 D   3      71.212 134.102  43.1950  0.00  0.00     0.000 C
ATOM     39  C3  GU6 D   3      72.582 133.878  42.6110  0.00  0.00     0.000 C
ATOM     40  C4  GU6 D   3      73.551 134.975  42.7070  0.00  0.00     0.000 C
ATOM     41  C5  GU6 D   3      72.818 136.341  42.4960  0.00  0.00     0.000 C
ATOM     42  O5  GU6 D   3      71.542 136.469  43.1330  0.00  0.00     0.000 O
BRANCH 38 43
ATOM     43   O  GU6 D   3      70.850 133.007  44.0130  0.00  0.00     0.000 O
ATOM     44   S  GU6 D   3      69.675 132.191  43.4890  0.00  0.00     0.000 S
ATOM     45   O  GU6 D   3      68.426 132.875  43.8660  0.00  0.00     0.000 OA
ATOM     46   O  GU6 D   3      69.770 132.119  42.0200  0.00  0.00     0.000 O
ATOM     47   O  GU6 D   3      69.740 130.850  44.0620  0.00  0.00     0.000 OA
ENDBRANCH 38 43
BRANCH 39 48
ATOM     48   O  GU6 D   3      72.994 132.589  42.1990  0.00  0.00     0.000 O
ATOM     49   S  GU6 D   3      73.841 131.549  42.9310  0.00  0.00     0.000 S
ATOM     50   O  GU6 D   3      73.251 131.247  44.2390  0.00  0.00     0.000 OA
ATOM     51   O  GU6 D   3      73.781 130.384  42.0380  0.00  0.00     0.000 OA
ATOM     52   O  GU6 D   3      75.211 132.082  43.1040  0.00  0.00     0.000 O
ENDBRANCH 39 48
BRANCH 41 53
ATOM     53   C  GU6 D   3      73.273 137.552  41.7270  0.00  0.00     0.000 C
ATOM     54   O  GU6 D   3      74.369 137.892  42.5370  0.00  0.00     0.000 O
ATOM     55   S  GU6 D   3      75.169 139.173  42.2670  0.00  0.00     0.000 S
ATOM     56   O  GU6 D   3      74.259 140.310  42.5350  0.00  0.00     0.000 O
ATOM     57   O  GU6 D   3      76.324 139.204  43.1760  0.00  0.00     0.000 OA
ATOM     58   O  GU6 D   3      75.578 139.143  40.8440  0.00  0.00     0.000 OA
ENDBRANCH 41 53
BRANCH 37 59
ATOM     59  O4  Z9K D   4      71.914 135.606  45.2380  0.00  0.00     0.000 O
BRANCH 59 63
ATOM     60  C1  Z9K D   4      72.588 135.414  49.1060  0.00  0.00     0.000 C
ATOM     61  C2  Z9K D   4      71.096 134.984  49.0380  0.00  0.00     0.000 C
ATOM     62  C3  Z9K D   4      70.882 134.885  47.4660  0.00  0.00     0.000 C
ATOM     63  C4  Z9K D   4      71.428 136.040  46.5420  0.00  0.00     0.000 C
ATOM     64  C5  Z9K D   4      72.622 136.835  47.0910  0.00  0.00     0.000 C
ATOM     65  O5  Z9K D   4      73.337 135.843  47.8740  0.00  0.00     0.000 O
ATOM     66   O  Z9K D   4      69.502 134.731  47.0880  0.00  0.00     0.000 O
ATOM     67   C  Z9K D   4      69.038 133.391  47.0970  0.00  0.00     0.000 C
BRANCH 61 68
ATOM     68   O  Z9K D   4      71.023 133.673  49.5290  0.00  0.00     0.000 O
ATOM     69   O  Z9K D   4      68.910 134.996  50.1050  0.00  0.00     0.000 OA
ATOM     70   S  Z9K D   4      70.146 134.488  50.6190  0.00  0.00     0.000 S
ATOM     71   O  Z9K D   4      71.031 135.181  51.5050  0.00  0.00     0.000 OA
ATOM     72   O  Z9K D   4      69.999 133.137  51.0550  0.00  0.00     0.000 OA
ENDBRANCH 61 68
BRANCH 64 73
ATOM     73   C  Z9K D   4      73.369 137.559  45.9510  0.00  0.00     0.000 C
ATOM     74   O  Z9K D   4      72.863 138.562  45.3680  0.00  0.00     0.000 O
ATOM     75   O  Z9K D   4      74.505 137.189  45.5650  0.00  0.00     0.000 OA
ENDBRANCH 64 73
BRANCH 60 76
ATOM     76  O4  Z9L D   5      73.197 136.399  49.9580  0.00  0.00     0.000 O
BRANCH 76 80
ATOM     77  C1  Z9L D   5      76.400 137.211  52.2050  0.00  0.00     0.000 C
ATOM     78  C2  Z9L D   5      76.396 138.265  50.9950  0.00  0.00     0.000 C
ATOM     79  C3  Z9L D   5      74.842 138.230  50.3280  0.00  0.00     0.000 C
ATOM     80  C4  Z9L D   5      74.537 136.611  50.3200  0.00  0.00     0.000 C
ATOM     81  C5  Z9L D   5      74.755 135.492  51.4610  0.00  0.00     0.000 C
ATOM     82  O5  Z9L D   5      76.019 135.782  52.0750  0.00  0.00     0.000 O
ATOM     83   C  Z9L D   5      75.608 136.959  54.4850  0.00  0.00     0.000 C
ATOM     84   C  Z9L D   5      75.608 136.959  54.4850  0.00  0.00     0.000 C
BRANCH 78 85
ATOM     85   O  Z9L D   5      76.638 139.529  51.5230  0.00  0.00     0.000 O
ATOM     86   O  Z9L D   5      78.239 140.561  51.2350  0.00  0.00     0.000 OA
ATOM     87   S  Z9L D   5      77.933 139.318  50.5950  0.00  0.00     0.000 S
ATOM     88   O  Z9L D   5      77.717 139.654  49.2100  0.00  0.00     0.000 OA
ATOM     89   O  Z9L D   5      78.910 138.401  51.0720  0.00  0.00     0.000 OA
ENDBRANCH 78 85
BRANCH 79 90
ATOM     90   O  Z9L D   5      74.866 138.540  48.9710  0.00  0.00     0.000 O
ATOM     91   S  Z9L D   5      73.883 139.681  49.4870  0.00  0.00     0.000 S
ATOM     92   O  Z9L D   5      74.256 140.607  50.5240  0.00  0.00     0.000 OA
ATOM     93   O  Z9L D   5      72.519 139.237  49.3440  0.00  0.00     0.000 O
ATOM     94   O  Z9L D   5      74.270 140.263  48.2430  0.00  0.00     0.000 OA
ENDBRANCH 79 90
BRANCH 81 95
ATOM     95   C  Z9L D   5      74.410 133.902  51.0540  0.00  0.00     0.000 C
ATOM     96   S  Z9L D   5      75.185 132.182  50.4150  0.00  0.00     0.000 S
ATOM     97   O  Z9L D   5      75.446 133.708  50.1280  0.00  0.00     0.000 O
ATOM     98   O  Z9L D   5      73.937 131.848  49.7780  0.00  0.00     0.000 OA
ATOM     99   O  Z9L D   5      75.485 131.740  51.7350  0.00  0.00     0.000 OA
ATOM    100   O  Z9L D   5      76.243 132.044  49.4450  0.00  0.00     0.000 O
ENDBRANCH 81 95
ENDBRANCH 76 80
ENDBRANCH 60 76
ENDBRANCH 59 63
ENDBRANCH 37 59
ENDBRANCH 36 40
ENDBRANCH 23 36
ENDBRANCH 22 26
ENDBRANCH 1 22
TORSDOF 19
ENDMDL
MODEL 55
REMARK VINA RESULT:       0.0     79.802     86.943
ROOT
ATOM      1  C1  Z9H D   1      60.074   7.685 132.6610  0.00  0.00     0.000 C
ATOM      2  C2  Z9H D   1      60.502   6.714 133.7880  0.00  0.00     0.000 C
ATOM      3  C3  Z9H D   1      59.110   6.067 134.0640  0.00  0.00     0.000 C
ATOM      4  C4  Z9H D   1      57.918   7.088 134.2850  0.00  0.00     0.000 C
ATOM      5  C5  Z9H D   1      57.648   8.320 133.3320  0.00  0.00     0.000 C
ATOM      6  O5  Z9H D   1      58.988   8.629 132.8750  0.00  0.00     0.000 O
ATOM      7   O  Z9H D   1      59.169   5.132 135.1430  0.00  0.00     0.000 O
ATOM      8   C  Z9H D   1      59.281   3.752 134.7560  0.00  0.00     0.000 C
ATOM      9   O  Z9H D   1      56.726   6.296 134.3010  0.00  0.00     0.000 O
ATOM     10   C  Z9H D   1      56.210   5.982 135.5980  0.00  0.00     0.000 C
ENDROOT
BRANCH 2 11
ATOM     11   O  Z9H D   1      61.223   5.742 133.0780  0.00  0.00     0.000 O
ATOM     12   O  Z9H D   1      63.080   5.463 133.2520  0.00  0.00     0.000 OA
ATOM     13   S  Z9H D   1      62.329   6.413 134.0000  0.00  0.00     0.000 S
ATOM     14   O  Z9H D   1      62.084   6.019 135.3580  0.00  0.00     0.000 OA
ATOM     15   O  Z9H D   1      62.641   7.756 133.5680  0.00  0.00     0.000 O
ENDBRANCH 2 11
BRANCH 5 16
ATOM     16   C  Z9H D   1      56.650   9.503 133.9680  0.00  0.00     0.000 C
ATOM     17   S  Z9H D   1      55.187  10.810 133.5310  0.00  0.00     0.000 S
ATOM     18   O  Z9H D   1      55.537   9.284 133.1360  0.00  0.00     0.000 O
ATOM     19   O  Z9H D   1      56.091  11.791 133.0030  0.00  0.00     0.000 O
ATOM     20   O  Z9H D   1      54.658  10.866 134.8490  0.00  0.00     0.000 OA
ATOM     21   O  Z9H D   1      54.100  10.545 132.6350  0.00  0.00     0.000 OA
ENDBRANCH 5 16
BRANCH 1 22
ATOM     22  O4  GU1 D   2      59.620   7.031 131.4210  0.00  0.00     0.000 O
BRANCH 22 26
ATOM     23  C1  GU1 D   2      59.563   7.275 127.3090  0.00  0.00     0.000 C
ATOM     24  C2  GU1 D   2      60.833   7.798 127.9630  0.00  0.00     0.000 C
ATOM     25  C3  GU1 D   2      60.897   7.313 129.3830  0.00  0.00     0.000 C
ATOM     26  C4  GU1 D   2      59.620   7.660 130.1340  0.00  0.00     0.000 C
ATOM     27  C5  GU1 D   2      58.399   7.183 129.3420  0.00  0.00     0.000 C
ATOM     28  O5  GU1 D   2      58.417   7.724 128.0240  0.00  0.00     0.000 O
ATOM     29   O  GU1 D   2      62.002   7.350 127.2870  0.00  0.00     0.000 O
ATOM     30   C  GU1 D   2      62.523   8.289 126.3570  0.00  0.00     0.000 C
ATOM     31   C  GU1 D   2      63.161   7.145 130.1800  0.00  0.00     0.000 C
ATOM     32   O  GU1 D   2      61.999   7.956 130.0310  0.00  0.00     0.000 O
BRANCH 27 33
ATOM     33   C  GU1 D   2      57.114   7.620 130.0040  0.00  0.00     0.000 C
ATOM     34   O  GU1 D   2      56.412   6.774 130.5180  0.00  0.00     0.000 OA
ATOM     35   O  GU1 D   2      56.795   8.799 130.0230  0.00  0.00     0.000 O
ENDBRANCH 27 33
BRANCH 23 36
ATOM     36  O4  GU6 D   3      59.143   7.795 126.0320  0.00  0.00     0.000 O
BRANCH 36 40
ATOM     37  C1  GU6 D   3      57.302   9.915 123.0630  0.00  0.00     0.000 C
ATOM     38  C2  GU6 D   3      57.800   8.542 122.6260  0.00  0.00     0.000 C
ATOM     39  C3  GU6 D   3      58.209   7.745 123.8370  0.00  0.00     0.000 C
ATOM     40  C4  GU6 D   3      58.278   8.446 125.1230  0.00  0.00     0.000 C
ATOM     41  C5  GU6 D   3      58.841   9.889 124.9030  0.00  0.00     0.000 C
ATOM     42  O5  GU6 D   3      58.352  10.580 123.7480  0.00  0.00     0.000 O
BRANCH 38 43
ATOM     43   O  GU6 D   3      56.794   7.853 121.9110  0.00  0.00     0.000 O
ATOM     44   S  GU6 D   3      57.218   7.378 120.5270  0.00  0.00     0.000 S
ATOM     45   O  GU6 D   3      57.102   8.507 119.5880  0.00  0.00     0.000 OA
ATOM     46   O  GU6 D   3      58.624   6.937 120.5920  0.00  0.00     0.000 O
ATOM     47   O  GU6 D   3      56.363   6.264 120.1290  0.00  0.00     0.000 OA
ENDBRANCH 38 43
BRANCH 39 48
ATOM     48   O  GU6 D   3      58.295   6.334 123.7820  0.00  0.00     0.000 O
ATOM     49   S  GU6 D   3      57.287   5.272 124.2200  0.00  0.00     0.000 S
ATOM     50   O  GU6 D   3      55.996   5.497 123.5600  0.00  0.00     0.000 OA
ATOM     51   O  GU6 D   3      57.905   4.019 123.7650  0.00  0.00     0.000 OA
ATOM     52   O  GU6 D   3      57.124   5.342 125.6890  0.00  0.00     0.000 O
ENDBRANCH 39 48
BRANCH 41 53
ATOM     53   C  GU6 D   3      59.818  10.664 125.7460  0.00  0.00     0.000 C
ATOM     54   O  GU6 D   3      59.018  10.794 126.8930  0.00  0.00     0.000 O
ATOM     55   S  GU6 D   3      59.498  11.633 128.0850  0.00  0.00     0.000 S
ATOM     56   O  GU6 D   3      59.556  13.039 127.6220  0.00  0.00     0.000 O
ATOM     57   O  GU6 D   3      58.530  11.486 129.1810  0.00  0.00     0.000 OA
ATOM     58   O  GU6 D   3      60.844  11.139 128.4550  0.00  0.00     0.000 OA
ENDBRANCH 41 53
BRANCH 37 59
ATOM     59  O4  Z9K D   4      56.086  10.158 123.8010  0.00  0.00     0.000 O
BRANCH 59 63
ATOM     60  C1  Z9K D   4      52.230  10.663 124.3670  0.00  0.00     0.000 C
ATOM     61  C2  Z9K D   4      52.322  10.755 122.8180  0.00  0.00     0.000 C
ATOM     62  C3  Z9K D   4      53.846  10.368 122.5830  0.00  0.00     0.000 C
ATOM     63  C4  Z9K D   4      54.954  11.022 123.4940  0.00  0.00     0.000 C
ATOM     64  C5  Z9K D   4      54.498  11.476 124.8900  0.00  0.00     0.000 C
ATOM     65  O5  Z9K D   4      53.461  10.515 125.2180  0.00  0.00     0.000 O
ATOM     66   O  Z9K D   4      54.291  10.602 121.2350  0.00  0.00     0.000 O
ATOM     67   C  Z9K D   4      54.025   9.537 120.3370  0.00  0.00     0.000 C
BRANCH 61 68
ATOM     68   O  Z9K D   4      51.563   9.699 122.2980  0.00  0.00     0.000 O
ATOM     69   O  Z9K D   4      51.456  11.753 120.7760  0.00  0.00     0.000 OA
ATOM     70   S  Z9K D   4      50.749  10.992 121.7610  0.00  0.00     0.000 S
ATOM     71   O  Z9K D   4      49.971  11.531 122.8340  0.00  0.00     0.000 OA
ATOM     72   O  Z9K D   4      50.040   9.911 121.1570  0.00  0.00     0.000 OA
ENDBRANCH 61 68
BRANCH 64 73
ATOM     73   C  Z9K D   4      55.705  11.619 125.8410  0.00  0.00     0.000 C
ATOM     74   O  Z9K D   4      56.532  12.568 125.7130  0.00  0.00     0.000 O
ATOM     75   O  Z9K D   4      55.908  10.809 126.7780  0.00  0.00     0.000 OA
ENDBRANCH 64 73
BRANCH 60 76
ATOM     76  O4  Z9L D   5      51.568  11.557 125.2780  0.00  0.00     0.000 O
BRANCH 76 80
ATOM     77  C1  Z9L D   5      49.312  11.747 128.5720  0.00  0.00     0.000 C
ATOM     78  C2  Z9L D   5      50.717  12.436 128.9240  0.00  0.00     0.000 C
ATOM     79  C3  Z9L D   5      51.478  12.770 127.4500  0.00  0.00     0.000 C
ATOM     80  C4  Z9L D   5      51.160  11.388 126.6110  0.00  0.00     0.000 C
ATOM     81  C5  Z9L D   5      49.792  10.552 126.4360  0.00  0.00     0.000 C
ATOM     82  O5  Z9L D   5      49.160  10.537 127.7250  0.00  0.00     0.000 O
ATOM     83   C  Z9L D   5      47.098  12.300 127.7460  0.00  0.00     0.000 C
ATOM     84   C  Z9L D   5      47.098  12.300 127.7460  0.00  0.00     0.000 C
BRANCH 78 85
ATOM     85   O  Z9L D   5      50.457  13.634 129.5840  0.00  0.00     0.000 O
ATOM     86   O  Z9L D   5      50.830  13.976 131.4430  0.00  0.00     0.000 OA
ATOM     87   S  Z9L D   5      51.209  12.794 130.7300  0.00  0.00     0.000 S
ATOM     88   O  Z9L D   5      52.647  12.854 130.6450  0.00  0.00     0.000 OA
ATOM     89   O  Z9L D   5      50.468  11.740 131.3320  0.00  0.00     0.000 OA
ENDBRANCH 78 85
BRANCH 79 90
ATOM     90   O  Z9L D   5      52.864  12.735 127.5760  0.00  0.00     0.000 O
ATOM     91   S  Z9L D   5      52.681  14.226 127.0450  0.00  0.00     0.000 S
ATOM     92   O  Z9L D   5      51.841  15.184 127.7150  0.00  0.00     0.000 OA
ATOM     93   O  Z9L D   5      52.828  14.243 125.6110  0.00  0.00     0.000 O
ATOM     94   O  Z9L D   5      53.988  14.344 127.6050  0.00  0.00     0.000 OA
ENDBRANCH 79 90
BRANCH 81 95
ATOM     95   C  Z9L D   5      49.872   9.119 125.5690  0.00  0.00     0.000 C
ATOM     96   S  Z9L D   5      50.065   7.141 125.7090  0.00  0.00     0.000 S
ATOM     97   O  Z9L D   5      50.653   8.386 126.4740  0.00  0.00     0.000 O
ATOM     98   O  Z9L D   5      50.708   7.105 124.4200  0.00  0.00     0.000 OA
ATOM     99   O  Z9L D   5      48.662   6.938 125.8430  0.00  0.00     0.000 OA
ATOM    100   O  Z9L D   5      50.901   6.442 126.6540  0.00  0.00     0.000 O
ENDBRANCH 81 95
ENDBRANCH 76 80
ENDBRANCH 60 76
ENDBRANCH 59 63
ENDBRANCH 37 59
ENDBRANCH 36 40
ENDBRANCH 23 36
ENDBRANCH 22 26
ENDBRANCH 1 22
TORSDOF 19
ENDMDL
MODEL 56
REMARK VINA RESULT:       0.0    111.363    116.936
ROOT
ATOM      1  C1  Z9H D   1     102.190 127.564 122.8020  0.00  0.00     0.000 C
ATOM      2  C2  Z9H D   1     100.716 127.792 122.3900  0.00  0.00     0.000 C
ATOM      3  C3  Z9H D   1     100.492 126.456 121.6170  0.00  0.00     0.000 C
ATOM      4  C4  Z9H D   1     101.592 126.108 120.5300  0.00  0.00     0.000 C
ATOM      5  C5  Z9H D   1     103.144 126.197 120.8120  0.00  0.00     0.000 C
ATOM      6  O5  Z9H D   1     103.197 127.259 121.7970  0.00  0.00     0.000 O
ATOM      7   O  Z9H D   1      99.186 126.393 121.0400  0.00  0.00     0.000 O
ATOM      8   C  Z9H D   1      98.215 125.648 121.7940  0.00  0.00     0.000 C
ATOM      9   O  Z9H D   1     101.314 124.767 120.1110  0.00  0.00     0.000 O
ATOM     10   C  Z9H D   1     100.589 124.641 118.8850  0.00  0.00     0.000 C
ENDROOT
BRANCH 2 11
ATOM     11   O  Z9H D   1     100.042 127.625 123.6100  0.00  0.00     0.000 O
ATOM     12   O  Z9H D   1      99.134 129.008 124.5160  0.00  0.00     0.000 OA
ATOM     13   S  Z9H D   1      99.780 129.151 123.2550  0.00  0.00     0.000 S
ATOM     14   O  Z9H D   1      98.875 129.206 122.1420  0.00  0.00     0.000 OA
ATOM     15   O  Z9H D   1     100.979 129.945 123.3900  0.00  0.00     0.000 O
ENDBRANCH 2 11
BRANCH 5 16
ATOM     16   C  Z9H D   1     104.112 126.227 119.4470  0.00  0.00     0.000 C
ATOM     17   S  Z9H D   1     105.860 125.605 118.6740  0.00  0.00     0.000 S
ATOM     18   O  Z9H D   1     104.709 124.963 119.6070  0.00  0.00     0.000 O
ATOM     19   O  Z9H D   1     106.616 126.658 119.2890  0.00  0.00     0.000 O
ATOM     20   O  Z9H D   1     105.430 125.642 117.3200  0.00  0.00     0.000 OA
ATOM     21   O  Z9H D   1     106.443 124.317 118.9120  0.00  0.00     0.000 OA
ENDBRANCH 5 16
BRANCH 1 22
ATOM     22  O4  GU1 D   2     102.405 126.451 123.7430  0.00  0.00     0.000 O
BRANCH 22 26
ATOM     23  C1  GU1 D   2     104.619 125.137 126.9580  0.00  0.00     0.000 C
ATOM     24  C2  GU1 D   2     104.325 126.629 126.9510  0.00  0.00     0.000 C
ATOM     25  C3  GU1 D   2     103.220 126.914 125.9750  0.00  0.00     0.000 C
ATOM     26  C4  GU1 D   2     103.542 126.335 124.6050  0.00  0.00     0.000 C
ATOM     27  C5  GU1 D   2     103.925 124.858 124.7360  0.00  0.00     0.000 C
ATOM     28  O5  GU1 D   2     105.000 124.701 125.6580  0.00  0.00     0.000 O
ATOM     29   O  GU1 D   2     103.919 127.097 128.2310  0.00  0.00     0.000 O
ATOM     30   C  GU1 D   2     104.971 127.673 128.9930  0.00  0.00     0.000 C
ATOM     31   C  GU1 D   2     101.980 128.890 126.5640  0.00  0.00     0.000 C
ATOM     32   O  GU1 D   2     103.081 128.333 125.8510  0.00  0.00     0.000 O
BRANCH 27 33
ATOM     33   C  GU1 D   2     104.366 124.287 123.4100  0.00  0.00     0.000 C
ATOM     34   O  GU1 D   2     105.421 124.664 122.9410  0.00  0.00     0.000 OA
ATOM     35   O  GU1 D   2     103.677 123.464 122.8270  0.00  0.00     0.000 O
ENDBRANCH 27 33
BRANCH 23 36
ATOM     36  O4  GU6 D   3     105.796 124.637 127.6240  0.00  0.00     0.000 O
BRANCH 36 40
ATOM     37  C1  GU6 D   3     109.547 123.253 128.4670  0.00  0.00     0.000 C
ATOM     38  C2  GU6 D   3     108.482 122.796 129.4560  0.00  0.00     0.000 C
ATOM     39  C3  GU6 D   3     107.115 123.124 128.9140  0.00  0.00     0.000 C
ATOM     40  C4  GU6 D   3     107.042 123.977 127.7220  0.00  0.00     0.000 C
ATOM     41  C5  GU6 D   3     108.145 125.083 127.8020  0.00  0.00     0.000 C
ATOM     42  O5  GU6 D   3     109.423 124.656 128.2860  0.00  0.00     0.000 O
BRANCH 38 43
ATOM     43   O  GU6 D   3     108.587 121.405 129.6910  0.00  0.00     0.000 O
ATOM     44   S  GU6 D   3     108.734 121.024 131.1590  0.00  0.00     0.000 S
ATOM     45   O  GU6 D   3     110.146 121.189 131.5450  0.00  0.00     0.000 OA
ATOM     46   O  GU6 D   3     107.897 121.930 131.9660  0.00  0.00     0.000 O
ATOM     47   O  GU6 D   3     108.292 119.644 131.3340  0.00  0.00     0.000 OA
ENDBRANCH 38 43
BRANCH 39 48
ATOM     48   O  GU6 D   3     105.965 122.452 129.3890  0.00  0.00     0.000 O
ATOM     49   S  GU6 D   3     105.207 121.265 128.7960  0.00  0.00     0.000 S
ATOM     50   O  GU6 D   3     106.121 120.136 128.5850  0.00  0.00     0.000 OA
ATOM     51   O  GU6 D   3     104.210 120.955 129.8300  0.00  0.00     0.000 OA
ATOM     52   O  GU6 D   3     104.604 121.676 127.5080  0.00  0.00     0.000 O
ENDBRANCH 39 48
BRANCH 41 53
ATOM     53   C  GU6 D   3     108.058 126.537 127.4250  0.00  0.00     0.000 C
ATOM     54   O  GU6 D   3     107.867 126.365 126.0440  0.00  0.00     0.000 O
ATOM     55   S  GU6 D   3     107.822 127.580 125.1080  0.00  0.00     0.000 S
ATOM     56   O  GU6 D   3     109.173 128.187 125.1300  0.00  0.00     0.000 O
ATOM     57   O  GU6 D   3     107.483 127.116 123.7550  0.00  0.00     0.000 OA
ATOM     58   O  GU6 D   3     106.810 128.514 125.6490  0.00  0.00     0.000 OA
ENDBRANCH 41 53
BRANCH 37 59
ATOM     59  O4  Z9K D   4     109.775 122.671 127.1660  0.00  0.00     0.000 O
BRANCH 59 63
ATOM     60  C1  Z9K D   4     111.136 120.079 124.5440  0.00  0.00     0.000 C
ATOM     61  C2  Z9K D   4     111.930 119.667 125.8150  0.00  0.00     0.000 C
ATOM     62  C3  Z9K D   4     111.244 120.592 126.9120  0.00  0.00     0.000 C
ATOM     63  C4  Z9K D   4     110.987 122.112 126.5830  0.00  0.00     0.000 C
ATOM     64  C5  Z9K D   4     110.828 122.463 125.0950  0.00  0.00     0.000 C
ATOM     65  O5  Z9K D   4     110.214 121.267 124.5460  0.00  0.00     0.000 O
ATOM     66   O  Z9K D   4     111.945 120.599 128.1680  0.00  0.00     0.000 O
ATOM     67   C  Z9K D   4     111.593 119.539 129.0420  0.00  0.00     0.000 C
BRANCH 61 68
ATOM     68   O  Z9K D   4     111.559 118.351 126.1230  0.00  0.00     0.000 O
ATOM     69   O  Z9K D   4     114.002 118.794 126.7430  0.00  0.00     0.000 OA
ATOM     70   S  Z9K D   4     113.134 118.184 125.7810  0.00  0.00     0.000 S
ATOM     71   O  Z9K D   4     113.308 118.212 124.3610  0.00  0.00     0.000 OA
ATOM     72   O  Z9K D   4     112.767 116.867 126.1890  0.00  0.00     0.000 OA
ENDBRANCH 61 68
BRANCH 64 73
ATOM     73   C  Z9K D   4     110.104 123.815 124.9240  0.00  0.00     0.000 C
ATOM     74   O  Z9K D   4     110.678 124.906 125.2070  0.00  0.00     0.000 O
ATOM     75   O  Z9K D   4     108.926 123.884 124.4950  0.00  0.00     0.000 OA
ENDBRANCH 64 73
BRANCH 60 76
ATOM     76  O4  Z9L D   5     111.636 120.325 123.2190  0.00  0.00     0.000 O
BRANCH 76 80
ATOM     77  C1  Z9L D   5     110.925 119.765 119.3260  0.00  0.00     0.000 C
ATOM     78  C2  Z9L D   5     110.860 121.345 119.5930  0.00  0.00     0.000 C
ATOM     79  C3  Z9L D   5     111.598 121.615 121.0900  0.00  0.00     0.000 C
ATOM     80  C4  Z9L D   5     110.985 120.368 121.9750  0.00  0.00     0.000 C
ATOM     81  C5  Z9L D   5     110.833 118.802 121.6250  0.00  0.00     0.000 C
ATOM     82  O5  Z9L D   5     110.400 118.734 120.2580  0.00  0.00     0.000 O
ATOM     83   C  Z9L D   5     112.491 118.027 118.6790  0.00  0.00     0.000 C
ATOM     84   C  Z9L D   5     112.491 118.027 118.6790  0.00  0.00     0.000 C
BRANCH 78 85
ATOM     85   O  Z9L D   5     111.597 121.981 118.5990  0.00  0.00     0.000 O
ATOM     86   O  Z9L D   5     110.855 123.088 117.2070  0.00  0.00     0.000 OA
ATOM     87   S  Z9L D   5     110.118 122.535 118.3020  0.00  0.00     0.000 S
ATOM     88   O  Z9L D   5     109.748 123.668 119.1140  0.00  0.00     0.000 OA
ATOM     89   O  Z9L D   5     109.204 121.618 117.7130  0.00  0.00     0.000 OA
ENDBRANCH 78 85
BRANCH 79 90
ATOM     90   O  Z9L D   5     111.061 122.731 121.7260  0.00  0.00     0.000 O
ATOM     91   S  Z9L D   5     112.589 123.174 121.6560  0.00  0.00     0.000 S
ATOM     92   O  Z9L D   5     113.317 123.235 120.4160  0.00  0.00     0.000 OA
ATOM     93   O  Z9L D   5     113.248 122.812 122.8860  0.00  0.00     0.000 O
ATOM     94   O  Z9L D   5     111.992 124.454 121.8590  0.00  0.00     0.000 OA
ENDBRANCH 79 90
BRANCH 81 95
ATOM     95   C  Z9L D   5     110.062 117.832 122.7560  0.00  0.00     0.000 C
ATOM     96   S  Z9L D   5     108.325 117.012 123.2810  0.00  0.00     0.000 S
ATOM     97   O  Z9L D   5     108.775 118.375 122.6340  0.00  0.00     0.000 O
ATOM     98   O  Z9L D   5     108.712 117.063 124.6670  0.00  0.00     0.000 OA
ATOM     99   O  Z9L D   5     108.549 115.848 122.4910  0.00  0.00     0.000 OA
ATOM    100   O  Z9L D   5     107.028 117.629 123.1470  0.00  0.00     0.000 O
ENDBRANCH 81 95
ENDBRANCH 76 80
ENDBRANCH 60 76
ENDBRANCH 59 63
ENDBRANCH 37 59
ENDBRANCH 36 40
ENDBRANCH 23 36
ENDBRANCH 22 26
ENDBRANCH 1 22
TORSDOF 19
ENDMDL
MODEL 57
REMARK VINA RESULT:       0.0     41.026     47.458
ROOT
ATOM      1  C1  Z9H D   1      27.996 102.620  92.2970  0.00  0.00     0.000 C
ATOM      2  C2  Z9H D   1      27.710 103.430  93.5840  0.00  0.00     0.000 C
ATOM      3  C3  Z9H D   1      26.910 102.339  94.3610  0.00  0.00     0.000 C
ATOM      4  C4  Z9H D   1      25.728 101.660  93.5530  0.00  0.00     0.000 C
ATOM      5  C5  Z9H D   1      25.890 101.118  92.0770  0.00  0.00     0.000 C
ATOM      6  O5  Z9H D   1      26.905 102.011  91.5530  0.00  0.00     0.000 O
ATOM      7   O  Z9H D   1      26.437 102.828  95.6170  0.00  0.00     0.000 O
ATOM      8   C  Z9H D   1      27.238 102.474  96.7570  0.00  0.00     0.000 C
ATOM      9   O  Z9H D   1      25.287 100.563  94.3600  0.00  0.00     0.000 O
ATOM     10   C  Z9H D   1      24.117 100.807  95.1470  0.00  0.00     0.000 C
ENDROOT
BRANCH 2 11
ATOM     11   O  Z9H D   1      28.972 103.463  94.1960  0.00  0.00     0.000 O
ATOM     12   O  Z9H D   1      29.995 105.030  94.4320  0.00  0.00     0.000 OA
ATOM     13   S  Z9H D   1      28.693 104.990  93.8570  0.00  0.00     0.000 S
ATOM     14   O  Z9H D   1      27.658 105.463  94.7310  0.00  0.00     0.000 OA
ATOM     15   O  Z9H D   1      28.761 105.243  92.4360  0.00  0.00     0.000 O
ENDBRANCH 2 11
BRANCH 5 16
ATOM     16   C  Z9H D   1      24.455 100.854  91.2570  0.00  0.00     0.000 C
ATOM     17   S  Z9H D   1      23.525  99.650  89.9440  0.00  0.00     0.000 S
ATOM     18   O  Z9H D   1      24.523  99.450  91.1980  0.00  0.00     0.000 O
ATOM     19   O  Z9H D   1      24.115 100.283  88.8000  0.00  0.00     0.000 O
ATOM     20   O  Z9H D   1      22.212  99.937  90.4040  0.00  0.00     0.000 OA
ATOM     21   O  Z9H D   1      23.672  98.224  89.9020  0.00  0.00     0.000 OA
ENDBRANCH 5 16
BRANCH 1 22
ATOM     22  O4  GU1 D   2      28.877 101.454  92.4830  0.00  0.00     0.000 O
BRANCH 22 26
ATOM     23  C1  GU1 D   2      31.860  99.180  90.7800  0.00  0.00     0.000 C
ATOM     24  C2  GU1 D   2      31.929 100.666  90.4630  0.00  0.00     0.000 C
ATOM     25  C3  GU1 D   2      31.053 101.420  91.4210  0.00  0.00     0.000 C
ATOM     26  C4  GU1 D   2      29.643 100.850  91.4340  0.00  0.00     0.000 C
ATOM     27  C5  GU1 D   2      29.692  99.335  91.6570  0.00  0.00     0.000 C
ATOM     28  O5  GU1 D   2      30.520  98.714  90.6780  0.00  0.00     0.000 O
ATOM     29   O  GU1 D   2      33.253 101.174  90.5760  0.00  0.00     0.000 O
ATOM     30   C  GU1 D   2      33.949 101.244  89.3390  0.00  0.00     0.000 C
ATOM     31   C  GU1 D   2      31.807 103.683  91.7470  0.00  0.00     0.000 C
ATOM     32   O  GU1 D   2      30.991 102.786  90.9980  0.00  0.00     0.000 O
BRANCH 27 33
ATOM     33   C  GU1 D   2      28.315  98.723  91.5550  0.00  0.00     0.000 C
ATOM     34   O  GU1 D   2      27.778  98.687  90.4660  0.00  0.00     0.000 OA
ATOM     35   O  GU1 D   2      27.760  98.273  92.5450  0.00  0.00     0.000 O
ENDBRANCH 27 33
BRANCH 23 36
ATOM     36  O4  GU6 D   3      32.413  98.220  89.8580  0.00  0.00     0.000 O
BRANCH 36 40
ATOM     37  C1  GU6 D   3      32.909  95.433  86.9120  0.00  0.00     0.000 C
ATOM     38  C2  GU6 D   3      33.962  95.365  88.0110  0.00  0.00     0.000 C
ATOM     39  C3  GU6 D   3      33.541  96.234  89.1670  0.00  0.00     0.000 C
ATOM     40  C4  GU6 D   3      32.390  97.121  88.9690  0.00  0.00     0.000 C
ATOM     41  C5  GU6 D   3      32.421  97.702  87.5170  0.00  0.00     0.000 C
ATOM     42  O5  GU6 D   3      32.787  96.780  86.4840  0.00  0.00     0.000 O
BRANCH 38 43
ATOM     43   O  GU6 D   3      34.139  94.032  88.4480  0.00  0.00     0.000 O
ATOM     44   S  GU6 D   3      35.576  93.532  88.3760  0.00  0.00     0.000 S
ATOM     45   O  GU6 D   3      35.856  93.108  86.9940  0.00  0.00     0.000 OA
ATOM     46   O  GU6 D   3      36.479  94.639  88.7410  0.00  0.00     0.000 O
ATOM     47   O  GU6 D   3      35.737  92.426  89.3150  0.00  0.00     0.000 OA
ENDBRANCH 38 43
BRANCH 39 48
ATOM     48   O  GU6 D   3      34.082  96.035  90.4590  0.00  0.00     0.000 O
ATOM     49   S  GU6 D   3      33.509  95.278  91.6560  0.00  0.00     0.000 S
ATOM     50   O  GU6 D   3      33.187  93.898  91.2750  0.00  0.00     0.000 OA
ATOM     51   O  GU6 D   3      34.607  95.317  92.6320  0.00  0.00     0.000 OA
ATOM     52   O  GU6 D   3      32.288  95.972  92.1230  0.00  0.00     0.000 O
ENDBRANCH 39 48
BRANCH 41 53
ATOM     53   C  GU6 D   3      32.103  99.096  87.0470  0.00  0.00     0.000 C
ATOM     54   O  GU6 D   3      30.737  99.100  87.3700  0.00  0.00     0.000 O
ATOM     55   S  GU6 D   3      29.850 100.292  86.9890  0.00  0.00     0.000 S
ATOM     56   O  GU6 D   3      29.787 100.321  85.5090  0.00  0.00     0.000 O
ATOM     57   O  GU6 D   3      28.512 100.084  87.5620  0.00  0.00     0.000 OA
ATOM     58   O  GU6 D   3      30.502 101.511  87.5180  0.00  0.00     0.000 OA
ENDBRANCH 41 53
BRANCH 37 59
ATOM     59  O4  Z9K D   4      31.574  94.891  87.0080  0.00  0.00     0.000 O
BRANCH 59 63
ATOM     60  C1  Z9K D   4      28.764  92.145  86.9330  0.00  0.00     0.000 C
ATOM     61  C2  Z9K D   4      29.953  91.376  86.2930  0.00  0.00     0.000 C
ATOM     62  C3  Z9K D   4      31.132  92.424  86.4930  0.00  0.00     0.000 C
ATOM     63  C4  Z9K D   4      30.878  93.942  86.1500  0.00  0.00     0.000 C
ATOM     64  C5  Z9K D   4      29.421  94.420  86.2450  0.00  0.00     0.000 C
ATOM     65  O5  Z9K D   4      28.880  93.596  87.3120  0.00  0.00     0.000 O
ATOM     66   O  Z9K D   4      32.329  92.078  85.7730  0.00  0.00     0.000 O
ATOM     67   C  Z9K D   4      33.189  91.186  86.4620  0.00  0.00     0.000 C
BRANCH 61 68
ATOM     68   O  Z9K D   4      30.242  90.293  87.1330  0.00  0.00     0.000 O
ATOM     69   O  Z9K D   4      30.683  89.708  84.6810  0.00  0.00     0.000 OA
ATOM     70   S  Z9K D   4      29.772  89.547  85.7740  0.00  0.00     0.000 S
ATOM     71   O  Z9K D   4      28.345  89.594  85.6860  0.00  0.00     0.000 OA
ATOM     72   O  Z9K D   4      30.162  88.454  86.6050  0.00  0.00     0.000 OA
ENDBRANCH 61 68
BRANCH 64 73
ATOM     73   C  Z9K D   4      29.355  95.955  86.3880  0.00  0.00     0.000 C
ATOM     74   O  Z9K D   4      29.629  96.716  85.4150  0.00  0.00     0.000 O
ATOM     75   O  Z9K D   4      29.023  96.506  87.4660  0.00  0.00     0.000 OA
ENDBRANCH 64 73
BRANCH 60 76
ATOM     76  O4  Z9L D   5      27.412  92.260  86.4560  0.00  0.00     0.000 O
BRANCH 76 80
ATOM     77  C1  Z9L D   5      23.571  92.268  87.5580  0.00  0.00     0.000 C
ATOM     78  C2  Z9L D   5      23.897  93.729  86.9800  0.00  0.00     0.000 C
ATOM     79  C3  Z9L D   5      25.340  93.594  86.1080  0.00  0.00     0.000 C
ATOM     80  C4  Z9L D   5      26.226  92.632  87.1090  0.00  0.00     0.000 C
ATOM     81  C5  Z9L D   5      25.834  91.275  87.8860  0.00  0.00     0.000 C
ATOM     82  O5  Z9L D   5      24.504  91.467  88.3900  0.00  0.00     0.000 O
ATOM     83   C  Z9L D   5      22.741  90.102  86.8430  0.00  0.00     0.000 C
ATOM     84   C  Z9L D   5      22.741  90.102  86.8430  0.00  0.00     0.000 C
BRANCH 78 85
ATOM     85   O  Z9L D   5      22.871  94.089  86.1110  0.00  0.00     0.000 O
ATOM     86   O  Z9L D   5      21.582  95.482  86.4380  0.00  0.00     0.000 OA
ATOM     87   S  Z9L D   5      22.712  95.193  87.2680  0.00  0.00     0.000 S
ATOM     88   O  Z9L D   5      23.589  96.327  87.1140  0.00  0.00     0.000 OA
ATOM     89   O  Z9L D   5      22.165  94.744  88.5020  0.00  0.00     0.000 OA
ENDBRANCH 78 85
BRANCH 79 90
ATOM     90   O  Z9L D   5      26.055  94.789  86.1240  0.00  0.00     0.000 O
ATOM     91   S  Z9L D   5      25.880  94.604  84.5520  0.00  0.00     0.000 S
ATOM     92   O  Z9L D   5      24.589  94.455  83.9330  0.00  0.00     0.000 OA
ATOM     93   O  Z9L D   5      27.041  93.936  84.0180  0.00  0.00     0.000 O
ATOM     94   O  Z9L D   5      26.175  96.000  84.5840  0.00  0.00     0.000 OA
ENDBRANCH 79 90
BRANCH 81 95
ATOM     95   C  Z9L D   5      26.988  90.613  88.9080  0.00  0.00     0.000 C
ATOM     96   S  Z9L D   5      27.619  90.504  90.7940  0.00  0.00     0.000 S
ATOM     97   O  Z9L D   5      26.987  91.621  89.8820  0.00  0.00     0.000 O
ATOM     98   O  Z9L D   5      28.972  90.312  90.3370  0.00  0.00     0.000 OA
ATOM     99   O  Z9L D   5      26.774  89.397  91.0930  0.00  0.00     0.000 OA
ATOM    100   O  Z9L D   5      27.609  91.585  91.7480  0.00  0.00     0.000 O
ENDBRANCH 81 95
ENDBRANCH 76 80
ENDBRANCH 60 76
ENDBRANCH 59 63
ENDBRANCH 37 59
ENDBRANCH 36 40
ENDBRANCH 23 36
ENDBRANCH 22 26
ENDBRANCH 1 22
TORSDOF 19
ENDMDL
MODEL 58
REMARK VINA RESULT:       0.0     66.623     72.993
ROOT
ATOM      1  C1  Z9H D   1      84.652  43.726  19.2000  0.00  0.00     0.000 C
ATOM      2  C2  Z9H D   1      84.071  42.345  19.5860  0.00  0.00     0.000 C
ATOM      3  C3  Z9H D   1      85.121  41.451  18.8580  0.00  0.00     0.000 C
ATOM      4  C4  Z9H D   1      85.391  41.819  17.3400  0.00  0.00     0.000 C
ATOM      5  C5  Z9H D   1      85.653  43.296  16.8430  0.00  0.00     0.000 C
ATOM      6  O5  Z9H D   1      84.884  44.063  17.8040  0.00  0.00     0.000 O
ATOM      7   O  Z9H D   1      84.808  40.062  18.9840  0.00  0.00     0.000 O
ATOM      8   C  Z9H D   1      85.525  39.360  20.0130  0.00  0.00     0.000 C
ATOM      9   O  Z9H D   1      86.521  41.034  16.9440  0.00  0.00     0.000 O
ATOM     10   C  Z9H D   1      86.218  39.839  16.2180  0.00  0.00     0.000 C
ENDROOT
BRANCH 2 11
ATOM     11   O  Z9H D   1      84.400  42.260  20.9480  0.00  0.00     0.000 O
ATOM     12   O  Z9H D   1      83.136  42.284  22.3470  0.00  0.00     0.000 OA
ATOM     13   S  Z9H D   1      82.813  42.321  20.9600  0.00  0.00     0.000 S
ATOM     14   O  Z9H D   1      82.310  41.078  20.4480  0.00  0.00     0.000 OA
ATOM     15   O  Z9H D   1      82.326  43.630  20.5910  0.00  0.00     0.000 O
ENDBRANCH 2 11
BRANCH 5 16
ATOM     16   C  Z9H D   1      85.472  43.532  15.1960  0.00  0.00     0.000 C
ATOM     17   S  Z9H D   1      86.186  44.532  13.6050  0.00  0.00     0.000 S
ATOM     18   O  Z9H D   1      86.821  43.789  14.8900  0.00  0.00     0.000 O
ATOM     19   O  Z9H D   1      85.447  45.725  13.9030  0.00  0.00     0.000 O
ATOM     20   O  Z9H D   1      85.764  43.574  12.6440  0.00  0.00     0.000 OA
ATOM     21   O  Z9H D   1      87.573  44.805  13.3700  0.00  0.00     0.000 OA
ENDBRANCH 5 16
BRANCH 1 22
ATOM     22  O4  GU1 D   2      85.978  44.021  19.7710  0.00  0.00     0.000 O
BRANCH 22 26
ATOM     23  C1  GU1 D   2      88.409  46.978  21.2930  0.00  0.00     0.000 C
ATOM     24  C2  GU1 D   2      86.931  47.136  21.6160  0.00  0.00     0.000 C
ATOM     25  C3  GU1 D   2      86.223  45.839  21.3520  0.00  0.00     0.000 C
ATOM     26  C4  GU1 D   2      86.503  45.343  19.9410  0.00  0.00     0.000 C
ATOM     27  C5  GU1 D   2      88.013  45.320  19.6830  0.00  0.00     0.000 C
ATOM     28  O5  GU1 D   2      88.580  46.604  19.9310  0.00  0.00     0.000 O
ATOM     29   O  GU1 D   2      86.719  47.490  22.9770  0.00  0.00     0.000 O
ATOM     30   C  GU1 D   2      86.545  48.884  23.1880  0.00  0.00     0.000 C
ATOM     31   C  GU1 D   2      84.254  45.590  22.7140  0.00  0.00     0.000 C
ATOM     32   O  GU1 D   2      84.815  46.056  21.4890  0.00  0.00     0.000 O
BRANCH 27 33
ATOM     33   C  GU1 D   2      88.318  44.948  18.2520  0.00  0.00     0.000 C
ATOM     34   O  GU1 D   2      88.799  43.856  18.0290  0.00  0.00     0.000 OA
ATOM     35   O  GU1 D   2      88.080  45.728  17.3430  0.00  0.00     0.000 O
ENDBRANCH 27 33
BRANCH 23 36
ATOM     36  O4  GU6 D   3      89.260  48.140  21.2260  0.00  0.00     0.000 O
BRANCH 36 40
ATOM     37  C1  GU6 D   3      91.458  51.333  19.9350  0.00  0.00     0.000 C
ATOM     38  C2  GU6 D   3      91.938  50.746  21.2570  0.00  0.00     0.000 C
ATOM     39  C3  GU6 D   3      91.249  49.429  21.5040  0.00  0.00     0.000 C
ATOM     40  C4  GU6 D   3      90.139  49.064  20.6170  0.00  0.00     0.000 C
ATOM     41  C5  GU6 D   3      89.301  50.340  20.2760  0.00  0.00     0.000 C
ATOM     42  O5  GU6 D   3      90.054  51.529  20.0110  0.00  0.00     0.000 O
BRANCH 38 43
ATOM     43   O  GU6 D   3      93.340  50.561  21.2390  0.00  0.00     0.000 O
ATOM     44   S  GU6 D   3      94.079  51.244  22.3830  0.00  0.00     0.000 S
ATOM     45   O  GU6 D   3      94.268  52.664  22.0370  0.00  0.00     0.000 OA
ATOM     46   O  GU6 D   3      93.256  51.143  23.6020  0.00  0.00     0.000 O
ATOM     47   O  GU6 D   3      95.358  50.571  22.5860  0.00  0.00     0.000 OA
ENDBRANCH 38 43
BRANCH 39 48
ATOM     48   O  GU6 D   3      91.796  48.480  22.3990  0.00  0.00     0.000 O
ATOM     49   S  GU6 D   3      92.653  47.247  22.1180  0.00  0.00     0.000 S
ATOM     50   O  GU6 D   3      93.846  47.624  21.3510  0.00  0.00     0.000 OA
ATOM     51   O  GU6 D   3      93.013  46.777  23.4630  0.00  0.00     0.000 OA
ATOM     52   O  GU6 D   3      91.848  46.267  21.3530  0.00  0.00     0.000 O
ENDBRANCH 39 48
BRANCH 41 53
ATOM     53   C  GU6 D   3      87.807  50.493  20.1700  0.00  0.00     0.000 C
ATOM     54   O  GU6 D   3      87.608  49.658  19.0590  0.00  0.00     0.000 O
ATOM     55   S  GU6 D   3      86.218  49.528  18.4230  0.00  0.00     0.000 S
ATOM     56   O  GU6 D   3      85.887  50.850  17.8420  0.00  0.00     0.000 O
ATOM     57   O  GU6 D   3      86.277  48.500  17.3740  0.00  0.00     0.000 OA
ATOM     58   O  GU6 D   3      85.272  49.171  19.5050  0.00  0.00     0.000 OA
ENDBRANCH 41 53
BRANCH 37 59
ATOM     59  O4  Z9K D   4      91.745  50.785  18.6320  0.00  0.00     0.000 O
BRANCH 59 63
ATOM     60  C1  Z9K D   4      93.842  50.062  15.3870  0.00  0.00     0.000 C
ATOM     61  C2  Z9K D   4      94.679  51.196  16.0400  0.00  0.00     0.000 C
ATOM     62  C3  Z9K D   4      93.933  51.357  17.4350  0.00  0.00     0.000 C
ATOM     63  C4  Z9K D   4      92.358  51.403  17.4630  0.00  0.00     0.000 C
ATOM     64  C5  Z9K D   4      91.642  50.694  16.3030  0.00  0.00     0.000 C
ATOM     65  O5  Z9K D   4      92.543  49.600  15.9880  0.00  0.00     0.000 O
ATOM     66   O  Z9K D   4      94.350  52.520  18.1730  0.00  0.00     0.000 O
ATOM     67   C  Z9K D   4      95.507  52.325  18.9690  0.00  0.00     0.000 C
BRANCH 61 68
ATOM     68   O  Z9K D   4      95.942  50.662  16.3280  0.00  0.00     0.000 O
ATOM     69   O  Z9K D   4      96.105  53.138  15.7030  0.00  0.00     0.000 OA
ATOM     70   S  Z9K D   4      96.302  51.800  15.2330  0.00  0.00     0.000 S
ATOM     71   O  Z9K D   4      95.968  51.314  13.9290  0.00  0.00     0.000 OA
ATOM     72   O  Z9K D   4      97.591  51.313  15.6050  0.00  0.00     0.000 OA
ENDBRANCH 61 68
BRANCH 64 73
ATOM     73   C  Z9K D   4      90.181  50.368  16.6780  0.00  0.00     0.000 C
ATOM     74   O  Z9K D   4      89.813  49.180  16.9110  0.00  0.00     0.000 O
ATOM     75   O  Z9K D   4      89.306  51.264  16.7720  0.00  0.00     0.000 OA
ENDBRANCH 64 73
BRANCH 60 76
ATOM     76  O4  Z9L D   5      93.382  49.958  14.0290  0.00  0.00     0.000 O
BRANCH 76 80
ATOM     77  C1  Z9L D   5      92.783  47.429  10.9930  0.00  0.00     0.000 C
ATOM     78  C2  Z9L D   5      91.345  47.990  11.4280  0.00  0.00     0.000 C
ATOM     79  C3  Z9L D   5      91.625  49.368  12.3670  0.00  0.00     0.000 C
ATOM     80  C4  Z9L D   5      92.888  48.866  13.2970  0.00  0.00     0.000 C
ATOM     81  C5  Z9L D   5      94.245  48.090  12.9020  0.00  0.00     0.000 C
ATOM     82  O5  Z9L D   5      93.874  47.089  11.9420  0.00  0.00     0.000 O
ATOM     83   C  Z9L D   5      94.603  47.901   9.4570  0.00  0.00     0.000 C
ATOM     84   C  Z9L D   5      94.603  47.901   9.4570  0.00  0.00     0.000 C
BRANCH 78 85
ATOM     85   O  Z9L D   5      90.657  48.355  10.2740  0.00  0.00     0.000 O
ATOM     86   O  Z9L D   5      89.113  47.443   9.5700  0.00  0.00     0.000 OA
ATOM     87   S  Z9L D   5      89.746  47.149  10.8200  0.00  0.00     0.000 S
ATOM     88   O  Z9L D   5      88.793  47.548  11.8250  0.00  0.00     0.000 OA
ATOM     89   O  Z9L D   5      90.277  45.837  10.6700  0.00  0.00     0.000 OA
ENDBRANCH 78 85
BRANCH 79 90
ATOM     90   O  Z9L D   5      90.614  49.556  13.3060  0.00  0.00     0.000 O
ATOM     91   S  Z9L D   5      90.522  50.945  12.5320  0.00  0.00     0.000 S
ATOM     92   O  Z9L D   5      90.316  51.024  11.1100  0.00  0.00     0.000 OA
ATOM     93   O  Z9L D   5      91.321  51.929  13.2210  0.00  0.00     0.000 O
ATOM     94   O  Z9L D   5      89.234  50.943  13.1470  0.00  0.00     0.000 OA
ENDBRANCH 79 90
BRANCH 81 95
ATOM     95   C  Z9L D   5      95.275  47.654  14.1520  0.00  0.00     0.000 C
ATOM     96   S  Z9L D   5      95.748  46.211  15.4410  0.00  0.00     0.000 S
ATOM     97   O  Z9L D   5      94.415  46.764  14.8120  0.00  0.00     0.000 O
ATOM     98   O  Z9L D   5      96.199  47.197  16.3900  0.00  0.00     0.000 OA
ATOM     99   O  Z9L D   5      96.652  45.591  14.5310  0.00  0.00     0.000 OA
ATOM    100   O  Z9L D   5      94.814  45.335  16.1030  0.00  0.00     0.000 O
ENDBRANCH 81 95
ENDBRANCH 76 80
ENDBRANCH 60 76
ENDBRANCH 59 63
ENDBRANCH 37 59
ENDBRANCH 36 40
ENDBRANCH 23 36
ENDBRANCH 22 26
ENDBRANCH 1 22
TORSDOF 19
ENDMDL
MODEL 59
REMARK VINA RESULT:       0.0     61.485     66.302
ROOT
ATOM      1  C1  Z9H D   1      44.289  62.529 122.1730  0.00  0.00     0.000 C
ATOM      2  C2  Z9H D   1      42.958  61.816 122.5090  0.00  0.00     0.000 C
ATOM      3  C3  Z9H D   1      43.481  60.895 123.6540  0.00  0.00     0.000 C
ATOM      4  C4  Z9H D   1      44.783  60.059 123.3120  0.00  0.00     0.000 C
ATOM      5  C5  Z9H D   1      46.065  60.693 122.6380  0.00  0.00     0.000 C
ATOM      6  O5  Z9H D   1      45.477  61.756 121.8460  0.00  0.00     0.000 O
ATOM      7   O  Z9H D   1      42.454  60.035 124.1490  0.00  0.00     0.000 O
ATOM      8   C  Z9H D   1      41.805  60.479 125.3520  0.00  0.00     0.000 C
ATOM      9   O  Z9H D   1      45.203  59.471 124.5480  0.00  0.00     0.000 O
ATOM     10   C  Z9H D   1      44.822  58.105 124.7410  0.00  0.00     0.000 C
ENDROOT
BRANCH 2 11
ATOM     11   O  Z9H D   1      42.237  62.831 123.1560  0.00  0.00     0.000 O
ATOM     12   O  Z9H D   1      40.674  63.628 122.4640  0.00  0.00     0.000 OA
ATOM     13   S  Z9H D   1      41.387  62.564 121.8410  0.00  0.00     0.000 S
ATOM     14   O  Z9H D   1      40.749  61.285 121.9690  0.00  0.00     0.000 OA
ATOM     15   O  Z9H D   1      42.069  63.039 120.6590  0.00  0.00     0.000 O
ENDBRANCH 2 11
BRANCH 5 16
ATOM     16   C  Z9H D   1      47.129  59.591 121.9640  0.00  0.00     0.000 C
ATOM     17   S  Z9H D   1      49.072  59.182 121.6540  0.00  0.00     0.000 S
ATOM     18   O  Z9H D   1      48.189  59.767 122.8720  0.00  0.00     0.000 O
ATOM     19   O  Z9H D   1      49.170  60.045 120.5110  0.00  0.00     0.000 O
ATOM     20   O  Z9H D   1      48.900  57.775 121.5550  0.00  0.00     0.000 OA
ATOM     21   O  Z9H D   1      50.118  59.429 122.6030  0.00  0.00     0.000 OA
ENDBRANCH 5 16
BRANCH 1 22
ATOM     22  O4  GU1 D   2      44.817  63.390 123.2460  0.00  0.00     0.000 O
BRANCH 22 26
ATOM     23  C1  GU1 D   2      46.821  66.893 124.0740  0.00  0.00     0.000 C
ATOM     24  C2  GU1 D   2      45.901  66.953 122.8640  0.00  0.00     0.000 C
ATOM     25  C3  GU1 D   2      44.963  65.782 122.8940  0.00  0.00     0.000 C
ATOM     26  C4  GU1 D   2      45.729  64.475 123.0300  0.00  0.00     0.000 C
ATOM     27  C5  GU1 D   2      46.700  64.556 124.2120  0.00  0.00     0.000 C
ATOM     28  O5  GU1 D   2      47.564  65.680 124.0700  0.00  0.00     0.000 O
ATOM     29   O  GU1 D   2      45.124  68.145 122.8450  0.00  0.00     0.000 O
ATOM     30   C  GU1 D   2      45.670  69.174 122.0320  0.00  0.00     0.000 C
ATOM     31   C  GU1 D   2      42.895  66.249 121.7530  0.00  0.00     0.000 C
ATOM     32   O  GU1 D   2      44.231  65.758 121.6650  0.00  0.00     0.000 O
BRANCH 27 33
ATOM     33   C  GU1 D   2      47.560  63.318 124.2990  0.00  0.00     0.000 C
ATOM     34   O  GU1 D   2      48.399  63.137 123.4410  0.00  0.00     0.000 OA
ATOM     35   O  GU1 D   2      47.415  62.524 125.2150  0.00  0.00     0.000 O
ENDBRANCH 27 33
BRANCH 23 36
ATOM     36  O4  GU6 D   3      47.970  67.760 124.1500  0.00  0.00     0.000 O
BRANCH 36 40
ATOM     37  C1  GU6 D   3      51.749  69.305 123.9750  0.00  0.00     0.000 C
ATOM     38  C2  GU6 D   3      50.851  69.981 125.0030  0.00  0.00     0.000 C
ATOM     39  C3  GU6 D   3      49.591  69.175 125.1820  0.00  0.00     0.000 C
ATOM     40  C4  GU6 D   3      49.344  68.079 124.2380  0.00  0.00     0.000 C
ATOM     41  C5  GU6 D   3      49.812  68.506 122.8080  0.00  0.00     0.000 C
ATOM     42  O5  GU6 D   3      51.047  69.227 122.7440  0.00  0.00     0.000 O
BRANCH 38 43
ATOM     43   O  GU6 D   3      51.522  70.109 126.2420  0.00  0.00     0.000 O
ATOM     44   S  GU6 D   3      51.579  71.532 126.7830  0.00  0.00     0.000 S
ATOM     45   O  GU6 D   3      52.686  72.241 126.1190  0.00  0.00     0.000 OA
ATOM     46   O  GU6 D   3      50.306  72.206 126.4690  0.00  0.00     0.000 O
ATOM     47   O  GU6 D   3      51.773  71.477 128.2290  0.00  0.00     0.000 OA
ENDBRANCH 38 43
BRANCH 39 48
ATOM     48   O  GU6 D   3      48.797  69.315 126.3450  0.00  0.00     0.000 O
ATOM     49   S  GU6 D   3      48.755  68.462 127.6110  0.00  0.00     0.000 S
ATOM     50   O  GU6 D   3      50.096  68.363 128.2000  0.00  0.00     0.000 OA
ATOM     51   O  GU6 D   3      47.844  69.211 128.4870  0.00  0.00     0.000 OA
ATOM     52   O  GU6 D   3      48.254  67.113 127.2650  0.00  0.00     0.000 O
ENDBRANCH 39 48
BRANCH 41 53
ATOM     53   C  GU6 D   3      49.151  68.250 121.4800  0.00  0.00     0.000 C
ATOM     54   O  GU6 D   3      49.287  66.853 121.4640  0.00  0.00     0.000 O
ATOM     55   S  GU6 D   3      48.863  66.043 120.2320  0.00  0.00     0.000 S
ATOM     56   O  GU6 D   3      49.779  66.426 119.1330  0.00  0.00     0.000 O
ATOM     57   O  GU6 D   3      48.993  64.613 120.5440  0.00  0.00     0.000 OA
ATOM     58   O  GU6 D   3      47.467  66.422 119.9170  0.00  0.00     0.000 OA
ENDBRANCH 41 53
BRANCH 37 59
ATOM     59  O4  Z9K D   4      52.422  68.043 124.1660  0.00  0.00     0.000 O
BRANCH 59 63
ATOM     60  C1  Z9K D   4      55.204  65.576 125.4400  0.00  0.00     0.000 C
ATOM     61  C2  Z9K D   4      55.877  66.951 125.7060  0.00  0.00     0.000 C
ATOM     62  C3  Z9K D   4      54.681  67.943 125.3630  0.00  0.00     0.000 C
ATOM     63  C4  Z9K D   4      53.835  67.701 124.0550  0.00  0.00     0.000 C
ATOM     64  C5  Z9K D   4      53.784  66.254 123.5420  0.00  0.00     0.000 C
ATOM     65  O5  Z9K D   4      53.864  65.476 124.7650  0.00  0.00     0.000 O
ATOM     66   O  Z9K D   4      55.088  69.321 125.2900  0.00  0.00     0.000 O
ATOM     67   C  Z9K D   4      55.106  69.993 126.5390  0.00  0.00     0.000 C
BRANCH 61 68
ATOM     68   O  Z9K D   4      56.084  67.048 127.0880  0.00  0.00     0.000 O
ATOM     69   O  Z9K D   4      57.937  68.243 125.7890  0.00  0.00     0.000 OA
ATOM     70   S  Z9K D   4      57.601  67.059 126.5210  0.00  0.00     0.000 S
ATOM     71   O  Z9K D   4      57.976  65.724 126.1690  0.00  0.00     0.000 OA
ATOM     72   O  Z9K D   4      57.795  67.253 127.9210  0.00  0.00     0.000 OA
ENDBRANCH 61 68
BRANCH 64 73
ATOM     73   C  Z9K D   4      52.574  66.045 122.6070  0.00  0.00     0.000 C
ATOM     74   O  Z9K D   4      52.548  66.547 121.4460  0.00  0.00     0.000 O
ATOM     75   O  Z9K D   4      51.577  65.368 122.9570  0.00  0.00     0.000 OA
ENDBRANCH 64 73
BRANCH 60 76
ATOM     76  O4  Z9L D   5      55.753  64.426 124.7750  0.00  0.00     0.000 O
BRANCH 76 80
ATOM     77  C1  Z9L D   5      56.018  60.439 124.8710  0.00  0.00     0.000 C
ATOM     78  C2  Z9L D   5      55.215  60.824 123.5380  0.00  0.00     0.000 C
ATOM     79  C3  Z9L D   5      55.498  62.468 123.2580  0.00  0.00     0.000 C
ATOM     80  C4  Z9L D   5      55.366  63.076 124.7840  0.00  0.00     0.000 C
ATOM     81  C5  Z9L D   5      55.986  62.561 126.1810  0.00  0.00     0.000 C
ATOM     82  O5  Z9L D   5      55.860  61.131 126.1760  0.00  0.00     0.000 O
ATOM     83   C  Z9L D   5      58.276  60.011 125.6530  0.00  0.00     0.000 C
ATOM     84   C  Z9L D   5      58.276  60.011 125.6530  0.00  0.00     0.000 C
BRANCH 78 85
ATOM     85   O  Z9L D   5      55.745  60.084 122.4850  0.00  0.00     0.000 O
ATOM     86   O  Z9L D   5      54.830  58.666 121.5570  0.00  0.00     0.000 OA
ATOM     87   S  Z9L D   5      54.246  59.511 122.5530  0.00  0.00     0.000 S
ATOM     88   O  Z9L D   5      53.283  60.316 121.8430  0.00  0.00     0.000 OA
ATOM     89   O  Z9L D   5      53.946  58.651 123.6460  0.00  0.00     0.000 OA
ENDBRANCH 78 85
BRANCH 79 90
ATOM     90   O  Z9L D   5      54.425  63.063 122.6010  0.00  0.00     0.000 O
ATOM     91   S  Z9L D   5      55.585  63.381 121.5580  0.00  0.00     0.000 S
ATOM     92   O  Z9L D   5      56.404  62.349 120.9780  0.00  0.00     0.000 OA
ATOM     93   O  Z9L D   5      56.124  64.691 121.8280  0.00  0.00     0.000 O
ATOM     94   O  Z9L D   5      54.457  63.557 120.7020  0.00  0.00     0.000 OA
ENDBRANCH 79 90
BRANCH 81 95
ATOM     95   C  Z9L D   5      55.551  63.397 127.5690  0.00  0.00     0.000 C
ATOM     96   S  Z9L D   5      54.299  63.439 129.1170  0.00  0.00     0.000 S
ATOM     97   O  Z9L D   5      54.196  63.036 127.5980  0.00  0.00     0.000 O
ATOM     98   O  Z9L D   5      54.389  64.876 129.1600  0.00  0.00     0.000 OA
ATOM     99   O  Z9L D   5      55.143  62.619 129.9190  0.00  0.00     0.000 OA
ATOM    100   O  Z9L D   5      52.905  63.070 129.0820  0.00  0.00     0.000 O
ENDBRANCH 81 95
ENDBRANCH 76 80
ENDBRANCH 60 76
ENDBRANCH 59 63
ENDBRANCH 37 59
ENDBRANCH 36 40
ENDBRANCH 23 36
ENDBRANCH 22 26
ENDBRANCH 1 22
TORSDOF 19
ENDMDL
MODEL 60
REMARK VINA RESULT:       0.0     56.503     62.117
ROOT
ATOM      1  C1  Z9H D   1      70.681  33.624  97.3910  0.00  0.00     0.000 C
ATOM      2  C2  Z9H D   1      71.908  34.191  96.6380  0.00  0.00     0.000 C
ATOM      3  C3  Z9H D   1      72.385  35.205  97.7230  0.00  0.00     0.000 C
ATOM      4  C4  Z9H D   1      71.264  36.173  98.2880  0.00  0.00     0.000 C
ATOM      5  C5  Z9H D   1      69.841  35.667  98.7550  0.00  0.00     0.000 C
ATOM      6  O5  Z9H D   1      69.648  34.517  97.8940  0.00  0.00     0.000 O
ATOM      7   O  Z9H D   1      73.514  35.959  97.2790  0.00  0.00     0.000 O
ATOM      8   C  Z9H D   1      74.791  35.487  97.7410  0.00  0.00     0.000 C
ATOM      9   O  Z9H D   1      71.858  36.849  99.4000  0.00  0.00     0.000 O
ATOM     10   C  Z9H D   1      72.345  38.168  99.1330  0.00  0.00     0.000 C
ENDROOT
BRANCH 2 11
ATOM     11   O  Z9H D   1      72.815  33.123  96.7120  0.00  0.00     0.000 O
ATOM     12   O  Z9H D   1      73.405  32.129  95.2220  0.00  0.00     0.000 OA
ATOM     13   S  Z9H D   1      72.523  33.245  95.1560  0.00  0.00     0.000 S
ATOM     14   O  Z9H D   1      73.142  34.446  94.6720  0.00  0.00     0.000 OA
ATOM     15   O  Z9H D   1      71.184  32.810  94.8280  0.00  0.00     0.000 O
ENDBRANCH 2 11
BRANCH 5 16
ATOM     16   C  Z9H D   1      68.674  36.859  98.8890  0.00  0.00     0.000 C
ATOM     17   S  Z9H D   1      67.092  37.477  99.9640  0.00  0.00     0.000 S
ATOM     18   O  Z9H D   1      68.538  36.837 100.2900  0.00  0.00     0.000 O
ATOM     19   O  Z9H D   1      66.176  36.592  99.3030  0.00  0.00     0.000 O
ATOM     20   O  Z9H D   1      67.228  38.851  99.6270  0.00  0.00     0.000 OA
ATOM     21   O  Z9H D   1      66.991  37.385 101.3910  0.00  0.00     0.000 OA
ENDBRANCH 5 16
BRANCH 1 22
ATOM     22  O4  GU1 D   2      71.000  32.867  98.6140  0.00  0.00     0.000 O
BRANCH 22 26
ATOM     23  C1  GU1 D   2      69.941  29.649 100.9580  0.00  0.00     0.000 C
ATOM     24  C2  GU1 D   2      69.753  29.441  99.4630  0.00  0.00     0.000 C
ATOM     25  C3  GU1 D   2      70.513  30.497  98.7140  0.00  0.00     0.000 C
ATOM     26  C4  GU1 D   2      70.136  31.888  99.2020  0.00  0.00     0.000 C
ATOM     27  C5  GU1 D   2      70.260  31.961 100.7270  0.00  0.00     0.000 C
ATOM     28  O5  GU1 D   2      69.478  30.939 101.3400  0.00  0.00     0.000 O
ATOM     29   O  GU1 D   2      70.227  28.168  99.0390  0.00  0.00     0.000 O
ATOM     30   C  GU1 D   2      69.210  27.181  98.9410  0.00  0.00     0.000 C
ATOM     31   C  GU1 D   2      71.170  29.756  96.5200  0.00  0.00     0.000 C
ATOM     32   O  GU1 D   2      70.182  30.394  97.3260  0.00  0.00     0.000 O
BRANCH 27 33
ATOM     33   C  GU1 D   2      69.776  33.291 101.2520  0.00  0.00     0.000 C
ATOM     34   O  GU1 D   2      68.589  33.537 101.1970  0.00  0.00     0.000 OA
ATOM     35   O  GU1 D   2      70.565  34.096 101.7240  0.00  0.00     0.000 O
ENDBRANCH 27 33
BRANCH 23 36
ATOM     36  O4  GU6 D   3      69.123  28.923 101.8960  0.00  0.00     0.000 O
BRANCH 36 40
ATOM     37  C1  GU6 D   3      66.209  27.818 104.5380  0.00  0.00     0.000 C
ATOM     38  C2  GU6 D   3      67.529  27.079 104.7280  0.00  0.00     0.000 C
ATOM     39  C3  GU6 D   3      68.600  27.741 103.9010  0.00  0.00     0.000 C
ATOM     40  C4  GU6 D   3      68.183  28.767 102.9400  0.00  0.00     0.000 C
ATOM     41  C5  GU6 D   3      66.827  28.347 102.2820  0.00  0.00     0.000 C
ATOM     42  O5  GU6 D   3      65.858  27.771 103.1640  0.00  0.00     0.000 O
BRANCH 38 43
ATOM     43   O  GU6 D   3      67.905  27.073 106.0910  0.00  0.00     0.000 O
ATOM     44   S  GU6 D   3      68.158  25.687 106.6680  0.00  0.00     0.000 S
ATOM     45   O  GU6 D   3      66.863  25.086 107.0300  0.00  0.00     0.000 OA
ATOM     46   O  GU6 D   3      68.811  24.860 105.6370  0.00  0.00     0.000 O
ATOM     47   O  GU6 D   3      69.030  25.814 107.8320  0.00  0.00     0.000 OA
ENDBRANCH 38 43
BRANCH 39 48
ATOM     48   O  GU6 D   3      69.970  27.552 104.2020  0.00  0.00     0.000 O
ATOM     49   S  GU6 D   3      70.932  28.439 104.9910  0.00  0.00     0.000 S
ATOM     50   O  GU6 D   3      70.389  28.711 106.3270  0.00  0.00     0.000 OA
ATOM     51   O  GU6 D   3      72.150  27.622 105.0690  0.00  0.00     0.000 OA
ATOM     52   O  GU6 D   3      71.127  29.708 104.2550  0.00  0.00     0.000 O
ENDBRANCH 39 48
BRANCH 41 53
ATOM     53   C  GU6 D   3      66.390  28.478 100.8480  0.00  0.00     0.000 C
ATOM     54   O  GU6 D   3      66.362  29.880 100.7840  0.00  0.00     0.000 O
ATOM     55   S  GU6 D   3      65.854  30.591  99.5230  0.00  0.00     0.000 S
ATOM     56   O  GU6 D   3      64.411  30.278  99.4080  0.00  0.00     0.000 O
ATOM     57   O  GU6 D   3      66.061  32.038  99.6860  0.00  0.00     0.000 OA
ATOM     58   O  GU6 D   3      66.611  30.044  98.3750  0.00  0.00     0.000 OA
ENDBRANCH 41 53
BRANCH 37 59
ATOM     59  O4  Z9K D   4      65.934  29.154 105.0070  0.00  0.00     0.000 O
BRANCH 59 63
ATOM     60  C1  Z9K D   4      64.975  31.967 107.5790  0.00  0.00     0.000 C
ATOM     61  C2  Z9K D   4      64.599  30.689 108.3770  0.00  0.00     0.000 C
ATOM     62  C3  Z9K D   4      65.158  29.555 107.4120  0.00  0.00     0.000 C
ATOM     63  C4  Z9K D   4      64.866  29.652 105.8660  0.00  0.00     0.000 C
ATOM     64  C5  Z9K D   4      64.629  31.064 105.3110  0.00  0.00     0.000 C
ATOM     65  O5  Z9K D   4      65.468  31.890 106.1600  0.00  0.00     0.000 O
ATOM     66   O  Z9K D   4      64.737  28.231 107.7860  0.00  0.00     0.000 O
ATOM     67   C  Z9K D   4      65.555  27.610 108.7630  0.00  0.00     0.000 C
BRANCH 61 68
ATOM     68   O  Z9K D   4      65.409  30.665 109.5210  0.00  0.00     0.000 O
ATOM     69   O  Z9K D   4      63.110  29.646 109.9930  0.00  0.00     0.000 OA
ATOM     70   S  Z9K D   4      63.928  30.809 110.1620  0.00  0.00     0.000 S
ATOM     71   O  Z9K D   4      63.492  32.165 110.0280  0.00  0.00     0.000 OA
ATOM     72   O  Z9K D   4      64.754  30.687 111.3200  0.00  0.00     0.000 OA
ENDBRANCH 61 68
BRANCH 64 73
ATOM     73   C  Z9K D   4      64.855  31.099 103.7840  0.00  0.00     0.000 C
ATOM     74   O  Z9K D   4      64.035  30.558 102.9870  0.00  0.00     0.000 O
ATOM     75   O  Z9K D   4      65.852  31.669 103.2770  0.00  0.00     0.000 OA
ENDBRANCH 64 73
BRANCH 60 76
ATOM     76  O4  Z9L D   5      64.185  33.149 107.3600  0.00  0.00     0.000 O
BRANCH 76 80
ATOM     77  C1  Z9L D   5      64.294  37.140 107.1910  0.00  0.00     0.000 C
ATOM     78  C2  Z9L D   5      63.917  36.618 105.7220  0.00  0.00     0.000 C
ATOM     79  C3  Z9L D   5      63.424  35.009 105.8910  0.00  0.00     0.000 C
ATOM     80  C4  Z9L D   5      64.547  34.445 106.9570  0.00  0.00     0.000 C
ATOM     81  C5  Z9L D   5      65.107  35.076 108.3300  0.00  0.00     0.000 C
ATOM     82  O5  Z9L D   5      65.276  36.481 108.0900  0.00  0.00     0.000 O
ATOM     83   C  Z9L D   5      63.250  37.853 109.2630  0.00  0.00     0.000 C
ATOM     84   C  Z9L D   5      63.250  37.853 109.2630  0.00  0.00     0.000 C
BRANCH 78 85
ATOM     85   O  Z9L D   5      62.847  37.377 105.2560  0.00  0.00     0.000 O
ATOM     86   O  Z9L D   5      62.937  38.647 103.8110  0.00  0.00     0.000 OA
ATOM     87   S  Z9L D   5      64.000  37.776 104.2100  0.00  0.00     0.000 S
ATOM     88   O  Z9L D   5      64.146  36.841 103.1220  0.00  0.00     0.000 OA
ATOM     89   O  Z9L D   5      65.025  38.634 104.6950  0.00  0.00     0.000 OA
ENDBRANCH 78 85
BRANCH 79 90
ATOM     90   O  Z9L D   5      63.699  34.272 104.7430  0.00  0.00     0.000 O
ATOM     91   S  Z9L D   5      62.124  34.053 104.8290  0.00  0.00     0.000 S
ATOM     92   O  Z9L D   5      61.195  35.151 104.8700  0.00  0.00     0.000 OA
ATOM     93   O  Z9L D   5      61.851  32.824 105.5320  0.00  0.00     0.000 O
ATOM     94   O  Z9L D   5      62.324  33.718 103.4570  0.00  0.00     0.000 OA
ENDBRANCH 79 90
BRANCH 81 95
ATOM     95   C  Z9L D   5      66.336  34.246 109.1130  0.00  0.00     0.000 C
ATOM     96   S  Z9L D   5      68.308  34.116 109.3630  0.00  0.00     0.000 S
ATOM     97   O  Z9L D   5      67.346  34.450 108.1620  0.00  0.00     0.000 O
ATOM     98   O  Z9L D   5      68.191  32.701 109.6070  0.00  0.00     0.000 OA
ATOM     99   O  Z9L D   5      68.311  35.054 110.4340  0.00  0.00     0.000 OA
ATOM    100   O  Z9L D   5      69.302  34.320 108.3380  0.00  0.00     0.000 O
ENDBRANCH 81 95
ENDBRANCH 76 80
ENDBRANCH 60 76
ENDBRANCH 59 63
ENDBRANCH 37 59
ENDBRANCH 36 40
ENDBRANCH 23 36
ENDBRANCH 22 26
ENDBRANCH 1 22
TORSDOF 19
ENDMDL
MODEL 61
REMARK VINA RESULT:       0.0     54.030     61.423
ROOT
ATOM      1  C1  Z9H D   1      29.379  31.746 121.6220  0.00  0.00     0.000 C
ATOM      2  C2  Z9H D   1      29.938  30.622 122.5270  0.00  0.00     0.000 C
ATOM      3  C3  Z9H D   1      29.045  29.454 122.0070  0.00  0.00     0.000 C
ATOM      4  C4  Z9H D   1      27.490  29.757 121.9600  0.00  0.00     0.000 C
ATOM      5  C5  Z9H D   1      26.886  31.079 121.3410  0.00  0.00     0.000 C
ATOM      6  O5  Z9H D   1      27.952  32.028 121.5940  0.00  0.00     0.000 O
ATOM      7   O  Z9H D   1      29.293  28.242 122.7230  0.00  0.00     0.000 O
ATOM      8   C  Z9H D   1      30.179  27.315 122.0750  0.00  0.00     0.000 C
ATOM      9   O  Z9H D   1      26.900  28.655 121.2610  0.00  0.00     0.000 O
ATOM     10   C  Z9H D   1      26.306  27.648 122.0850  0.00  0.00     0.000 C
ENDROOT
BRANCH 2 11
ATOM     11   O  Z9H D   1      31.202  30.394 121.9630  0.00  0.00     0.000 O
ATOM     12   O  Z9H D   1      32.834  30.766 122.8340  0.00  0.00     0.000 OA
ATOM     13   S  Z9H D   1      31.545  30.947 123.4120  0.00  0.00     0.000 S
ATOM     14   O  Z9H D   1      31.194  29.941 124.3740  0.00  0.00     0.000 OA
ATOM     15   O  Z9H D   1      31.240  32.354 123.5330  0.00  0.00     0.000 O
ENDBRANCH 2 11
BRANCH 5 16
ATOM     16   C  Z9H D   1      25.305  31.409 121.7800  0.00  0.00     0.000 C
ATOM     17   S  Z9H D   1      23.553  32.150 121.1280  0.00  0.00     0.000 S
ATOM     18   O  Z9H D   1      24.709  31.199 120.5220  0.00  0.00     0.000 O
ATOM     19   O  Z9H D   1      23.944  33.515 121.3360  0.00  0.00     0.000 O
ATOM     20   O  Z9H D   1      22.749  31.421 122.0460  0.00  0.00     0.000 OA
ATOM     21   O  Z9H D   1      23.019  31.939 119.8150  0.00  0.00     0.000 OA
ENDBRANCH 5 16
BRANCH 1 22
ATOM     22  O4  GU1 D   2      29.646  31.572 120.1840  0.00  0.00     0.000 O
BRANCH 22 26
ATOM     23  C1  GU1 D   2      30.521  33.520 116.6600  0.00  0.00     0.000 C
ATOM     24  C2  GU1 D   2      31.140  34.139 117.9040  0.00  0.00     0.000 C
ATOM     25  C3  GU1 D   2      31.076  33.153 119.0350  0.00  0.00     0.000 C
ATOM     26  C4  GU1 D   2      29.656  32.644 119.2330  0.00  0.00     0.000 C
ATOM     27  C5  GU1 D   2      29.089  32.140 117.9020  0.00  0.00     0.000 C
ATOM     28  O5  GU1 D   2      29.167  33.159 116.9090  0.00  0.00     0.000 O
ATOM     29   O  GU1 D   2      32.503  34.494 117.7000  0.00  0.00     0.000 O
ATOM     30   C  GU1 D   2      32.697  35.859 117.3610  0.00  0.00     0.000 C
ATOM     31   C  GU1 D   2      32.828  33.510 120.6460  0.00  0.00     0.000 C
ATOM     32   O  GU1 D   2      31.497  33.812 120.2330  0.00  0.00     0.000 O
BRANCH 27 33
ATOM     33   C  GU1 D   2      27.640  31.740 118.0420  0.00  0.00     0.000 C
ATOM     34   O  GU1 D   2      26.815  32.612 118.2240  0.00  0.00     0.000 OA
ATOM     35   O  GU1 D   2      27.310  30.567 117.9690  0.00  0.00     0.000 O
ENDBRANCH 27 33
BRANCH 23 36
ATOM     36  O4  GU6 D   3      30.237  34.342 115.5110  0.00  0.00     0.000 O
BRANCH 36 40
ATOM     37  C1  GU6 D   3      28.406  36.683 112.7070  0.00  0.00     0.000 C
ATOM     38  C2  GU6 D   3      29.616  35.919 112.1810  0.00  0.00     0.000 C
ATOM     39  C3  GU6 D   3      30.046  34.894 113.1970  0.00  0.00     0.000 C
ATOM     40  C4  GU6 D   3      29.426  34.949 114.5260  0.00  0.00     0.000 C
ATOM     41  C5  GU6 D   3      29.227  36.442 114.9480  0.00  0.00     0.000 C
ATOM     42  O5  GU6 D   3      28.769  37.326 113.9180  0.00  0.00     0.000 O
BRANCH 38 43
ATOM     43   O  GU6 D   3      29.309  35.285 110.9550  0.00  0.00     0.000 O
ATOM     44   S  GU6 D   3      30.250  35.640 109.8100  0.00  0.00     0.000 S
ATOM     45   O  GU6 D   3      29.827  36.930 109.2400  0.00  0.00     0.000 OA
ATOM     46   O  GU6 D   3      31.617  35.765 110.3460  0.00  0.00     0.000 O
ATOM     47   O  GU6 D   3      30.199  34.575 108.8130  0.00  0.00     0.000 OA
ENDBRANCH 38 43
BRANCH 39 48
ATOM     48   O  GU6 D   3      30.837  33.784 112.8190  0.00  0.00     0.000 O
ATOM     49   S  GU6 D   3      30.423  32.348 112.4980  0.00  0.00     0.000 S
ATOM     50   O  GU6 D   3      29.408  32.340 111.4380  0.00  0.00     0.000 OA
ATOM     51   O  GU6 D   3      31.676  31.735 112.0370  0.00  0.00     0.000 OA
ATOM     52   O  GU6 D   3      29.881  31.720 113.7230  0.00  0.00     0.000 O
ENDBRANCH 39 48
BRANCH 41 53
ATOM     53   C  GU6 D   3      29.434  37.082 116.2940  0.00  0.00     0.000 C
ATOM     54   O  GU6 D   3      28.413  36.409 116.9840  0.00  0.00     0.000 O
ATOM     55   S  GU6 D   3      28.087  36.770 118.4400  0.00  0.00     0.000 S
ATOM     56   O  GU6 D   3      27.553  38.152 118.4270  0.00  0.00     0.000 O
ATOM     57   O  GU6 D   3      27.078  35.827 118.9430  0.00  0.00     0.000 OA
ATOM     58   O  GU6 D   3      29.353  36.696 119.2040  0.00  0.00     0.000 OA
ENDBRANCH 41 53
BRANCH 37 59
ATOM     59  O4  Z9K D   4      27.091  36.121 112.8960  0.00  0.00     0.000 O
BRANCH 59 63
ATOM     60  C1  Z9K D   4      23.503  34.874 111.8860  0.00  0.00     0.000 C
ATOM     61  C2  Z9K D   4      23.927  35.642 110.6040  0.00  0.00     0.000 C
ATOM     62  C3  Z9K D   4      25.442  35.985 110.9450  0.00  0.00     0.000 C
ATOM     63  C4  Z9K D   4      25.799  36.548 112.3730  0.00  0.00     0.000 C
ATOM     64  C5  Z9K D   4      24.840  36.161 113.5100  0.00  0.00     0.000 C
ATOM     65  O5  Z9K D   4      24.379  34.844 113.1080  0.00  0.00     0.000 O
ATOM     66   O  Z9K D   4      26.036  36.916 110.0220  0.00  0.00     0.000 O
ATOM     67   C  Z9K D   4      26.577  36.319 108.8550  0.00  0.00     0.000 C
BRANCH 61 68
ATOM     68   O  Z9K D   4      23.960  34.710 109.5580  0.00  0.00     0.000 O
ATOM     69   O  Z9K D   4      23.240  37.018 108.7190  0.00  0.00     0.000 OA
ATOM     70   S  Z9K D   4      22.780  35.711 109.0780  0.00  0.00     0.000 S
ATOM     71   O  Z9K D   4      21.590  35.417 109.8160  0.00  0.00     0.000 OA
ATOM     72   O  Z9K D   4      22.889  34.812 107.9740  0.00  0.00     0.000 OA
ENDBRANCH 61 68
BRANCH 64 73
ATOM     73   C  Z9K D   4      25.525  36.321 114.8840  0.00  0.00     0.000 C
ATOM     74   O  Z9K D   4      25.768  37.465 115.3660  0.00  0.00     0.000 O
ATOM     75   O  Z9K D   4      25.858  35.328 115.5760  0.00  0.00     0.000 OA
ENDBRANCH 64 73
BRANCH 60 76
ATOM     76  O4  Z9L D   5      22.276  34.981 112.6290  0.00  0.00     0.000 O
BRANCH 76 80
ATOM     77  C1  Z9L D   5      19.469  32.908 114.5760  0.00  0.00     0.000 C
ATOM     78  C2  Z9L D   5      20.203  33.836 115.6580  0.00  0.00     0.000 C
ATOM     79  C3  Z9L D   5      21.045  35.020 114.7920  0.00  0.00     0.000 C
ATOM     80  C4  Z9L D   5      21.681  34.121 113.5660  0.00  0.00     0.000 C
ATOM     81  C5  Z9L D   5      21.005  33.009 112.6140  0.00  0.00     0.000 C
ATOM     82  O5  Z9L D   5      20.159  32.214 113.4590  0.00  0.00     0.000 O
ATOM     83   C  Z9L D   5      17.568  32.916 113.0660  0.00  0.00     0.000 C
ATOM     84   C  Z9L D   5      17.568  32.916 113.0660  0.00  0.00     0.000 C
BRANCH 78 85
ATOM     85   O  Z9L D   5      19.224  34.449 116.4350  0.00  0.00     0.000 O
ATOM     86   O  Z9L D   5      18.894  34.076 118.2960  0.00  0.00     0.000 OA
ATOM     87   S  Z9L D   5      19.977  33.542 117.5270  0.00  0.00     0.000 S
ATOM     88   O  Z9L D   5      21.162  34.154 118.0750  0.00  0.00     0.000 OA
ATOM     89   O  Z9L D   5      19.735  32.141 117.4630  0.00  0.00     0.000 OA
ENDBRANCH 78 85
BRANCH 79 90
ATOM     90   O  Z9L D   5      22.180  35.440 115.4790  0.00  0.00     0.000 O
ATOM     91   S  Z9L D   5      21.425  36.835 115.3320  0.00  0.00     0.000 S
ATOM     92   O  Z9L D   5      20.082  37.038 115.8080  0.00  0.00     0.000 OA
ATOM     93   O  Z9L D   5      21.906  37.516 114.1560  0.00  0.00     0.000 O
ATOM     94   O  Z9L D   5      22.308  37.168 116.4030  0.00  0.00     0.000 OA
ENDBRANCH 79 90
BRANCH 81 95
ATOM     95   C  Z9L D   5      22.004  32.225 111.5190  0.00  0.00     0.000 C
ATOM     96   S  Z9L D   5      23.110  30.598 111.2010  0.00  0.00     0.000 S
ATOM     97   O  Z9L D   5      22.785  31.513 112.4410  0.00  0.00     0.000 O
ATOM     98   O  Z9L D   5      23.990  31.355 110.3480  0.00  0.00     0.000 OA
ATOM     99   O  Z9L D   5      22.012  29.864 110.6680  0.00  0.00     0.000 OA
ATOM    100   O  Z9L D   5      23.908  29.917 112.1900  0.00  0.00     0.000 O
ENDBRANCH 81 95
ENDBRANCH 76 80
ENDBRANCH 60 76
ENDBRANCH 59 63
ENDBRANCH 37 59
ENDBRANCH 36 40
ENDBRANCH 23 36
ENDBRANCH 22 26
ENDBRANCH 1 22
TORSDOF 19
ENDMDL
MODEL 62
REMARK VINA RESULT:       0.0     22.790     30.534
ROOT
ATOM      1  C1  Z9H D   1      25.323  40.095  48.5440  0.00  0.00     0.000 C
ATOM      2  C2  Z9H D   1      25.188  40.462  50.0410  0.00  0.00     0.000 C
ATOM      3  C3  Z9H D   1      23.942  41.394  49.9300  0.00  0.00     0.000 C
ATOM      4  C4  Z9H D   1      24.037  42.526  48.8250  0.00  0.00     0.000 C
ATOM      5  C5  Z9H D   1      24.511  42.249  47.3430  0.00  0.00     0.000 C
ATOM      6  O5  Z9H D   1      25.424  41.139  47.5360  0.00  0.00     0.000 O
ATOM      7   O  Z9H D   1      23.595  41.962  51.1950  0.00  0.00     0.000 O
ATOM      8   C  Z9H D   1      22.531  41.298  51.8970  0.00  0.00     0.000 C
ATOM      9   O  Z9H D   1      22.731  43.105  48.7500  0.00  0.00     0.000 O
ATOM     10   C  Z9H D   1      22.557  44.332  49.4660  0.00  0.00     0.000 C
ENDROOT
BRANCH 2 11
ATOM     11   O  Z9H D   1      24.702  39.266  50.5930  0.00  0.00     0.000 O
ATOM     12   O  Z9H D   1      25.668  38.187  51.8010  0.00  0.00     0.000 OA
ATOM     13   S  Z9H D   1      26.130  39.426  51.2710  0.00  0.00     0.000 S
ATOM     14   O  Z9H D   1      26.067  40.515  52.2040  0.00  0.00     0.000 OA
ATOM     15   O  Z9H D   1      27.198  39.203  50.3250  0.00  0.00     0.000 O
ENDBRANCH 2 11
BRANCH 5 16
ATOM     16   C  Z9H D   1      24.964  43.608  46.4780  0.00  0.00     0.000 C
ATOM     17   S  Z9H D   1      24.936  44.468  44.6610  0.00  0.00     0.000 S
ATOM     18   O  Z9H D   1      23.900  43.612  45.5570  0.00  0.00     0.000 O
ATOM     19   O  Z9H D   1      26.075  43.733  44.1910  0.00  0.00     0.000 O
ATOM     20   O  Z9H D   1      25.014  45.803  45.1430  0.00  0.00     0.000 OA
ATOM     21   O  Z9H D   1      23.837  44.397  43.7440  0.00  0.00     0.000 OA
ENDBRANCH 5 16
BRANCH 1 22
ATOM     22  O4  GU1 D   2      24.207  39.302  47.9980  0.00  0.00     0.000 O
BRANCH 22 26
ATOM     23  C1  GU1 D   2      23.176  36.296  45.3770  0.00  0.00     0.000 C
ATOM     24  C2  GU1 D   2      24.522  36.114  46.0620  0.00  0.00     0.000 C
ATOM     25  C3  GU1 D   2      24.609  37.037  47.2430  0.00  0.00     0.000 C
ATOM     26  C4  GU1 D   2      24.305  38.471  46.8360  0.00  0.00     0.000 C
ATOM     27  C5  GU1 D   2      22.983  38.529  46.0650  0.00  0.00     0.000 C
ATOM     28  O5  GU1 D   2      23.017  37.643  44.9490  0.00  0.00     0.000 O
ATOM     29   O  GU1 D   2      24.708  34.782  46.5240  0.00  0.00     0.000 O
ATOM     30   C  GU1 D   2      25.454  33.963  45.6340  0.00  0.00     0.000 C
ATOM     31   C  GU1 D   2      26.090  36.195  48.9430  0.00  0.00     0.000 C
ATOM     32   O  GU1 D   2      25.940  36.981  47.7630  0.00  0.00     0.000 O
BRANCH 27 33
ATOM     33   C  GU1 D   2      22.714  39.921  45.5430  0.00  0.00     0.000 C
ATOM     34   O  GU1 D   2      23.416  40.348  44.6500  0.00  0.00     0.000 OA
ATOM     35   O  GU1 D   2      21.809  40.595  46.0100  0.00  0.00     0.000 O
ENDBRANCH 27 33
BRANCH 23 36
ATOM     36  O4  GU6 D   3      22.940  35.709  44.0820  0.00  0.00     0.000 O
BRANCH 36 40
ATOM     37  C1  GU6 D   3      22.540  35.079  40.0650  0.00  0.00     0.000 C
ATOM     38  C2  GU6 D   3      21.697  34.145  40.9250  0.00  0.00     0.000 C
ATOM     39  C3  GU6 D   3      21.703  34.629  42.3510  0.00  0.00     0.000 C
ATOM     40  C4  GU6 D   3      22.637  35.705  42.7020  0.00  0.00     0.000 C
ATOM     41  C5  GU6 D   3      23.984  35.498  41.9340  0.00  0.00     0.000 C
ATOM     42  O5  GU6 D   3      23.867  35.082  40.5690  0.00  0.00     0.000 O
BRANCH 38 43
ATOM     43   O  GU6 D   3      20.369  34.086  40.4400  0.00  0.00     0.000 O
ATOM     44   S  GU6 D   3      19.874  32.679  40.1330  0.00  0.00     0.000 S
ATOM     45   O  GU6 D   3      20.369  32.288  38.8030  0.00  0.00     0.000 OA
ATOM     46   O  GU6 D   3      20.415  31.757  41.1480  0.00  0.00     0.000 O
ATOM     47   O  GU6 D   3      18.415  32.673  40.1810  0.00  0.00     0.000 OA
ENDBRANCH 38 43
BRANCH 39 48
ATOM     48   O  GU6 D   3      20.692  34.231  43.2580  0.00  0.00     0.000 O
ATOM     49   S  GU6 D   3      19.422  34.961  43.6930  0.00  0.00     0.000 S
ATOM     50   O  GU6 D   3      18.617  35.319  42.5190  0.00  0.00     0.000 OA
ATOM     51   O  GU6 D   3      18.734  33.965  44.5250  0.00  0.00     0.000 OA
ATOM     52   O  GU6 D   3      19.802  36.182  44.4380  0.00  0.00     0.000 O
ENDBRANCH 39 48
BRANCH 41 53
ATOM     53   C  GU6 D   3      25.394  35.689  42.4250  0.00  0.00     0.000 C
ATOM     54   O  GU6 D   3      25.340  37.079  42.6210  0.00  0.00     0.000 O
ATOM     55   S  GU6 D   3      26.598  37.856  43.0310  0.00  0.00     0.000 S
ATOM     56   O  GU6 D   3      27.543  37.770  41.8930  0.00  0.00     0.000 O
ATOM     57   O  GU6 D   3      26.222  39.253  43.2900  0.00  0.00     0.000 OA
ATOM     58   O  GU6 D   3      27.152  37.193  44.2330  0.00  0.00     0.000 OA
ENDBRANCH 41 53
BRANCH 37 59
ATOM     59  O4  Z9K D   4      22.199  36.444  39.7450  0.00  0.00     0.000 O
BRANCH 59 63
ATOM     60  C1  Z9K D   4      20.402  39.381  37.8500  0.00  0.00     0.000 C
ATOM     61  C2  Z9K D   4      20.075  38.179  36.9210  0.00  0.00     0.000 C
ATOM     62  C3  Z9K D   4      20.643  36.969  37.7830  0.00  0.00     0.000 C
ATOM     63  C4  Z9K D   4      22.064  37.104  38.4520  0.00  0.00     0.000 C
ATOM     64  C5  Z9K D   4      22.530  38.534  38.7630  0.00  0.00     0.000 C
ATOM     65  O5  Z9K D   4      21.286  39.222  39.0560  0.00  0.00     0.000 O
ATOM     66   O  Z9K D   4      20.693  35.728  37.0570  0.00  0.00     0.000 O
ATOM     67   C  Z9K D   4      19.482  34.990  37.0730  0.00  0.00     0.000 C
BRANCH 61 68
ATOM     68   O  Z9K D   4      18.681  38.034  36.9110  0.00  0.00     0.000 O
ATOM     69   O  Z9K D   4      19.696  37.386  34.6530  0.00  0.00     0.000 OA
ATOM     70   S  Z9K D   4      18.991  38.408  35.3650  0.00  0.00     0.000 S
ATOM     71   O  Z9K D   4      19.231  39.815  35.2650  0.00  0.00     0.000 OA
ATOM     72   O  Z9K D   4      17.584  38.164  35.3470  0.00  0.00     0.000 OA
ENDBRANCH 61 68
BRANCH 64 73
ATOM     73   C  Z9K D   4      23.644  38.528  39.8310  0.00  0.00     0.000 C
ATOM     74   O  Z9K D   4      24.810  38.117  39.5600  0.00  0.00     0.000 O
ATOM     75   O  Z9K D   4      23.441  38.935  41.0010  0.00  0.00     0.000 OA
ENDBRANCH 64 73
BRANCH 60 76
ATOM     76  O4  Z9L D   5      20.929  40.670  37.4920  0.00  0.00     0.000 O
BRANCH 76 80
ATOM     77  C1  Z9L D   5      20.658  44.595  38.1910  0.00  0.00     0.000 C
ATOM     78  C2  Z9L D   5      22.118  44.133  38.6670  0.00  0.00     0.000 C
ATOM     79  C3  Z9L D   5      22.401  42.620  37.9650  0.00  0.00     0.000 C
ATOM     80  C4  Z9L D   5      20.940  41.893  38.1830  0.00  0.00     0.000 C
ATOM     81  C5  Z9L D   5      19.443  42.434  37.9230  0.00  0.00     0.000 C
ATOM     82  O5  Z9L D   5      19.421  43.795  38.3790  0.00  0.00     0.000 O
ATOM     83   C  Z9L D   5      19.500  45.469  36.2440  0.00  0.00     0.000 C
ATOM     84   C  Z9L D   5      19.500  45.469  36.2440  0.00  0.00     0.000 C
BRANCH 78 85
ATOM     85   O  Z9L D   5      23.044  45.047  38.1710  0.00  0.00     0.000 O
ATOM     86   O  Z9L D   5      24.062  46.282  39.2410  0.00  0.00     0.000 OA
ATOM     87   S  Z9L D   5      23.205  45.258  39.7560  0.00  0.00     0.000 S
ATOM     88   O  Z9L D   5      24.091  44.308  40.3820  0.00  0.00     0.000 OA
ATOM     89   O  Z9L D   5      22.149  45.949  40.4130  0.00  0.00     0.000 OA
ENDBRANCH 78 85
BRANCH 79 90
ATOM     90   O  Z9L D   5      23.246  41.845  38.7550  0.00  0.00     0.000 O
ATOM     91   S  Z9L D   5      24.093  41.874  37.4070  0.00  0.00     0.000 S
ATOM     92   O  Z9L D   5      24.496  43.103  36.7750  0.00  0.00     0.000 OA
ATOM     93   O  Z9L D   5      23.782  40.705  36.6220  0.00  0.00     0.000 O
ATOM     94   O  Z9L D   5      25.129  41.507  38.3170  0.00  0.00     0.000 OA
ENDBRANCH 79 90
BRANCH 81 95
ATOM     95   C  Z9L D   5      18.174  41.426  38.3550  0.00  0.00     0.000 C
ATOM     96   S  Z9L D   5      16.857  40.992  39.7840  0.00  0.00     0.000 S
ATOM     97   O  Z9L D   5      18.358  41.467  39.7450  0.00  0.00     0.000 O
ATOM     98   O  Z9L D   5      16.847  39.613  39.3660  0.00  0.00     0.000 OA
ATOM     99   O  Z9L D   5      15.899  41.922  39.2890  0.00  0.00     0.000 OA
ATOM    100   O  Z9L D   5      17.109  41.036  41.2030  0.00  0.00     0.000 O
ENDBRANCH 81 95
ENDBRANCH 76 80
ENDBRANCH 60 76
ENDBRANCH 59 63
ENDBRANCH 37 59
ENDBRANCH 36 40
ENDBRANCH 23 36
ENDBRANCH 22 26
ENDBRANCH 1 22
TORSDOF 19
ENDMDL
MODEL 63
REMARK VINA RESULT:       0.0     85.709     92.596
ROOT
ATOM      1  C1  Z9H D   1      73.035  13.185 133.0120  0.00  0.00     0.000 C
ATOM      2  C2  Z9H D   1      73.213  11.984 132.0540  0.00  0.00     0.000 C
ATOM      3  C3  Z9H D   1      72.778  12.688 130.7320  0.00  0.00     0.000 C
ATOM      4  C4  Z9H D   1      71.402  13.471 130.8010  0.00  0.00     0.000 C
ATOM      5  C5  Z9H D   1      71.032  14.467 131.9710  0.00  0.00     0.000 C
ATOM      6  O5  Z9H D   1      71.765  13.891 133.0810  0.00  0.00     0.000 O
ATOM      7   O  Z9H D   1      72.779  11.781 129.6280  0.00  0.00     0.000 O
ATOM      8   C  Z9H D   1      73.947  11.830 128.7920  0.00  0.00     0.000 C
ATOM      9   O  Z9H D   1      71.311  14.205 129.5750  0.00  0.00     0.000 O
ATOM     10   C  Z9H D   1      70.500  13.610 128.5580  0.00  0.00     0.000 C
ENDROOT
BRANCH 2 11
ATOM     11   O  Z9H D   1      74.610  11.881 131.9700  0.00  0.00     0.000 O
ATOM     12   O  Z9H D   1      75.610  10.437 132.6570  0.00  0.00     0.000 OA
ATOM     13   S  Z9H D   1      74.189  10.530 132.6920  0.00  0.00     0.000 S
ATOM     14   O  Z9H D   1      73.528   9.693 131.7320  0.00  0.00     0.000 OA
ATOM     15   O  Z9H D   1      73.733  10.766 134.0430  0.00  0.00     0.000 O
ENDBRANCH 2 11
BRANCH 5 16
ATOM     16   C  Z9H D   1      69.405  14.837 132.0990  0.00  0.00     0.000 C
ATOM     17   S  Z9H D   1      68.094  16.303 132.5160  0.00  0.00     0.000 S
ATOM     18   O  Z9H D   1      69.481  16.184 131.6990  0.00  0.00     0.000 O
ATOM     19   O  Z9H D   1      68.216  16.137 133.9360  0.00  0.00     0.000 O
ATOM     20   O  Z9H D   1      67.028  15.751 131.7560  0.00  0.00     0.000 OA
ATOM     21   O  Z9H D   1      68.251  17.671 132.1210  0.00  0.00     0.000 OA
ENDBRANCH 5 16
BRANCH 1 22
ATOM     22  O4  GU1 D   2      73.954  14.311 132.7710  0.00  0.00     0.000 O
BRANCH 22 26
ATOM     23  C1  GU1 D   2      76.157  17.304 134.5480  0.00  0.00     0.000 C
ATOM     24  C2  GU1 D   2      76.068  16.014 135.3490  0.00  0.00     0.000 C
ATOM     25  C3  GU1 D   2      75.588  14.907 134.4560  0.00  0.00     0.000 C
ATOM     26  C4  GU1 D   2      74.295  15.296 133.7540  0.00  0.00     0.000 C
ATOM     27  C5  GU1 D   2      74.459  16.655 133.0680  0.00  0.00     0.000 C
ATOM     28  O5  GU1 D   2      74.885  17.639 134.0060  0.00  0.00     0.000 O
ATOM     29   O  GU1 D   2      77.328  15.635 135.8900  0.00  0.00     0.000 O
ATOM     30   C  GU1 D   2      77.519  16.037 137.2390  0.00  0.00     0.000 C
ATOM     31   C  GU1 D   2      76.353  12.749 135.2000  0.00  0.00     0.000 C
ATOM     32   O  GU1 D   2      75.340  13.751 135.2630  0.00  0.00     0.000 O
BRANCH 27 33
ATOM     33   C  GU1 D   2      73.157  17.124 132.4640  0.00  0.00     0.000 C
ATOM     34   O  GU1 D   2      72.248  17.422 133.2110  0.00  0.00     0.000 OA
ATOM     35   O  GU1 D   2      73.027  17.203 131.2520  0.00  0.00     0.000 O
ENDBRANCH 27 33
BRANCH 23 36
ATOM     36  O4  GU6 D   3      76.356  18.561 135.2250  0.00  0.00     0.000 O
BRANCH 36 40
ATOM     37  C1  GU6 D   3      75.800  22.178 137.0420  0.00  0.00     0.000 C
ATOM     38  C2  GU6 D   3      77.183  22.000 136.4290  0.00  0.00     0.000 C
ATOM     39  C3  GU6 D   3      77.196  20.769 135.5610  0.00  0.00     0.000 C
ATOM     40  C4  GU6 D   3      76.033  19.877 135.6260  0.00  0.00     0.000 C
ATOM     41  C5  GU6 D   3      75.518  19.797 137.1010  0.00  0.00     0.000 C
ATOM     42  O5  GU6 D   3      75.501  21.033 137.8250  0.00  0.00     0.000 O
BRANCH 38 43
ATOM     43   O  GU6 D   3      77.538  23.135 135.6630  0.00  0.00     0.000 O
ATOM     44   S  GU6 D   3      78.858  23.779 136.0660  0.00  0.00     0.000 S
ATOM     45   O  GU6 D   3      78.618  24.650 137.2300  0.00  0.00     0.000 OA
ATOM     46   O  GU6 D   3      79.807  22.715 136.4380  0.00  0.00     0.000 O
ATOM     47   O  GU6 D   3      79.376  24.538 134.9320  0.00  0.00     0.000 OA
ENDBRANCH 38 43
BRANCH 39 48
ATOM     48   O  GU6 D   3      78.177  20.599 134.5550  0.00  0.00     0.000 O
ATOM     49   S  GU6 D   3      78.098  20.872 133.0540  0.00  0.00     0.000 S
ATOM     50   O  GU6 D   3      77.690  22.261 132.8130  0.00  0.00     0.000 OA
ATOM     51   O  GU6 D   3      79.476  20.637 132.6010  0.00  0.00     0.000 OA
ATOM     52   O  GU6 D   3      77.118  19.944 132.4480  0.00  0.00     0.000 O
ENDBRANCH 39 48
BRANCH 41 53
ATOM     53   C  GU6 D   3      75.020  18.601 137.8670  0.00  0.00     0.000 C
ATOM     54   O  GU6 D   3      73.869  18.351 137.1030  0.00  0.00     0.000 O
ATOM     55   S  GU6 D   3      72.878  17.256 137.5220  0.00  0.00     0.000 S
ATOM     56   O  GU6 D   3      72.274  17.695 138.8020  0.00  0.00     0.000 O
ATOM     57   O  GU6 D   3      71.851  17.129 136.4790  0.00  0.00     0.000 OA
ATOM     58   O  GU6 D   3      73.653  16.008 137.7000  0.00  0.00     0.000 OA
ENDBRANCH 41 53
BRANCH 37 59
ATOM     59  O4  Z9K D   4      74.606  22.520 136.3070  0.00  0.00     0.000 O
BRANCH 59 63
ATOM     60  C1  Z9K D   4      72.018  24.835 134.4670  0.00  0.00     0.000 C
ATOM     61  C2  Z9K D   4      72.907  25.888 135.1840  0.00  0.00     0.000 C
ATOM     62  C3  Z9K D   4      74.056  24.961 135.7730  0.00  0.00     0.000 C
ATOM     63  C4  Z9K D   4      73.664  23.616 136.4950  0.00  0.00     0.000 C
ATOM     64  C5  Z9K D   4      72.332  22.982 136.0630  0.00  0.00     0.000 C
ATOM     65  O5  Z9K D   4      72.234  23.360 134.6650  0.00  0.00     0.000 O
ATOM     66   O  Z9K D   4      74.916  25.643 136.7050  0.00  0.00     0.000 O
ATOM     67   C  Z9K D   4      75.986  26.353 136.1030  0.00  0.00     0.000 C
BRANCH 61 68
ATOM     68   O  Z9K D   4      73.504  26.670 134.1870  0.00  0.00     0.000 O
ATOM     69   O  Z9K D   4      73.018  28.056 136.2820  0.00  0.00     0.000 OA
ATOM     70   S  Z9K D   4      72.578  27.756 134.9530  0.00  0.00     0.000 S
ATOM     71   O  Z9K D   4      71.219  27.582 134.5420  0.00  0.00     0.000 OA
ATOM     72   O  Z9K D   4      73.265  28.560 133.9950  0.00  0.00     0.000 OA
ENDBRANCH 61 68
BRANCH 64 73
ATOM     73   C  Z9K D   4      72.292  21.484 136.4310  0.00  0.00     0.000 C
ATOM     74   O  Z9K D   4      72.169  21.108 137.6330  0.00  0.00     0.000 O
ATOM     75   O  Z9K D   4      72.372  20.586 135.5580  0.00  0.00     0.000 OA
ENDBRANCH 64 73
BRANCH 60 76
ATOM     76  O4  Z9L D   5      70.583  24.738 134.4500  0.00  0.00     0.000 O
BRANCH 76 80
ATOM     77  C1  Z9L D   5      67.411  24.002 132.1330  0.00  0.00     0.000 C
ATOM     78  C2  Z9L D   5      67.465  22.841 133.2380  0.00  0.00     0.000 C
ATOM     79  C3  Z9L D   5      68.493  23.387 134.4660  0.00  0.00     0.000 C
ATOM     80  C4  Z9L D   5      69.709  24.063 133.5840  0.00  0.00     0.000 C
ATOM     81  C5  Z9L D   5      69.663  25.057 132.3150  0.00  0.00     0.000 C
ATOM     82  O5  Z9L D   5      68.605  24.585 131.4690  0.00  0.00     0.000 O
ATOM     83   C  Z9L D   5      66.435  26.191 131.7470  0.00  0.00     0.000 C
ATOM     84   C  Z9L D   5      66.435  26.191 131.7470  0.00  0.00     0.000 C
BRANCH 78 85
ATOM     85   O  Z9L D   5      66.184  22.677 133.7550  0.00  0.00     0.000 O
ATOM     86   O  Z9L D   5      65.065  21.134 133.4720  0.00  0.00     0.000 OA
ATOM     87   S  Z9L D   5      66.427  21.254 133.0490  0.00  0.00     0.000 S
ATOM     88   O  Z9L D   5      67.157  20.316 133.8660  0.00  0.00     0.000 OA
ATOM     89   O  Z9L D   5      66.381  21.237 131.6270  0.00  0.00     0.000 OA
ENDBRANCH 78 85
BRANCH 79 90
ATOM     90   O  Z9L D   5      69.133  22.326 135.1010  0.00  0.00     0.000 O
ATOM     91   S  Z9L D   5      68.396  22.980 136.3520  0.00  0.00     0.000 S
ATOM     92   O  Z9L D   5      66.973  23.189 136.3860  0.00  0.00     0.000 OA
ATOM     93   O  Z9L D   5      69.296  23.895 137.0110  0.00  0.00     0.000 O
ATOM     94   O  Z9L D   5      68.646  21.682 136.8900  0.00  0.00     0.000 OA
ENDBRANCH 79 90
BRANCH 81 95
ATOM     95   C  Z9L D   5      71.128  25.470 131.6090  0.00  0.00     0.000 C
ATOM     96   S  Z9L D   5      72.407  25.036 130.1450  0.00  0.00     0.000 S
ATOM     97   O  Z9L D   5      71.456  24.210 131.0900  0.00  0.00     0.000 O
ATOM     98   O  Z9L D   5      73.504  25.494 130.9590  0.00  0.00     0.000 OA
ATOM     99   O  Z9L D   5      71.759  25.903 129.2200  0.00  0.00     0.000 OA
ATOM    100   O  Z9L D   5      72.717  23.713 129.6640  0.00  0.00     0.000 O
ENDBRANCH 81 95
ENDBRANCH 76 80
ENDBRANCH 60 76
ENDBRANCH 59 63
ENDBRANCH 37 59
ENDBRANCH 36 40
ENDBRANCH 23 36
ENDBRANCH 22 26
ENDBRANCH 1 22
TORSDOF 19
ENDMDL
MODEL 64
REMARK VINA RESULT:       0.0     10.909     16.400
ROOT
ATOM      1  C1  Z9H D   1      32.161  57.114  50.6610  0.00  0.00     0.000 C
ATOM      2  C2  Z9H D   1      33.613  56.643  50.9140  0.00  0.00     0.000 C
ATOM      3  C3  Z9H D   1      33.683  55.538  49.8150  0.00  0.00     0.000 C
ATOM      4  C4  Z9H D   1      32.485  54.501  49.8180  0.00  0.00     0.000 C
ATOM      5  C5  Z9H D   1      30.967  54.934  49.9090  0.00  0.00     0.000 C
ATOM      6  O5  Z9H D   1      31.064  56.159  50.6790  0.00  0.00     0.000 O
ATOM      7   O  Z9H D   1      34.935  54.851  49.8390  0.00  0.00     0.000 O
ATOM      8   C  Z9H D   1      35.903  55.300  48.8750  0.00  0.00     0.000 C
ATOM      9   O  Z9H D   1      32.634  53.732  48.6200  0.00  0.00     0.000 O
ATOM     10   C  Z9H D   1      33.256  52.454  48.7810  0.00  0.00     0.000 C
ENDROOT
BRANCH 2 11
ATOM     11   O  Z9H D   1      34.361  57.716  50.4020  0.00  0.00     0.000 O
ATOM     12   O  Z9H D   1      35.431  58.859  51.4530  0.00  0.00     0.000 OA
ATOM     13   S  Z9H D   1      34.706  57.739  51.9520  0.00  0.00     0.000 S
ATOM     14   O  Z9H D   1      35.528  56.601  52.2490  0.00  0.00     0.000 OA
ATOM     15   O  Z9H D   1      33.580  58.180  52.7430  0.00  0.00     0.000 O
ENDBRANCH 2 11
BRANCH 5 16
ATOM     16   C  Z9H D   1      29.907  53.714  50.3420  0.00  0.00     0.000 C
ATOM     17   S  Z9H D   1      28.067  52.968  50.0310  0.00  0.00     0.000 S
ATOM     18   O  Z9H D   1      29.234  53.599  49.1110  0.00  0.00     0.000 O
ATOM     19   O  Z9H D   1      27.435  53.896  50.9240  0.00  0.00     0.000 O
ATOM     20   O  Z9H D   1      28.398  51.635  50.3980  0.00  0.00     0.000 OA
ATOM     21   O  Z9H D   1      27.413  52.920  48.7560  0.00  0.00     0.000 OA
ENDBRANCH 5 16
BRANCH 1 22
ATOM     22  O4  GU1 D   2      31.936  57.755  49.3540  0.00  0.00     0.000 O
BRANCH 22 26
ATOM     23  C1  GU1 D   2      29.875  60.714  47.3620  0.00  0.00     0.000 C
ATOM     24  C2  GU1 D   2      30.274  61.061  48.7890  0.00  0.00     0.000 C
ATOM     25  C3  GU1 D   2      31.322  60.096  49.2610  0.00  0.00     0.000 C
ATOM     26  C4  GU1 D   2      30.859  58.658  49.0760  0.00  0.00     0.000 C
ATOM     27  C5  GU1 D   2      30.382  58.441  47.6360  0.00  0.00     0.000 C
ATOM     28  O5  GU1 D   2      29.369  59.385  47.3000  0.00  0.00     0.000 O
ATOM     29   O  GU1 D   2      30.805  62.377  48.8870  0.00  0.00     0.000 O
ATOM     30   C  GU1 D   2      29.856  63.351  49.2960  0.00  0.00     0.000 C
ATOM     31   C  GU1 D   2      32.741  61.056  50.9510  0.00  0.00     0.000 C
ATOM     32   O  GU1 D   2      31.553  60.326  50.6540  0.00  0.00     0.000 O
BRANCH 27 33
ATOM     33   C  GU1 D   2      29.805  57.058  47.4540  0.00  0.00     0.000 C
ATOM     34   O  GU1 D   2      28.749  56.797  47.9920  0.00  0.00     0.000 OA
ATOM     35   O  GU1 D   2      30.389  56.226  46.7770  0.00  0.00     0.000 O
ENDBRANCH 27 33
BRANCH 23 36
ATOM     36  O4  GU6 D   3      28.717  61.332  46.7670  0.00  0.00     0.000 O
BRANCH 36 40
ATOM     37  C1  GU6 D   3      24.948  62.126  45.4040  0.00  0.00     0.000 C
ATOM     38  C2  GU6 D   3      26.046  62.867  44.6510  0.00  0.00     0.000 C
ATOM     39  C3  GU6 D   3      27.390  62.307  45.0400  0.00  0.00     0.000 C
ATOM     40  C4  GU6 D   3      27.437  61.370  46.1680  0.00  0.00     0.000 C
ATOM     41  C5  GU6 D   3      26.425  61.827  47.2700  0.00  0.00     0.000 C
ATOM     42  O5  GU6 D   3      25.158  62.298  46.7970  0.00  0.00     0.000 O
BRANCH 38 43
ATOM     43   O  GU6 D   3      25.859  62.748  43.2540  0.00  0.00     0.000 O
ATOM     44   S  GU6 D   3      25.792  64.077  42.5130  0.00  0.00     0.000 S
ATOM     45   O  GU6 D   3      24.428  64.617  42.6430  0.00  0.00     0.000 OA
ATOM     46   O  GU6 D   3      26.750  65.011  43.1340  0.00  0.00     0.000 O
ATOM     47   O  GU6 D   3      26.146  63.855  41.1150  0.00  0.00     0.000 OA
ENDBRANCH 38 43
BRANCH 39 48
ATOM     48   O  GU6 D   3      28.521  62.490  44.2100  0.00  0.00     0.000 O
ATOM     49   S  GU6 D   3      29.146  61.549  43.1810  0.00  0.00     0.000 S
ATOM     50   O  GU6 D   3      28.140  61.140  42.1940  0.00  0.00     0.000 OA
ATOM     51   O  GU6 D   3      30.190  62.377  42.5630  0.00  0.00     0.000 OA
ATOM     52   O  GU6 D   3      29.681  60.360  43.8810  0.00  0.00     0.000 O
ENDBRANCH 39 48
BRANCH 41 53
ATOM     53   C  GU6 D   3      26.589  61.827  48.7650  0.00  0.00     0.000 C
ATOM     54   O  GU6 D   3      26.665  60.437  48.9490  0.00  0.00     0.000 O
ATOM     55   S  GU6 D   3      26.729  59.840  50.3610  0.00  0.00     0.000 S
ATOM     56   O  GU6 D   3      25.430  60.137  51.0090  0.00  0.00     0.000 O
ATOM     57   O  GU6 D   3      26.933  58.389  50.2480  0.00  0.00     0.000 OA
ATOM     58   O  GU6 D   3      27.842  60.509  51.0710  0.00  0.00     0.000 OA
ENDBRANCH 41 53
BRANCH 37 59
ATOM     59  O4  Z9K D   4      24.584  60.746  45.1920  0.00  0.00     0.000 O
BRANCH 59 63
ATOM     60  C1  Z9K D   4      22.852  57.682  43.4430  0.00  0.00     0.000 C
ATOM     61  C2  Z9K D   4      22.126  58.871  42.7550  0.00  0.00     0.000 C
ATOM     62  C3  Z9K D   4      22.954  60.102  43.3280  0.00  0.00     0.000 C
ATOM     63  C4  Z9K D   4      23.295  60.149  44.8660  0.00  0.00     0.000 C
ATOM     64  C5  Z9K D   4      23.370  58.792  45.5820  0.00  0.00     0.000 C
ATOM     65  O5  Z9K D   4      23.855  57.905  44.5410  0.00  0.00     0.000 O
ATOM     66   O  Z9K D   4      22.350  61.376  43.0430  0.00  0.00     0.000 O
ATOM     67   C  Z9K D   4      22.687  61.915  41.7760  0.00  0.00     0.000 C
BRANCH 61 68
ATOM     68   O  Z9K D   4      22.422  58.799  41.3880  0.00  0.00     0.000 O
ATOM     69   O  Z9K D   4      20.069  59.727  41.7770  0.00  0.00     0.000 OA
ATOM     70   S  Z9K D   4      20.819  58.568  41.3950  0.00  0.00     0.000 S
ATOM     71   O  Z9K D   4      20.543  57.224  41.8000  0.00  0.00     0.000 OA
ATOM     72   O  Z9K D   4      21.119  58.593  40.0000  0.00  0.00     0.000 OA
ENDBRANCH 61 68
BRANCH 64 73
ATOM     73   C  Z9K D   4      24.175  58.908  46.8940  0.00  0.00     0.000 C
ATOM     74   O  Z9K D   4      23.703  59.509  47.9020  0.00  0.00     0.000 O
ATOM     75   O  Z9K D   4      25.320  58.407  47.0130  0.00  0.00     0.000 OA
ENDBRANCH 64 73
BRANCH 60 76
ATOM     76  O4  Z9L D   5      22.276  56.513  44.0500  0.00  0.00     0.000 O
BRANCH 76 80
ATOM     77  C1  Z9L D   5      22.658  52.559  44.4860  0.00  0.00     0.000 C
ATOM     78  C2  Z9L D   5      22.856  53.212  45.9370  0.00  0.00     0.000 C
ATOM     79  C3  Z9L D   5      22.250  54.789  45.8460  0.00  0.00     0.000 C
ATOM     80  C4  Z9L D   5      22.835  55.268  44.3820  0.00  0.00     0.000 C
ATOM     81  C5  Z9L D   5      22.848  54.518  42.9550  0.00  0.00     0.000 C
ATOM     82  O5  Z9L D   5      23.174  53.146  43.2230  0.00  0.00     0.000 O
ATOM     83   C  Z9L D   5      20.927  51.632  43.0570  0.00  0.00     0.000 C
ATOM     84   C  Z9L D   5      20.927  51.632  43.0570  0.00  0.00     0.000 C
BRANCH 78 85
ATOM     85   O  Z9L D   5      22.095  52.483  46.8460  0.00  0.00     0.000 O
ATOM     86   O  Z9L D   5      22.811  51.360  48.2370  0.00  0.00     0.000 OA
ATOM     87   S  Z9L D   5      23.585  52.207  47.3820  0.00  0.00     0.000 S
ATOM     88   O  Z9L D   5      24.094  53.245  48.2450  0.00  0.00     0.000 OA
ATOM     89   O  Z9L D   5      24.385  51.325  46.6050  0.00  0.00     0.000 OA
ENDBRANCH 78 85
BRANCH 79 90
ATOM     90   O  Z9L D   5      22.911  55.638  46.7290  0.00  0.00     0.000 O
ATOM     91   S  Z9L D   5      21.418  55.819  47.2520  0.00  0.00     0.000 S
ATOM     92   O  Z9L D   5      20.607  54.706  47.6700  0.00  0.00     0.000 OA
ATOM     93   O  Z9L D   5      20.826  56.970  46.6160  0.00  0.00     0.000 O
ATOM     94   O  Z9L D   5      22.119  56.288  48.4030  0.00  0.00     0.000 OA
ENDBRANCH 79 90
BRANCH 81 95
ATOM     95   C  Z9L D   5      23.628  55.291  41.6870  0.00  0.00     0.000 C
ATOM     96   S  Z9L D   5      25.335  55.433  40.6720  0.00  0.00     0.000 S
ATOM     97   O  Z9L D   5      24.938  55.198  42.1770  0.00  0.00     0.000 O
ATOM     98   O  Z9L D   5      25.055  56.815  40.3790  0.00  0.00     0.000 OA
ATOM     99   O  Z9L D   5      24.972  54.396  39.7660  0.00  0.00     0.000 OA
ATOM    100   O  Z9L D   5      26.660  55.346  41.2360  0.00  0.00     0.000 O
ENDBRANCH 81 95
ENDBRANCH 76 80
ENDBRANCH 60 76
ENDBRANCH 59 63
ENDBRANCH 37 59
ENDBRANCH 36 40
ENDBRANCH 23 36
ENDBRANCH 22 26
ENDBRANCH 1 22
TORSDOF 19
ENDMDL
MODEL 65
REMARK VINA RESULT:       0.0     47.038     52.512
ROOT
ATOM      1  C1  Z9H D   1      78.313  58.968  39.4060  0.00  0.00     0.000 C
ATOM      2  C2  Z9H D   1      78.274  58.303  38.0100  0.00  0.00     0.000 C
ATOM      3  C3  Z9H D   1      79.795  58.391  37.6800  0.00  0.00     0.000 C
ATOM      4  C4  Z9H D   1      80.452  59.819  37.8770  0.00  0.00     0.000 C
ATOM      5  C5  Z9H D   1      80.233  60.700  39.1710  0.00  0.00     0.000 C
ATOM      6  O5  Z9H D   1      78.904  60.286  39.5780  0.00  0.00     0.000 O
ATOM      7   O  Z9H D   1      80.080  57.889  36.3720  0.00  0.00     0.000 O
ATOM      8   C  Z9H D   1      80.562  56.536  36.3230  0.00  0.00     0.000 C
ATOM      9   O  Z9H D   1      81.862  59.622  37.7340  0.00  0.00     0.000 O
ATOM     10   C  Z9H D   1      82.406  59.955  36.4530  0.00  0.00     0.000 C
ENDROOT
BRANCH 2 11
ATOM     11   O  Z9H D   1      78.047  56.956  38.3340  0.00  0.00     0.000 O
ATOM     12   O  Z9H D   1      76.461  56.020  37.9270  0.00  0.00     0.000 OA
ATOM     13   S  Z9H D   1      76.723  57.372  37.5620  0.00  0.00     0.000 S
ATOM     14   O  Z9H D   1      77.046  57.545  36.1740  0.00  0.00     0.000 OA
ATOM     15   O  Z9H D   1      75.908  58.272  38.3450  0.00  0.00     0.000 O
ENDBRANCH 2 11
BRANCH 5 16
ATOM     16   C  Z9H D   1      80.627  62.317  39.0030  0.00  0.00     0.000 C
ATOM     17   S  Z9H D   1      81.448  63.900  39.9320  0.00  0.00     0.000 S
ATOM     18   O  Z9H D   1      81.772  62.322  39.8220  0.00  0.00     0.000 O
ATOM     19   O  Z9H D   1      80.249  64.220  40.6510  0.00  0.00     0.000 O
ATOM     20   O  Z9H D   1      81.844  64.566  38.7400  0.00  0.00     0.000 OA
ATOM     21   O  Z9H D   1      82.590  63.834  40.7960  0.00  0.00     0.000 OA
ENDBRANCH 5 16
BRANCH 1 22
ATOM     22  O4  GU1 D   2      79.047  58.209  40.4340  0.00  0.00     0.000 O
BRANCH 22 26
ATOM     23  C1  GU1 D   2      79.181  57.198  44.4250  0.00  0.00     0.000 C
ATOM     24  C2  GU1 D   2      77.781  57.340  43.8480  0.00  0.00     0.000 C
ATOM     25  C3  GU1 D   2      77.857  57.325  42.3490  0.00  0.00     0.000 C
ATOM     26  C4  GU1 D   2      78.848  58.364  41.8440  0.00  0.00     0.000 C
ATOM     27  C5  GU1 D   2      80.191  58.200  42.5610  0.00  0.00     0.000 C
ATOM     28  O5  GU1 D   2      80.013  58.261  43.9740  0.00  0.00     0.000 O
ATOM     29   O  GU1 D   2      76.926  56.281  44.2600  0.00  0.00     0.000 O
ATOM     30   C  GU1 D   2      76.109  56.603  45.3770  0.00  0.00     0.000 C
ATOM     31   C  GU1 D   2      75.824  56.516  41.3470  0.00  0.00     0.000 C
ATOM     32   O  GU1 D   2      76.562  57.637  41.8270  0.00  0.00     0.000 O
BRANCH 27 33
ATOM     33   C  GU1 D   2      81.157  59.292  42.1690  0.00  0.00     0.000 C
ATOM     34   O  GU1 D   2      80.937  60.423  42.5520  0.00  0.00     0.000 OA
ATOM     35   O  GU1 D   2      82.138  59.039  41.4870  0.00  0.00     0.000 O
ENDBRANCH 27 33
BRANCH 23 36
ATOM     36  O4  GU6 D   3      79.409  57.429  45.8290  0.00  0.00     0.000 O
BRANCH 36 40
ATOM     37  C1  GU6 D   3      80.356  59.099  49.4370  0.00  0.00     0.000 C
ATOM     38  C2  GU6 D   3      80.488  57.581  49.4040  0.00  0.00     0.000 C
ATOM     39  C3  GU6 D   3      80.386  57.096  47.9810  0.00  0.00     0.000 C
ATOM     40  C4  GU6 D   3      79.973  58.065  46.9590  0.00  0.00     0.000 C
ATOM     41  C5  GU6 D   3      78.878  59.013  47.5500  0.00  0.00     0.000 C
ATOM     42  O5  GU6 D   3      79.094  59.455  48.8950  0.00  0.00     0.000 O
BRANCH 38 43
ATOM     43   O  GU6 D   3      81.722  57.176  49.9640  0.00  0.00     0.000 O
ATOM     44   S  GU6 D   3      81.597  56.176  51.1050  0.00  0.00     0.000 S
ATOM     45   O  GU6 D   3      81.285  56.912  52.3420  0.00  0.00     0.000 OA
ATOM     46   O  GU6 D   3      80.495  55.246  50.7970  0.00  0.00     0.000 O
ATOM     47   O  GU6 D   3      82.852  55.441  51.2260  0.00  0.00     0.000 OA
ENDBRANCH 38 43
BRANCH 39 48
ATOM     48   O  GU6 D   3      80.890  55.828  47.6080  0.00  0.00     0.000 O
ATOM     49   S  GU6 D   3      82.223  55.455  46.9610  0.00  0.00     0.000 S
ATOM     50   O  GU6 D   3      83.337  55.971  47.7640  0.00  0.00     0.000 OA
ATOM     51   O  GU6 D   3      82.198  53.986  46.9700  0.00  0.00     0.000 OA
ATOM     52   O  GU6 D   3      82.273  56.029  45.5980  0.00  0.00     0.000 O
ENDBRANCH 39 48
BRANCH 41 53
ATOM     53   C  GU6 D   3      77.629  59.542  46.8960  0.00  0.00     0.000 C
ATOM     54   O  GU6 D   3      78.249  60.326  45.9100  0.00  0.00     0.000 O
ATOM     55   S  GU6 D   3      77.409  61.217  44.9840  0.00  0.00     0.000 S
ATOM     56   O  GU6 D   3      76.802  62.266  45.8350  0.00  0.00     0.000 O
ATOM     57   O  GU6 D   3      78.299  61.815  43.9770  0.00  0.00     0.000 OA
ATOM     58   O  GU6 D   3      76.370  60.359  44.3730  0.00  0.00     0.000 OA
ENDBRANCH 41 53
BRANCH 37 59
ATOM     59  O4  Z9K D   4      81.327  60.026  48.9080  0.00  0.00     0.000 O
BRANCH 59 63
ATOM     60  C1  Z9K D   4      84.602  62.198  48.8400  0.00  0.00     0.000 C
ATOM     61  C2  Z9K D   4      84.558  61.767  50.3320  0.00  0.00     0.000 C
ATOM     62  C3  Z9K D   4      83.341  60.744  50.3140  0.00  0.00     0.000 C
ATOM     63  C4  Z9K D   4      82.019  61.136  49.5520  0.00  0.00     0.000 C
ATOM     64  C5  Z9K D   4      82.177  62.138  48.3980  0.00  0.00     0.000 C
ATOM     65  O5  Z9K D   4      83.500  61.831  47.8850  0.00  0.00     0.000 O
ATOM     66   O  Z9K D   4      82.907  60.353  51.6290  0.00  0.00     0.000 O
ATOM     67   C  Z9K D   4      83.632  59.269  52.1870  0.00  0.00     0.000 C
BRANCH 61 68
ATOM     68   O  Z9K D   4      85.709  61.006  50.5750  0.00  0.00     0.000 O
ATOM     69   O  Z9K D   4      85.038  62.355  52.6440  0.00  0.00     0.000 OA
ATOM     70   S  Z9K D   4      85.946  62.287  51.5380  0.00  0.00     0.000 S
ATOM     71   O  Z9K D   4      86.379  63.394  50.7420  0.00  0.00     0.000 OA
ATOM     72   O  Z9K D   4      87.066  61.458  51.8480  0.00  0.00     0.000 OA
ENDBRANCH 61 68
BRANCH 64 73
ATOM     73   C  Z9K D   4      80.972  62.063  47.4360  0.00  0.00     0.000 C
ATOM     74   O  Z9K D   4      79.836  62.506  47.7740  0.00  0.00     0.000 O
ATOM     75   O  Z9K D   4      81.074  61.569  46.2870  0.00  0.00     0.000 OA
ENDBRANCH 64 73
BRANCH 60 76
ATOM     76  O4  Z9L D   5      84.792  63.515  48.2950  0.00  0.00     0.000 O
BRANCH 76 80
ATOM     77  C1  Z9L D   5      86.610  65.603  45.4140  0.00  0.00     0.000 C
ATOM     78  C2  Z9L D   5      85.032  65.731  45.1610  0.00  0.00     0.000 C
ATOM     79  C3  Z9L D   5      84.271  65.258  46.5950  0.00  0.00     0.000 C
ATOM     80  C4  Z9L D   5      85.171  63.943  47.0120  0.00  0.00     0.000 C
ATOM     81  C5  Z9L D   5      86.769  63.728  47.0500  0.00  0.00     0.000 C
ATOM     82  O5  Z9L D   5      87.290  64.366  45.8740  0.00  0.00     0.000 O
ATOM     83   C  Z9L D   5      88.432  66.731  46.5550  0.00  0.00     0.000 C
ATOM     84   C  Z9L D   5      88.432  66.731  46.5550  0.00  0.00     0.000 C
BRANCH 78 85
ATOM     85   O  Z9L D   5      84.741  67.068  44.9090  0.00  0.00     0.000 O
ATOM     86   O  Z9L D   5      84.173  67.777  43.2110  0.00  0.00     0.000 OA
ATOM     87   S  Z9L D   5      84.351  66.388  43.5070  0.00  0.00     0.000 S
ATOM     88   O  Z9L D   5      83.023  65.827  43.4820  0.00  0.00     0.000 OA
ATOM     89   O  Z9L D   5      85.433  65.966  42.6850  0.00  0.00     0.000 OA
ENDBRANCH 78 85
BRANCH 79 90
ATOM     90   O  Z9L D   5      83.019  64.701  46.3460  0.00  0.00     0.000 O
ATOM     91   S  Z9L D   5      82.592  65.898  47.3060  0.00  0.00     0.000 S
ATOM     92   O  Z9L D   5      82.927  67.269  47.0250  0.00  0.00     0.000 OA
ATOM     93   O  Z9L D   5      82.517  65.417  48.6640  0.00  0.00     0.000 O
ATOM     94   O  Z9L D   5      81.329  65.636  46.6960  0.00  0.00     0.000 OA
ENDBRANCH 79 90
BRANCH 81 95
ATOM     95   C  Z9L D   5      87.330  62.198  47.4440  0.00  0.00     0.000 C
ATOM     96   S  Z9L D   5      87.973  60.462  46.7090  0.00  0.00     0.000 S
ATOM     97   O  Z9L D   5      86.888  61.526  46.2960  0.00  0.00     0.000 O
ATOM     98   O  Z9L D   5      87.459  59.774  47.8660  0.00  0.00     0.000 OA
ATOM     99   O  Z9L D   5      89.326  60.901  46.6490  0.00  0.00     0.000 OA
ATOM    100   O  Z9L D   5      87.465  59.809  45.5280  0.00  0.00     0.000 O
ENDBRANCH 81 95
ENDBRANCH 76 80
ENDBRANCH 60 76
ENDBRANCH 59 63
ENDBRANCH 37 59
ENDBRANCH 36 40
ENDBRANCH 23 36
ENDBRANCH 22 26
ENDBRANCH 1 22
TORSDOF 19
ENDMDL
MODEL 66
REMARK VINA RESULT:       0.0    133.070    138.829
ROOT
ATOM      1  C1  Z9H D   1     139.983 148.133  31.1920  0.00  0.00     0.000 C
ATOM      2  C2  Z9H D   1     140.138 149.637  30.8640  0.00  0.00     0.000 C
ATOM      3  C3  Z9H D   1     140.015 150.195  32.3150  0.00  0.00     0.000 C
ATOM      4  C4  Z9H D   1     138.767 149.671  33.1400  0.00  0.00     0.000 C
ATOM      5  C5  Z9H D   1     138.364 148.145  33.2210  0.00  0.00     0.000 C
ATOM      6  O5  Z9H D   1     138.828 147.657  31.9370  0.00  0.00     0.000 O
ATOM      7   O  Z9H D   1     140.061 151.623  32.3350  0.00  0.00     0.000 O
ATOM      8   C  Z9H D   1     141.340 152.194  32.6590  0.00  0.00     0.000 C
ATOM      9   O  Z9H D   1     138.970 150.127  34.4820  0.00  0.00     0.000 O
ATOM     10   C  Z9H D   1     138.252 151.309  34.8480  0.00  0.00     0.000 C
ENDROOT
BRANCH 2 11
ATOM     11   O  Z9H D   1     141.504 149.729  30.5510  0.00  0.00     0.000 O
ATOM     12   O  Z9H D   1     142.173 150.137  28.8360  0.00  0.00     0.000 OA
ATOM     13   S  Z9H D   1     140.792 150.088  29.1780  0.00  0.00     0.000 S
ATOM     14   O  Z9H D   1     140.181 151.380  29.3110  0.00  0.00     0.000 OA
ATOM     15   O  Z9H D   1     140.166 148.930  28.5810  0.00  0.00     0.000 O
ENDBRANCH 2 11
BRANCH 5 16
ATOM     16   C  Z9H D   1     136.804 147.852  33.7510  0.00  0.00     0.000 C
ATOM     17   S  Z9H D   1     135.660 146.613  34.8460  0.00  0.00     0.000 S
ATOM     18   O  Z9H D   1     137.129 147.269  34.9900  0.00  0.00     0.000 O
ATOM     19   O  Z9H D   1     135.533 145.647  33.7930  0.00  0.00     0.000 O
ATOM     20   O  Z9H D   1     134.661 147.579  35.1420  0.00  0.00     0.000 OA
ATOM     21   O  Z9H D   1     136.066 146.010  36.0810  0.00  0.00     0.000 OA
ENDBRANCH 5 16
BRANCH 1 22
ATOM     22  O4  GU1 D   2     141.076 147.559  31.9960  0.00  0.00     0.000 O
BRANCH 22 26
ATOM     23  C1  GU1 D   2     143.389 144.210  32.6360  0.00  0.00     0.000 C
ATOM     24  C2  GU1 D   2     142.998 144.450  31.1850  0.00  0.00     0.000 C
ATOM     25  C3  GU1 D   2     142.505 145.860  31.0290  0.00  0.00     0.000 C
ATOM     26  C4  GU1 D   2     141.401 146.164  32.0310  0.00  0.00     0.000 C
ATOM     27  C5  GU1 D   2     141.858 145.791  33.4450  0.00  0.00     0.000 C
ATOM     28  O5  GU1 D   2     142.273 144.429  33.4910  0.00  0.00     0.000 O
ATOM     29   O  GU1 D   2     144.095 144.262  30.3000  0.00  0.00     0.000 O
ATOM     30   C  GU1 D   2     144.136 142.974  29.7010  0.00  0.00     0.000 C
ATOM     31   C  GU1 D   2     142.836 146.692  28.7950  0.00  0.00     0.000 C
ATOM     32   O  GU1 D   2     141.978 146.011  29.7080  0.00  0.00     0.000 O
BRANCH 27 33
ATOM     33   C  GU1 D   2     140.741 145.969  34.4450  0.00  0.00     0.000 C
ATOM     34   O  GU1 D   2     139.797 145.208  34.3980  0.00  0.00     0.000 OA
ATOM     35   O  GU1 D   2     140.793 146.857  35.2830  0.00  0.00     0.000 O
ENDBRANCH 27 33
BRANCH 23 36
ATOM     36  O4  GU6 D   3     143.659 142.872  33.0970  0.00  0.00     0.000 O
BRANCH 36 40
ATOM     37  C1  GU6 D   3     143.359 139.147  34.7510  0.00  0.00     0.000 C
ATOM     38  C2  GU6 D   3     144.780 139.697  34.7180  0.00  0.00     0.000 C
ATOM     39  C3  GU6 D   3     144.748 141.158  34.3510  0.00  0.00     0.000 C
ATOM     40  C4  GU6 D   3     143.472 141.716  33.8890  0.00  0.00     0.000 C
ATOM     41  C5  GU6 D   3     142.731 140.663  33.0010  0.00  0.00     0.000 C
ATOM     42  O5  GU6 D   3     142.782 139.309  33.4640  0.00  0.00     0.000 O
BRANCH 38 43
ATOM     43   O  GU6 D   3     145.407 139.529  35.9750  0.00  0.00     0.000 O
ATOM     44   S  GU6 D   3     146.730 138.776  35.9220  0.00  0.00     0.000 S
ATOM     45   O  GU6 D   3     146.446 137.332  35.8790  0.00  0.00     0.000 OA
ATOM     46   O  GU6 D   3     147.448 139.171  34.6960  0.00  0.00     0.000 O
ATOM     47   O  GU6 D   3     147.519 139.128  37.0990  0.00  0.00     0.000 OA
ENDBRANCH 38 43
BRANCH 39 48
ATOM     48   O  GU6 D   3     145.835 142.008  34.6590  0.00  0.00     0.000 O
ATOM     49   S  GU6 D   3     146.027 142.970  35.8310  0.00  0.00     0.000 S
ATOM     50   O  GU6 D   3     145.865 142.255  37.1020  0.00  0.00     0.000 OA
ATOM     51   O  GU6 D   3     147.410 143.435  35.6560  0.00  0.00     0.000 OA
ATOM     52   O  GU6 D   3     145.028 144.056  35.7290  0.00  0.00     0.000 O
ENDBRANCH 39 48
BRANCH 41 53
ATOM     53   C  GU6 D   3     141.955 140.875  31.7290  0.00  0.00     0.000 C
ATOM     54   O  GU6 D   3     140.908 141.639  32.2690  0.00  0.00     0.000 O
ATOM     55   S  GU6 D   3     139.718 142.056  31.3960  0.00  0.00     0.000 S
ATOM     56   O  GU6 D   3     138.997 140.813  31.0340  0.00  0.00     0.000 O
ATOM     57   O  GU6 D   3     138.852 142.949  32.1790  0.00  0.00     0.000 OA
ATOM     58   O  GU6 D   3     140.267 142.722  30.1940  0.00  0.00     0.000 OA
ENDBRANCH 41 53
BRANCH 37 59
ATOM     59  O4  Z9K D   4     142.353 139.508  35.7210  0.00  0.00     0.000 O
BRANCH 59 63
ATOM     60  C1  Z9K D   4     140.445 139.446  39.1560  0.00  0.00     0.000 C
ATOM     61  C2  Z9K D   4     141.355 138.194  39.2940  0.00  0.00     0.000 C
ATOM     62  C3  Z9K D   4     142.252 138.328  37.9890  0.00  0.00     0.000 C
ATOM     63  C4  Z9K D   4     141.562 138.671  36.6140  0.00  0.00     0.000 C
ATOM     64  C5  Z9K D   4     140.236 139.443  36.6990  0.00  0.00     0.000 C
ATOM     65  O5  Z9K D   4     140.413 140.256  37.8890  0.00  0.00     0.000 O
ATOM     66   O  Z9K D   4     143.046 137.158  37.7220  0.00  0.00     0.000 O
ATOM     67   C  Z9K D   4     144.288 137.124  38.4060  0.00  0.00     0.000 C
BRANCH 61 68
ATOM     68   O  Z9K D   4     142.207 138.423  40.3830  0.00  0.00     0.000 O
ATOM     69   O  Z9K D   4     141.620 135.941  40.1730  0.00  0.00     0.000 OA
ATOM     70   S  Z9K D   4     141.347 137.148  40.8930  0.00  0.00     0.000 S
ATOM     71   O  Z9K D   4     140.056 137.596  41.3160  0.00  0.00     0.000 OA
ATOM     72   O  Z9K D   4     142.284 137.332  41.9540  0.00  0.00     0.000 OA
ENDBRANCH 61 68
BRANCH 64 73
ATOM     73   C  Z9K D   4     139.923 140.145  35.3610  0.00  0.00     0.000 C
ATOM     74   O  Z9K D   4     139.570 139.484  34.3410  0.00  0.00     0.000 O
ATOM     75   O  Z9K D   4     139.999 141.391  35.2340  0.00  0.00     0.000 OA
ENDBRANCH 64 73
BRANCH 60 76
ATOM     76  O4  Z9L D   5     139.031 139.555  39.3970  0.00  0.00     0.000 O
BRANCH 76 80
ATOM     77  C1  Z9L D   5     136.175 141.870  40.9640  0.00  0.00     0.000 C
ATOM     78  C2  Z9L D   5     135.898 141.785  39.3870  0.00  0.00     0.000 C
ATOM     79  C3  Z9L D   5     136.794 140.473  38.8060  0.00  0.00     0.000 C
ATOM     80  C4  Z9L D   5     138.212 140.674  39.6200  0.00  0.00     0.000 C
ATOM     81  C5  Z9L D   5     138.499 140.991  41.1750  0.00  0.00     0.000 C
ATOM     82  O5  Z9L D   5     137.526 141.967  41.5750  0.00  0.00     0.000 O
ATOM     83   C  Z9L D   5     135.586 140.764  43.0430  0.00  0.00     0.000 C
ATOM     84   C  Z9L D   5     135.586 140.764  43.0430  0.00  0.00     0.000 C
BRANCH 78 85
ATOM     85   O  Z9L D   5     134.542 141.530  39.2000  0.00  0.00     0.000 O
ATOM     86   O  Z9L D   5     133.276 142.773  38.4510  0.00  0.00     0.000 OA
ATOM     87   S  Z9L D   5     134.689 142.983  38.5300  0.00  0.00     0.000 S
ATOM     88   O  Z9L D   5     135.148 142.949  37.1630  0.00  0.00     0.000 OA
ATOM     89   O  Z9L D   5     134.856 144.078  39.4220  0.00  0.00     0.000 OA
ENDBRANCH 78 85
BRANCH 79 90
ATOM     90   O  Z9L D   5     137.175 140.665  37.4820  0.00  0.00     0.000 O
ATOM     91   S  Z9L D   5     136.361 139.305  37.3300  0.00  0.00     0.000 S
ATOM     92   O  Z9L D   5     134.992 139.175  37.7560  0.00  0.00     0.000 OA
ATOM     93   O  Z9L D   5     137.272 138.191  37.4120  0.00  0.00     0.000 O
ATOM     94   O  Z9L D   5     136.341 139.734  35.9680  0.00  0.00     0.000 OA
ENDBRANCH 79 90
BRANCH 81 95
ATOM     95   C  Z9L D   5     140.097 141.224  41.6300  0.00  0.00     0.000 C
ATOM     96   S  Z9L D   5     141.510 142.586  41.9680  0.00  0.00     0.000 S
ATOM     97   O  Z9L D   5     140.321 142.429  40.9480  0.00  0.00     0.000 O
ATOM     98   O  Z9L D   5     142.524 141.644  41.5720  0.00  0.00     0.000 OA
ATOM     99   O  Z9L D   5     141.137 142.744  43.3340  0.00  0.00     0.000 OA
ATOM    100   O  Z9L D   5     141.701 143.804  41.2190  0.00  0.00     0.000 O
ENDBRANCH 81 95
ENDBRANCH 76 80
ENDBRANCH 60 76
ENDBRANCH 59 63
ENDBRANCH 37 59
ENDBRANCH 36 40
ENDBRANCH 23 36
ENDBRANCH 22 26
ENDBRANCH 1 22
TORSDOF 19
ENDMDL
MODEL 67
REMARK VINA RESULT:       0.0     80.989     88.032
ROOT
ATOM      1  C1  Z9H D   1      80.186 136.854  42.4780  0.00  0.00     0.000 C
ATOM      2  C2  Z9H D   1      81.628 136.654  41.9530  0.00  0.00     0.000 C
ATOM      3  C3  Z9H D   1      82.190 135.836  43.1560  0.00  0.00     0.000 C
ATOM      4  C4  Z9H D   1      81.930 136.466  44.5870  0.00  0.00     0.000 C
ATOM      5  C5  Z9H D   1      80.519 137.010  45.0480  0.00  0.00     0.000 C
ATOM      6  O5  Z9H D   1      79.953 137.446  43.7860  0.00  0.00     0.000 O
ATOM      7   O  Z9H D   1      83.578 135.540  42.9880  0.00  0.00     0.000 O
ATOM      8   C  Z9H D   1      83.871 134.227  42.4820  0.00  0.00     0.000 C
ATOM      9   O  Z9H D   1      82.325 135.465  45.5300  0.00  0.00     0.000 O
ATOM     10   C  Z9H D   1      83.628 135.632  46.0990  0.00  0.00     0.000 C
ENDROOT
BRANCH 2 11
ATOM     11   O  Z9H D   1      81.438 135.714  40.9280  0.00  0.00     0.000 O
ATOM     12   O  Z9H D   1      81.711 136.073  39.0970  0.00  0.00     0.000 OA
ATOM     13   S  Z9H D   1      81.945 137.003  40.1500  0.00  0.00     0.000 S
ATOM     14   O  Z9H D   1      83.334 137.196  40.4550  0.00  0.00     0.000 OA
ATOM     15   O  Z9H D   1      80.945 138.045  40.1350  0.00  0.00     0.000 O
ENDBRANCH 2 11
BRANCH 5 16
ATOM     16   C  Z9H D   1      80.550 138.019  46.3830  0.00  0.00     0.000 C
ATOM     17   S  Z9H D   1      79.567 138.536  48.0570  0.00  0.00     0.000 S
ATOM     18   O  Z9H D   1      79.905 137.157  47.2890  0.00  0.00     0.000 O
ATOM     19   O  Z9H D   1      78.654 139.402  47.3680  0.00  0.00     0.000 O
ATOM     20   O  Z9H D   1      80.716 139.007  48.7490  0.00  0.00     0.000 OA
ATOM     21   O  Z9H D   1      78.885 137.615  48.9190  0.00  0.00     0.000 OA
ENDBRANCH 5 16
BRANCH 1 22
ATOM     22  O4  GU1 D   2      79.394 135.618  42.5990  0.00  0.00     0.000 O
BRANCH 22 26
ATOM     23  C1  GU1 D   2      75.637 133.972  42.2170  0.00  0.00     0.000 C
ATOM     24  C2  GU1 D   2      75.961 135.066  41.2110  0.00  0.00     0.000 C
ATOM     25  C3  GU1 D   2      77.443 135.306  41.1990  0.00  0.00     0.000 C
ATOM     26  C4  GU1 D   2      77.962 135.577  42.6030  0.00  0.00     0.000 C
ATOM     27  C5  GU1 D   2      77.494 134.474  43.5570  0.00  0.00     0.000 C
ATOM     28  O5  GU1 D   2      76.075 134.349  43.5170  0.00  0.00     0.000 O
ATOM     29   O  GU1 D   2      75.556 134.714  39.8940  0.00  0.00     0.000 O
ATOM     30   C  GU1 D   2      74.292 135.242  39.5200  0.00  0.00     0.000 C
ATOM     31   C  GU1 D   2      78.203 136.159  39.0800  0.00  0.00     0.000 C
ATOM     32   O  GU1 D   2      77.707 136.453  40.3840  0.00  0.00     0.000 O
BRANCH 27 33
ATOM     33   C  GU1 D   2      77.893 134.778  44.9820  0.00  0.00     0.000 C
ATOM     34   O  GU1 D   2      77.343 135.698  45.5510  0.00  0.00     0.000 OA
ATOM     35   O  GU1 D   2      78.745 134.109  45.5440  0.00  0.00     0.000 O
ENDBRANCH 27 33
BRANCH 23 36
ATOM     36  O4  GU6 D   3      74.269 133.724  42.5980  0.00  0.00     0.000 O
BRANCH 36 40
ATOM     37  C1  GU6 D   3      70.676 133.676  44.5430  0.00  0.00     0.000 C
ATOM     38  C2  GU6 D   3      70.922 132.454  43.6670  0.00  0.00     0.000 C
ATOM     39  C3  GU6 D   3      72.360 132.435  43.2190  0.00  0.00     0.000 C
ATOM     40  C4  GU6 D   3      73.172 133.627  43.4830  0.00  0.00     0.000 C
ATOM     41  C5  GU6 D   3      72.299 134.910  43.2790  0.00  0.00     0.000 C
ATOM     42  O5  GU6 D   3      70.961 134.841  43.7830  0.00  0.00     0.000 O
BRANCH 38 43
ATOM     43   O  GU6 D   3      70.620 131.266  44.3740  0.00  0.00     0.000 O
ATOM     44   S  GU6 D   3      69.612 130.360  43.6810  0.00  0.00     0.000 S
ATOM     45   O  GU6 D   3      68.257 130.864  43.9640  0.00  0.00     0.000 OA
ATOM     46   O  GU6 D   3      69.858 130.406  42.2280  0.00  0.00     0.000 O
ATOM     47   O  GU6 D   3      69.787 128.997  44.1750  0.00  0.00     0.000 OA
ENDBRANCH 38 43
BRANCH 39 48
ATOM     48   O  GU6 D   3      72.966 131.236  42.7750  0.00  0.00     0.000 O
ATOM     49   S  GU6 D   3      73.860 130.252  43.5280  0.00  0.00     0.000 S
ATOM     50   O  GU6 D   3      73.187 129.788  44.7470  0.00  0.00     0.000 OA
ATOM     51   O  GU6 D   3      74.033 129.155  42.5660  0.00  0.00     0.000 OA
ATOM     52   O  GU6 D   3      75.130 130.927  43.8770  0.00  0.00     0.000 O
ENDBRANCH 39 48
BRANCH 41 53
ATOM     53   C  GU6 D   3      72.674 136.218  42.6370  0.00  0.00     0.000 C
ATOM     54   O  GU6 D   3      73.634 136.624  43.5770  0.00  0.00     0.000 O
ATOM     55   S  GU6 D   3      74.293 138.006  43.4700  0.00  0.00     0.000 S
ATOM     56   O  GU6 D   3      73.227 139.007  43.7100  0.00  0.00     0.000 O
ATOM     57   O  GU6 D   3      75.340 138.106  44.4970  0.00  0.00     0.000 OA
ATOM     58   O  GU6 D   3      74.839 138.128  42.1000  0.00  0.00     0.000 OA
ENDBRANCH 41 53
BRANCH 37 59
ATOM     59  O4  Z9K D   4      71.230 133.877  45.8600  0.00  0.00     0.000 O
BRANCH 59 63
ATOM     60  C1  Z9K D   4      71.541 133.484  49.7580  0.00  0.00     0.000 C
ATOM     61  C2  Z9K D   4      70.128 132.888  49.5080  0.00  0.00     0.000 C
ATOM     62  C3  Z9K D   4      70.082 132.879  47.9180  0.00  0.00     0.000 C
ATOM     63  C4  Z9K D   4      70.569 134.154  47.1290  0.00  0.00     0.000 C
ATOM     64  C5  Z9K D   4      71.596 135.042  47.8480  0.00  0.00     0.000 C
ATOM     65  O5  Z9K D   4      72.348 134.086  48.6410  0.00  0.00     0.000 O
ATOM     66   O  Z9K D   4      68.775 132.593  47.3880  0.00  0.00     0.000 O
ATOM     67   C  Z9K D   4      68.482 131.211  47.2680  0.00  0.00     0.000 C
BRANCH 61 68
ATOM     68   O  Z9K D   4      70.170 131.546  49.9080  0.00  0.00     0.000 O
ATOM     69   O  Z9K D   4      67.863 132.567  50.3360  0.00  0.00     0.000 OA
ATOM     70   S  Z9K D   4      69.097 132.171  50.9470  0.00  0.00     0.000 S
ATOM     71   O  Z9K D   4      69.798 132.896  51.9610  0.00  0.00     0.000 OA
ATOM     72   O  Z9K D   4      69.077 130.784  51.2820  0.00  0.00     0.000 OA
ENDBRANCH 61 68
BRANCH 64 73
ATOM     73   C  Z9K D   4      72.356 135.930  46.8400  0.00  0.00     0.000 C
ATOM     74   O  Z9K D   4      71.788 136.905  46.2680  0.00  0.00     0.000 O
ATOM     75   O  Z9K D   4      73.561 135.724  46.5540  0.00  0.00     0.000 OA
ENDBRANCH 64 73
BRANCH 60 76
ATOM     76  O4  Z9L D   5      71.938 134.468  50.7280  0.00  0.00     0.000 O
BRANCH 76 80
ATOM     77  C1  Z9L D   5      74.781 135.484  53.3460  0.00  0.00     0.000 C
ATOM     78  C2  Z9L D   5      74.764 136.615  52.2090  0.00  0.00     0.000 C
ATOM     79  C3  Z9L D   5      73.299 136.448  51.3800  0.00  0.00     0.000 C
ATOM     80  C4  Z9L D   5      73.200 134.809  51.2420  0.00  0.00     0.000 C
ATOM     81  C5  Z9L D   5      73.442 133.643  52.3300  0.00  0.00     0.000 C
ATOM     82  O5  Z9L D   5      74.594 134.033  53.0900  0.00  0.00     0.000 O
ATOM     83   C  Z9L D   5      73.807 134.975  55.5110  0.00  0.00     0.000 C
ATOM     84   C  Z9L D   5      73.807 134.975  55.5110  0.00  0.00     0.000 C
BRANCH 78 85
ATOM     85   O  Z9L D   5      74.795 137.858  52.8340  0.00  0.00     0.000 O
ATOM     86   O  Z9L D   5      76.277 139.087  52.7810  0.00  0.00     0.000 OA
ATOM     87   S  Z9L D   5      76.191 137.867  52.0380  0.00  0.00     0.000 S
ATOM     88   O  Z9L D   5      76.072 138.275  50.6600  0.00  0.00     0.000 OA
ATOM     89   O  Z9L D   5      77.223 137.038  52.5600  0.00  0.00     0.000 OA
ENDBRANCH 78 85
BRANCH 79 90
ATOM     90   O  Z9L D   5      73.417 136.856  50.0540  0.00  0.00     0.000 O
ATOM     91   S  Z9L D   5      72.255 137.834  50.5320  0.00  0.00     0.000 S
ATOM     92   O  Z9L D   5      72.407 138.719  51.6570  0.00  0.00     0.000 OA
ATOM     93   O  Z9L D   5      70.977 137.245  50.2190  0.00  0.00     0.000 O
ATOM     94   O  Z9L D   5      72.687 138.546  49.3730  0.00  0.00     0.000 OA
ENDBRANCH 79 90
BRANCH 81 95
ATOM     95   C  Z9L D   5      73.337 132.057  51.7930  0.00  0.00     0.000 C
ATOM     96   S  Z9L D   5      74.378 130.491  51.1370  0.00  0.00     0.000 S
ATOM     97   O  Z9L D   5      74.475 132.054  50.9720  0.00  0.00     0.000 O
ATOM     98   O  Z9L D   5      73.249 130.060  50.3530  0.00  0.00     0.000 OA
ATOM     99   O  Z9L D   5      74.600 129.992  52.4520  0.00  0.00     0.000 OA
ATOM    100   O  Z9L D   5      75.535 130.549  50.2770  0.00  0.00     0.000 O
ENDBRANCH 81 95
ENDBRANCH 76 80
ENDBRANCH 60 76
ENDBRANCH 59 63
ENDBRANCH 37 59
ENDBRANCH 36 40
ENDBRANCH 23 36
ENDBRANCH 22 26
ENDBRANCH 1 22
TORSDOF 19
ENDMDL
MODEL 68
REMARK VINA RESULT:       0.0     70.157     77.427
ROOT
ATOM      1  C1  Z9H D   1      92.953  48.034 113.2970  0.00  0.00     0.000 C
ATOM      2  C2  Z9H D   1      94.490  47.904 113.1790  0.00  0.00     0.000 C
ATOM      3  C3  Z9H D   1      94.648  46.509 113.8590  0.00  0.00     0.000 C
ATOM      4  C4  Z9H D   1      93.928  46.352 115.2620  0.00  0.00     0.000 C
ATOM      5  C5  Z9H D   1      92.435  46.800 115.5220  0.00  0.00     0.000 C
ATOM      6  O5  Z9H D   1      92.299  47.902 114.5900  0.00  0.00     0.000 O
ATOM      7   O  Z9H D   1      96.021  46.125 113.9590  0.00  0.00     0.000 O
ATOM      8   C  Z9H D   1      96.485  45.228 112.9360  0.00  0.00     0.000 C
ATOM      9   O  Z9H D   1      94.016  44.961 115.5890  0.00  0.00     0.000 O
ATOM     10   C  Z9H D   1      95.061  44.606 116.4990  0.00  0.00     0.000 C
ENDROOT
BRANCH 2 11
ATOM     11   O  Z9H D   1      94.659  47.664 111.8070  0.00  0.00     0.000 O
ATOM     12   O  Z9H D   1      95.502  48.860 110.6170  0.00  0.00     0.000 OA
ATOM     13   S  Z9H D   1      95.367  49.070 112.0190  0.00  0.00     0.000 S
ATOM     14   O  Z9H D   1      96.579  48.857 112.7570  0.00  0.00     0.000 OA
ATOM     15   O  Z9H D   1      94.406  50.117 112.2810  0.00  0.00     0.000 O
ENDBRANCH 2 11
BRANCH 5 16
ATOM     16   C  Z9H D   1      92.015  46.965 117.1330  0.00  0.00     0.000 C
ATOM     17   S  Z9H D   1      90.534  46.703 118.4670  0.00  0.00     0.000 S
ATOM     18   O  Z9H D   1      91.127  45.876 117.2130  0.00  0.00     0.000 O
ATOM     19   O  Z9H D   1      89.878  47.931 118.1220  0.00  0.00     0.000 O
ATOM     20   O  Z9H D   1      91.389  46.565 119.5930  0.00  0.00     0.000 OA
ATOM     21   O  Z9H D   1      89.627  45.592 118.4680  0.00  0.00     0.000 OA
ENDBRANCH 5 16
BRANCH 1 22
ATOM     22  O4  GU1 D   2      92.187  47.053 112.5090  0.00  0.00     0.000 O
BRANCH 22 26
ATOM     23  C1  GU1 D   2      88.784  46.452 110.2650  0.00  0.00     0.000 C
ATOM     24  C2  GU1 D   2      89.396  47.839 110.1400  0.00  0.00     0.000 C
ATOM     25  C3  GU1 D   2      90.798  47.814 110.6770  0.00  0.00     0.000 C
ATOM     26  C4  GU1 D   2      90.831  47.243 112.0870  0.00  0.00     0.000 C
ATOM     27  C5  GU1 D   2      90.100  45.898 112.1250  0.00  0.00     0.000 C
ATOM     28  O5  GU1 D   2      88.772  46.038 111.6260  0.00  0.00     0.000 O
ATOM     29   O  GU1 D   2      89.445  48.279 108.7880  0.00  0.00     0.000 O
ATOM     30   C  GU1 D   2      88.360  49.117 108.4170  0.00  0.00     0.000 C
ATOM     31   C  GU1 D   2      92.186  49.497 109.6590  0.00  0.00     0.000 C
ATOM     32   O  GU1 D   2      91.291  49.157 110.7160  0.00  0.00     0.000 O
BRANCH 27 33
ATOM     33   C  GU1 D   2      90.011  45.364 113.5350  0.00  0.00     0.000 C
ATOM     34   O  GU1 D   2      89.290  45.937 114.3250  0.00  0.00     0.000 OA
ATOM     35   O  GU1 D   2      90.648  44.376 113.8650  0.00  0.00     0.000 O
ENDBRANCH 27 33
BRANCH 23 36
ATOM     36  O4  GU6 D   3      87.371  46.266 110.0500  0.00  0.00     0.000 O
BRANCH 36 40
ATOM     37  C1  GU6 D   3      83.344  45.801 110.5600  0.00  0.00     0.000 C
ATOM     38  C2  GU6 D   3      83.881  45.177 109.2780  0.00  0.00     0.000 C
ATOM     39  C3  GU6 D   3      85.387  45.161 109.3170  0.00  0.00     0.000 C
ATOM     40  C4  GU6 D   3      86.049  45.906 110.3940  0.00  0.00     0.000 C
ATOM     41  C5  GU6 D   3      85.266  47.232 110.6700  0.00  0.00     0.000 C
ATOM     42  O5  GU6 D   3      83.838  47.128 110.6580  0.00  0.00     0.000 O
BRANCH 38 43
ATOM     43   O  GU6 D   3      83.389  43.860 109.1220  0.00  0.00     0.000 O
ATOM     44   S  GU6 D   3      82.675  43.608 107.8000  0.00  0.00     0.000 S
ATOM     45   O  GU6 D   3      81.293  44.104 107.9130  0.00  0.00     0.000 OA
ATOM     46   O  GU6 D   3      83.377  44.350 106.7370  0.00  0.00     0.000 O
ATOM     47   O  GU6 D   3      82.705  42.177 107.5150  0.00  0.00     0.000 OA
ENDBRANCH 38 43
BRANCH 39 48
ATOM     48   O  GU6 D   3      86.126  44.279 108.4930  0.00  0.00     0.000 O
ATOM     49   S  GU6 D   3      86.746  42.921 108.8200  0.00  0.00     0.000 S
ATOM     50   O  GU6 D   3      85.724  42.013 109.3520  0.00  0.00     0.000 OA
ATOM     51   O  GU6 D   3      87.240  42.459 107.5150  0.00  0.00     0.000 OA
ATOM     52   O  GU6 D   3      87.823  43.113 109.8170  0.00  0.00     0.000 O
ENDBRANCH 39 48
BRANCH 41 53
ATOM     53   C  GU6 D   3      85.805  48.606 110.9640  0.00  0.00     0.000 C
ATOM     54   O  GU6 D   3      86.403  48.316 112.2010  0.00  0.00     0.000 O
ATOM     55   S  GU6 D   3      87.035  49.434 113.0410  0.00  0.00     0.000 S
ATOM     56   O  GU6 D   3      85.932  50.326 113.4660  0.00  0.00     0.000 O
ATOM     57   O  GU6 D   3      87.693  48.828 114.2070  0.00  0.00     0.000 OA
ATOM     58   O  GU6 D   3      87.992  50.150 112.1680  0.00  0.00     0.000 OA
ENDBRANCH 41 53
BRANCH 37 59
ATOM     59  O4  Z9K D   4      83.439  45.210 111.8730  0.00  0.00     0.000 O
BRANCH 59 63
ATOM     60  C1  Z9K D   4      82.481  42.837 114.8560  0.00  0.00     0.000 C
ATOM     61  C2  Z9K D   4      81.235  42.686 113.9390  0.00  0.00     0.000 C
ATOM     62  C3  Z9K D   4      81.706  43.498 112.6550  0.00  0.00     0.000 C
ATOM     63  C4  Z9K D   4      82.398  44.901 112.8450  0.00  0.00     0.000 C
ATOM     64  C5  Z9K D   4      83.122  45.120 114.1820  0.00  0.00     0.000 C
ATOM     65  O5  Z9K D   4      83.595  43.789 114.5150  0.00  0.00     0.000 O
ATOM     66   O  Z9K D   4      80.646  43.733 111.7110  0.00  0.00     0.000 O
ATOM     67   C  Z9K D   4      80.432  42.674 110.7940  0.00  0.00     0.000 C
BRANCH 61 68
ATOM     68   O  Z9K D   4      81.170  41.341 113.5520  0.00  0.00     0.000 O
ATOM     69   O  Z9K D   4      78.831  42.350 113.7890  0.00  0.00     0.000 OA
ATOM     70   S  Z9K D   4      79.807  41.508 114.4110  0.00  0.00     0.000 S
ATOM     71   O  Z9K D   4      80.130  41.491 115.8050  0.00  0.00     0.000 OA
ATOM     72   O  Z9K D   4      79.705  40.168 113.9310  0.00  0.00     0.000 OA
ENDBRANCH 61 68
BRANCH 64 73
ATOM     73   C  Z9K D   4      84.151  46.265 114.0680  0.00  0.00     0.000 C
ATOM     74   O  Z9K D   4      83.781  47.472 113.9740  0.00  0.00     0.000 O
ATOM     75   O  Z9K D   4      85.387  46.047 114.0700  0.00  0.00     0.000 OA
ENDBRANCH 64 73
BRANCH 60 76
ATOM     76  O4  Z9L D   5      82.525  43.110 116.2670  0.00  0.00     0.000 O
BRANCH 76 80
ATOM     77  C1  Z9L D   5      84.351  42.181 119.6980  0.00  0.00     0.000 C
ATOM     78  C2  Z9L D   5      84.683  43.720 119.3910  0.00  0.00     0.000 C
ATOM     79  C3  Z9L D   5      83.568  44.234 118.2280  0.00  0.00     0.000 C
ATOM     80  C4  Z9L D   5      83.547  42.936 117.2140  0.00  0.00     0.000 C
ATOM     81  C5  Z9L D   5      83.445  41.357 117.5260  0.00  0.00     0.000 C
ATOM     82  O5  Z9L D   5      84.283  41.115 118.6660  0.00  0.00     0.000 O
ATOM     83   C  Z9L D   5      82.740  40.799 120.8750  0.00  0.00     0.000 C
ATOM     84   C  Z9L D   5      82.740  40.799 120.8750  0.00  0.00     0.000 C
BRANCH 78 85
ATOM     85   O  Z9L D   5      84.488  44.445 120.5630  0.00  0.00     0.000 O
ATOM     86   O  Z9L D   5      85.885  45.276 121.5960  0.00  0.00     0.000 OA
ATOM     87   S  Z9L D   5      86.065  44.638 120.3270  0.00  0.00     0.000 S
ATOM     88   O  Z9L D   5      86.390  45.706 119.4140  0.00  0.00     0.000 OA
ATOM     89   O  Z9L D   5      86.888  43.508 120.5910  0.00  0.00     0.000 OA
ENDBRANCH 78 85
BRANCH 79 90
ATOM     90   O  Z9L D   5      84.100  45.238 117.4240  0.00  0.00     0.000 O
ATOM     91   S  Z9L D   5      82.828  46.004 117.9990  0.00  0.00     0.000 S
ATOM     92   O  Z9L D   5      82.593  46.153 119.4110  0.00  0.00     0.000 OA
ATOM     93   O  Z9L D   5      81.731  45.869 117.0750  0.00  0.00     0.000 O
ATOM     94   O  Z9L D   5      83.599  47.129 117.5780  0.00  0.00     0.000 OA
ENDBRANCH 79 90
BRANCH 81 95
ATOM     95   C  Z9L D   5      83.549  40.307 116.2210  0.00  0.00     0.000 C
ATOM     96   S  Z9L D   5      84.773  39.154 115.1550  0.00  0.00     0.000 S
ATOM     97   O  Z9L D   5      84.890  40.544 115.8860  0.00  0.00     0.000 O
ATOM     98   O  Z9L D   5      83.966  39.370 113.9810  0.00  0.00     0.000 OA
ATOM     99   O  Z9L D   5      84.568  38.025 115.9980  0.00  0.00     0.000 OA
ATOM    100   O  Z9L D   5      86.144  39.459 114.8270  0.00  0.00     0.000 O
ENDBRANCH 81 95
ENDBRANCH 76 80
ENDBRANCH 60 76
ENDBRANCH 59 63
ENDBRANCH 37 59
ENDBRANCH 36 40
ENDBRANCH 23 36
ENDBRANCH 22 26
ENDBRANCH 1 22
TORSDOF 19
ENDMDL
MODEL 69
REMARK VINA RESULT:       0.0     64.744     71.481
ROOT
ATOM      1  C1  Z9H D   1      49.949 124.609  60.6600  0.00  0.00     0.000 C
ATOM      2  C2  Z9H D   1      48.755 123.672  60.9600  0.00  0.00     0.000 C
ATOM      3  C3  Z9H D   1      49.554 122.489  61.5890  0.00  0.00     0.000 C
ATOM      4  C4  Z9H D   1      50.790 121.978  60.7400  0.00  0.00     0.000 C
ATOM      5  C5  Z9H D   1      51.867 122.948  60.1110  0.00  0.00     0.000 C
ATOM      6  O5  Z9H D   1      51.075 124.138  59.8690  0.00  0.00     0.000 O
ATOM      7   O  Z9H D   1      48.697 121.396  61.9270  0.00  0.00     0.000 O
ATOM      8   C  Z9H D   1      48.300 121.329  63.3070  0.00  0.00     0.000 C
ATOM      9   O  Z9H D   1      51.491 121.062  61.5880  0.00  0.00     0.000 O
ATOM     10   C  Z9H D   1      51.226 119.675  61.3530  0.00  0.00     0.000 C
ENDROOT
BRANCH 2 11
ATOM     11   O  Z9H D   1      48.142 124.317  62.0450  0.00  0.00     0.000 O
ATOM     12   O  Z9H D   1      46.431 125.109  61.9800  0.00  0.00     0.000 OA
ATOM     13   S  Z9H D   1      47.044 124.409  60.9010  0.00  0.00     0.000 S
ATOM     14   O  Z9H D   1      46.509 123.096  60.6830  0.00  0.00     0.000 OA
ATOM     15   O  Z9H D   1      47.435 125.332  59.8600  0.00  0.00     0.000 O
ENDBRANCH 2 11
BRANCH 5 16
ATOM     16   C  Z9H D   1      52.813 122.273  58.9070  0.00  0.00     0.000 C
ATOM     17   S  Z9H D   1      54.662 122.226  58.1210  0.00  0.00     0.000 S
ATOM     18   O  Z9H D   1      54.034 122.258  59.6070  0.00  0.00     0.000 O
ATOM     19   O  Z9H D   1      54.473 123.427  57.3600  0.00  0.00     0.000 O
ATOM     20   O  Z9H D   1      54.540 120.924  57.5650  0.00  0.00     0.000 OA
ATOM     21   O  Z9H D   1      55.874 122.262  58.8870  0.00  0.00     0.000 OA
ENDBRANCH 5 16
BRANCH 1 22
ATOM     22  O4  GU1 D   2      50.653 125.116  61.8510  0.00  0.00     0.000 O
BRANCH 22 26
ATOM     23  C1  GU1 D   2      52.620 128.347  63.4820  0.00  0.00     0.000 C
ATOM     24  C2  GU1 D   2      51.461 128.701  62.5630  0.00  0.00     0.000 C
ATOM     25  C3  GU1 D   2      50.607 127.485  62.3490  0.00  0.00     0.000 C
ATOM     26  C4  GU1 D   2      51.445 126.309  61.8700  0.00  0.00     0.000 C
ATOM     27  C5  GU1 D   2      52.641 126.103  62.8050  0.00  0.00     0.000 C
ATOM     28  O5  GU1 D   2      53.401 127.303  62.9130  0.00  0.00     0.000 O
ATOM     29   O  GU1 D   2      50.643 129.728  63.1100  0.00  0.00     0.000 O
ATOM     30   C  GU1 D   2      50.953 131.028  62.6280  0.00  0.00     0.000 C
ATOM     31   C  GU1 D   2      48.324 128.060  61.8470  0.00  0.00     0.000 C
ATOM     32   O  GU1 D   2      49.631 127.789  61.3470  0.00  0.00     0.000 O
BRANCH 27 33
ATOM     33   C  GU1 D   2      53.558 125.019  62.2880  0.00  0.00     0.000 C
ATOM     34   O  GU1 D   2      54.202 125.238  61.2830  0.00  0.00     0.000 OA
ATOM     35   O  GU1 D   2      53.648 123.952  62.8740  0.00  0.00     0.000 O
ENDBRANCH 27 33
BRANCH 23 36
ATOM     36  O4  GU6 D   3      53.716 129.268  63.6480  0.00  0.00     0.000 O
BRANCH 36 40
ATOM     37  C1  GU6 D   3      57.294 131.218  63.3410  0.00  0.00     0.000 C
ATOM     38  C2  GU6 D   3      56.605 131.397  64.6880  0.00  0.00     0.000 C
ATOM     39  C3  GU6 D   3      55.451 130.435  64.7970  0.00  0.00     0.000 C
ATOM     40  C4  GU6 D   3      55.061 129.699  63.5900  0.00  0.00     0.000 C
ATOM     41  C5  GU6 D   3      55.192 130.634  62.3430  0.00  0.00     0.000 C
ATOM     42  O5  GU6 D   3      56.350 131.476  62.3130  0.00  0.00     0.000 O
BRANCH 38 43
ATOM     43   O  GU6 D   3      57.518 131.179  65.7460  0.00  0.00     0.000 O
ATOM     44   S  GU6 D   3      57.622 132.332  66.7350  0.00  0.00     0.000 S
ATOM     45   O  GU6 D   3      58.527 133.350  66.1740  0.00  0.00     0.000 OA
ATOM     46   O  GU6 D   3      56.282 132.917  66.9200  0.00  0.00     0.000 O
ATOM     47   O  GU6 D   3      58.123 131.818  68.0060  0.00  0.00     0.000 OA
ENDBRANCH 38 43
BRANCH 39 48
ATOM     48   O  GU6 D   3      54.919 130.080  66.0590  0.00  0.00     0.000 O
ATOM     49   S  GU6 D   3      55.188 128.851  66.9270  0.00  0.00     0.000 S
ATOM     50   O  GU6 D   3      56.626 128.720  67.1860  0.00  0.00     0.000 OA
ATOM     51   O  GU6 D   3      54.450 129.148  68.1620  0.00  0.00     0.000 OA
ATOM     52   O  GU6 D   3      54.688 127.649  66.2240  0.00  0.00     0.000 O
ENDBRANCH 39 48
BRANCH 41 53
ATOM     53   C  GU6 D   3      54.276 130.765  61.1560  0.00  0.00     0.000 C
ATOM     54   O  GU6 D   3      54.471 129.481  60.6220  0.00  0.00     0.000 O
ATOM     55   S  GU6 D   3      53.832 129.089  59.2830  0.00  0.00     0.000 S
ATOM     56   O  GU6 D   3      54.474 129.924  58.2420  0.00  0.00     0.000 O
ATOM     57   O  GU6 D   3      54.093 127.663  59.0390  0.00  0.00     0.000 OA
ATOM     58   O  GU6 D   3      52.385 129.383  59.3850  0.00  0.00     0.000 OA
ENDBRANCH 41 53
BRANCH 37 59
ATOM     59  O4  Z9K D   4      58.051 130.055  62.9460  0.00  0.00     0.000 O
BRANCH 59 63
ATOM     60  C1  Z9K D   4      61.154 127.652  62.7310  0.00  0.00     0.000 C
ATOM     61  C2  Z9K D   4      61.802 128.927  63.3380  0.00  0.00     0.000 C
ATOM     62  C3  Z9K D   4      60.516 129.826  63.5930  0.00  0.00     0.000 C
ATOM     63  C4  Z9K D   4      59.422 129.941  62.4640  0.00  0.00     0.000 C
ATOM     64  C5  Z9K D   4      59.331 128.756  61.4910  0.00  0.00     0.000 C
ATOM     65  O5  Z9K D   4      59.707 127.626  62.3220  0.00  0.00     0.000 O
ATOM     66   O  Z9K D   4      60.832 131.187  63.9400  0.00  0.00     0.000 O
ATOM     67   C  Z9K D   4      61.084 131.396  65.3200  0.00  0.00     0.000 C
BRANCH 61 68
ATOM     68   O  Z9K D   4      62.295 128.576  64.6020  0.00  0.00     0.000 O
ATOM     69   O  Z9K D   4      63.769 130.350  63.4930  0.00  0.00     0.000 OA
ATOM     70   S  Z9K D   4      63.653 128.958  63.8070  0.00  0.00     0.000 S
ATOM     71   O  Z9K D   4      64.008 127.873  62.9430  0.00  0.00     0.000 OA
ATOM     72   O  Z9K D   4      64.133 128.691  65.1250  0.00  0.00     0.000 OA
ENDBRANCH 61 68
BRANCH 64 73
ATOM     73   C  Z9K D   4      57.960 128.732  60.7820  0.00  0.00     0.000 C
ATOM     74   O  Z9K D   4      57.664 129.588  59.8990  0.00  0.00     0.000 O
ATOM     75   O  Z9K D   4      57.094 127.863  61.0460  0.00  0.00     0.000 OA
ENDBRANCH 64 73
BRANCH 60 76
ATOM     76  O4  Z9L D   5      61.602 126.866  61.6130  0.00  0.00     0.000 O
BRANCH 76 80
ATOM     77  C1  Z9L D   5      62.068 123.141  60.2430  0.00  0.00     0.000 C
ATOM     78  C2  Z9L D   5      60.982 123.855  59.3030  0.00  0.00     0.000 C
ATOM     79  C3  Z9L D   5      61.122 125.518  59.5760  0.00  0.00     0.000 C
ATOM     80  C4  Z9L D   5      61.289 125.556  61.2150  0.00  0.00     0.000 C
ATOM     81  C5  Z9L D   5      62.216 124.679  62.2010  0.00  0.00     0.000 C
ATOM     82  O5  Z9L D   5      62.160 123.330  61.7130  0.00  0.00     0.000 O
ATOM     83   C  Z9L D   5      64.459 122.746  60.3950  0.00  0.00     0.000 C
ATOM     84   C  Z9L D   5      64.459 122.746  60.3950  0.00  0.00     0.000 C
BRANCH 78 85
ATOM     85   O  Z9L D   5      61.310 123.581  57.9790  0.00  0.00     0.000 O
ATOM     86   O  Z9L D   5      60.286 122.459  56.7940  0.00  0.00     0.000 OA
ATOM     87   S  Z9L D   5      59.888 122.844  58.1140  0.00  0.00     0.000 S
ATOM     88   O  Z9L D   5      58.759 123.721  57.9230  0.00  0.00     0.000 OA
ATOM     89   O  Z9L D   5      59.869 121.637  58.8660  0.00  0.00     0.000 OA
ENDBRANCH 78 85
BRANCH 79 90
ATOM     90   O  Z9L D   5      59.906 126.168  59.3810  0.00  0.00     0.000 O
ATOM     91   S  Z9L D   5      60.801 126.953  58.3240  0.00  0.00     0.000 S
ATOM     92   O  Z9L D   5      61.525 126.282  57.2770  0.00  0.00     0.000 OA
ATOM     93   O  Z9L D   5      61.323 128.150  58.9360  0.00  0.00     0.000 O
ATOM     94   O  Z9L D   5      59.510 127.273  57.8080  0.00  0.00     0.000 OA
ENDBRANCH 79 90
BRANCH 81 95
ATOM     95   C  Z9L D   5      62.049 124.941  63.8490  0.00  0.00     0.000 C
ATOM     96   S  Z9L D   5      61.154 124.310  65.5130  0.00  0.00     0.000 S
ATOM     97   O  Z9L D   5      60.750 124.433  63.9960  0.00  0.00     0.000 O
ATOM     98   O  Z9L D   5      61.184 125.649  66.0440  0.00  0.00     0.000 OA
ATOM     99   O  Z9L D   5      62.188 123.375  65.8040  0.00  0.00     0.000 OA
ATOM    100   O  Z9L D   5      59.804 123.812  65.6060  0.00  0.00     0.000 O
ENDBRANCH 81 95
ENDBRANCH 76 80
ENDBRANCH 60 76
ENDBRANCH 59 63
ENDBRANCH 37 59
ENDBRANCH 36 40
ENDBRANCH 23 36
ENDBRANCH 22 26
ENDBRANCH 1 22
TORSDOF 19
ENDMDL
MODEL 70
REMARK VINA RESULT:       0.0     58.061     63.537
ROOT
ATOM      1  C1  Z9H D   1      76.883  87.055  32.9230  0.00  0.00     0.000 C
ATOM      2  C2  Z9H D   1      77.023  87.683  34.3300  0.00  0.00     0.000 C
ATOM      3  C3  Z9H D   1      78.578  87.791  34.3720  0.00  0.00     0.000 C
ATOM      4  C4  Z9H D   1      79.361  86.466  33.9960  0.00  0.00     0.000 C
ATOM      5  C5  Z9H D   1      79.017  85.589  32.7270  0.00  0.00     0.000 C
ATOM      6  O5  Z9H D   1      77.594  85.831  32.5880  0.00  0.00     0.000 O
ATOM      7   O  Z9H D   1      79.037  88.301  35.6250  0.00  0.00     0.000 O
ATOM      8   C  Z9H D   1      79.344  89.705  35.6440  0.00  0.00     0.000 C
ATOM      9   O  Z9H D   1      80.737  86.846  33.8860  0.00  0.00     0.000 O
ATOM     10   C  Z9H D   1      81.549  86.563  35.0300  0.00  0.00     0.000 C
ENDROOT
BRANCH 2 11
ATOM     11   O  Z9H D   1      76.571  88.994  34.1110  0.00  0.00     0.000 O
ATOM     12   O  Z9H D   1      74.994  89.710  34.8590  0.00  0.00     0.000 OA
ATOM     13   S  Z9H D   1      75.489  88.398  35.1100  0.00  0.00     0.000 S
ATOM     14   O  Z9H D   1      76.101  88.247  36.4000  0.00  0.00     0.000 OA
ATOM     15   O  Z9H D   1      74.653  87.412  34.4660  0.00  0.00     0.000 O
ENDBRANCH 2 11
BRANCH 5 16
ATOM     16   C  Z9H D   1      79.637  84.035  32.7490  0.00  0.00     0.000 C
ATOM     17   S  Z9H D   1      80.436  82.583  31.6130  0.00  0.00     0.000 S
ATOM     18   O  Z9H D   1      80.576  84.188  31.7110  0.00  0.00     0.000 O
ATOM     19   O  Z9H D   1      79.163  82.116  31.1460  0.00  0.00     0.000 O
ATOM     20   O  Z9H D   1      81.154  81.962  32.6710  0.00  0.00     0.000 OA
ATOM     21   O  Z9H D   1      81.354  82.805  30.5340  0.00  0.00     0.000 OA
ENDBRANCH 5 16
BRANCH 1 22
ATOM     22  O4  GU1 D   2      77.310  87.924  31.8120  0.00  0.00     0.000 O
BRANCH 22 26
ATOM     23  C1  GU1 D   2      76.550  89.035  27.9180  0.00  0.00     0.000 C
ATOM     24  C2  GU1 D   2      75.315  88.701  28.7410  0.00  0.00     0.000 C
ATOM     25  C3  GU1 D   2      75.676  88.692  30.1990  0.00  0.00     0.000 C
ATOM     26  C4  GU1 D   2      76.864  87.778  30.4590  0.00  0.00     0.000 C
ATOM     27  C5  GU1 D   2      78.014  88.129  29.5100  0.00  0.00     0.000 C
ATOM     28  O5  GU1 D   2      77.575  88.078  28.1550  0.00  0.00     0.000 O
ATOM     29   O  GU1 D   2      74.274  89.651  28.5470  0.00  0.00     0.000 O
ATOM     30   C  GU1 D   2      73.303  89.252  27.5900  0.00  0.00     0.000 C
ATOM     31   C  GU1 D   2      73.790  89.210  31.6010  0.00  0.00     0.000 C
ATOM     32   O  GU1 D   2      74.552  88.204  30.9390  0.00  0.00     0.000 O
BRANCH 27 33
ATOM     33   C  GU1 D   2      79.163  87.161  29.6620  0.00  0.00     0.000 C
ATOM     34   O  GU1 D   2      79.010  86.019  29.2800  0.00  0.00     0.000 OA
ATOM     35   O  GU1 D   2      80.220  87.524  30.1540  0.00  0.00     0.000 O
ENDBRANCH 27 33
BRANCH 23 36
ATOM     36  O4  GU6 D   3      76.529  88.867  26.4870  0.00  0.00     0.000 O
BRANCH 36 40
ATOM     37  C1  GU6 D   3      76.962  87.417  22.6920  0.00  0.00     0.000 C
ATOM     38  C2  GU6 D   3      76.909  88.937  22.7710  0.00  0.00     0.000 C
ATOM     39  C3  GU6 D   3      77.024  89.373  24.2080  0.00  0.00     0.000 C
ATOM     40  C4  GU6 D   3      76.939  88.336  25.2430  0.00  0.00     0.000 C
ATOM     41  C5  GU6 D   3      75.876  87.267  24.8250  0.00  0.00     0.000 C
ATOM     42  O5  GU6 D   3      75.882  86.887  23.4450  0.00  0.00     0.000 O
BRANCH 38 43
ATOM     43   O  GU6 D   3      77.952  89.512  22.0070  0.00  0.00     0.000 O
ATOM     44   S  GU6 D   3      77.486  90.515  20.9600  0.00  0.00     0.000 S
ATOM     45   O  GU6 D   3      77.034  89.774  19.7700  0.00  0.00     0.000 OA
ATOM     46   O  GU6 D   3      76.359  91.286  21.5150  0.00  0.00     0.000 O
ATOM     47   O  GU6 D   3      78.595  91.409  20.6400  0.00  0.00     0.000 OA
ENDBRANCH 38 43
BRANCH 39 48
ATOM     48   O  GU6 D   3      77.430  90.687  24.5390  0.00  0.00     0.000 O
ATOM     49   S  GU6 D   3      78.806  91.216  24.9410  0.00  0.00     0.000 S
ATOM     50   O  GU6 D   3      79.800  90.867  23.9200  0.00  0.00     0.000 OA
ATOM     51   O  GU6 D   3      78.598  92.670  25.0050  0.00  0.00     0.000 OA
ATOM     52   O  GU6 D   3      79.186  90.624  26.2430  0.00  0.00     0.000 O
ENDBRANCH 39 48
BRANCH 41 53
ATOM     53   C  GU6 D   3      74.853  86.566  25.6770  0.00  0.00     0.000 C
ATOM     54   O  GU6 D   3      75.742  85.842  26.4880  0.00  0.00     0.000 O
ATOM     55   S  GU6 D   3      75.214  84.828  27.5100  0.00  0.00     0.000 S
ATOM     56   O  GU6 D   3      74.584  83.731  26.7390  0.00  0.00     0.000 O
ATOM     57   O  GU6 D   3      76.348  84.324  28.2990  0.00  0.00     0.000 OA
ATOM     58   O  GU6 D   3      74.217  85.529  28.3500  0.00  0.00     0.000 OA
ENDBRANCH 41 53
BRANCH 37 59
ATOM     59  O4  Z9K D   4      78.124  86.612  22.9840  0.00  0.00     0.000 O
BRANCH 59 63
ATOM     60  C1  Z9K D   4      81.595  84.889  22.3300  0.00  0.00     0.000 C
ATOM     61  C2  Z9K D   4      81.210  85.344  20.8950  0.00  0.00     0.000 C
ATOM     62  C3  Z9K D   4      79.902  86.198  21.1910  0.00  0.00     0.000 C
ATOM     63  C4  Z9K D   4      78.811  85.618  22.1690  0.00  0.00     0.000 C
ATOM     64  C5  Z9K D   4      79.313  84.619  23.2240  0.00  0.00     0.000 C
ATOM     65  O5  Z9K D   4      80.661  85.086  23.4930  0.00  0.00     0.000 O
ATOM     66   O  Z9K D   4      79.177  86.559  20.0010  0.00  0.00     0.000 O
ATOM     67   C  Z9K D   4      79.639  87.741  19.3690  0.00  0.00     0.000 C
BRANCH 61 68
ATOM     68   O  Z9K D   4      82.189  86.256  20.4770  0.00  0.00     0.000 O
ATOM     69   O  Z9K D   4      81.297  84.886  18.5080  0.00  0.00     0.000 OA
ATOM     70   S  Z9K D   4      82.388  85.043  19.4220  0.00  0.00     0.000 S
ATOM     71   O  Z9K D   4      83.102  83.981  20.0620  0.00  0.00     0.000 OA
ATOM     72   O  Z9K D   4      83.315  86.019  18.9460  0.00  0.00     0.000 OA
ENDBRANCH 61 68
BRANCH 64 73
ATOM     73   C  Z9K D   4      78.317  84.513  24.3980  0.00  0.00     0.000 C
ATOM     74   O  Z9K D   4      77.200  83.934  24.2590  0.00  0.00     0.000 O
ATOM     75   O  Z9K D   4      78.576  84.988  25.5300  0.00  0.00     0.000 OA
ENDBRANCH 64 73
BRANCH 60 76
ATOM     76  O4  Z9L D   5      82.049  83.596  22.7670  0.00  0.00     0.000 O
BRANCH 76 80
ATOM     77  C1  Z9L D   5      84.636  81.699  25.1500  0.00  0.00     0.000 C
ATOM     78  C2  Z9L D   5      83.164  81.363  25.6920  0.00  0.00     0.000 C
ATOM     79  C3  Z9L D   5      82.087  81.764  24.4510  0.00  0.00     0.000 C
ATOM     80  C4  Z9L D   5      82.721  83.194  23.9330  0.00  0.00     0.000 C
ATOM     81  C5  Z9L D   5      84.242  83.614  23.6020  0.00  0.00     0.000 C
ATOM     82  O5  Z9L D   5      85.056  83.024  24.6270  0.00  0.00     0.000 O
ATOM     83   C  Z9L D   5      86.326  80.842  23.6320  0.00  0.00     0.000 C
ATOM     84   C  Z9L D   5      86.326  80.842  23.6320  0.00  0.00     0.000 C
BRANCH 78 85
ATOM     85   O  Z9L D   5      83.094  79.994  25.9310  0.00  0.00     0.000 O
ATOM     86   O  Z9L D   5      82.952  79.180  27.6720  0.00  0.00     0.000 OA
ATOM     87   S  Z9L D   5      82.898  80.587  27.4120  0.00  0.00     0.000 S
ATOM     88   O  Z9L D   5      81.540  80.970  27.7090  0.00  0.00     0.000 OA
ATOM     89   O  Z9L D   5      84.056  81.128  28.0360  0.00  0.00     0.000 OA
ENDBRANCH 78 85
BRANCH 79 90
ATOM     90   O  Z9L D   5      80.849  82.149  24.9600  0.00  0.00     0.000 O
ATOM     91   S  Z9L D   5      80.393  80.931  24.0400  0.00  0.00     0.000 S
ATOM     92   O  Z9L D   5      80.941  79.608  24.1860  0.00  0.00     0.000 OA
ATOM     93   O  Z9L D   5      79.998  81.431  22.7470  0.00  0.00     0.000 O
ATOM     94   O  Z9L D   5      79.250  81.012  24.8900  0.00  0.00     0.000 OA
ENDBRANCH 79 90
BRANCH 81 95
ATOM     95   C  Z9L D   5      84.524  85.213  23.1800  0.00  0.00     0.000 C
ATOM     96   S  Z9L D   5      85.074  87.002  23.8600  0.00  0.00     0.000 S
ATOM     97   O  Z9L D   5      84.228  85.797  24.4200  0.00  0.00     0.000 O
ATOM     98   O  Z9L D   5      84.268  87.641  22.8520  0.00  0.00     0.000 OA
ATOM     99   O  Z9L D   5      86.458  86.741  23.6480  0.00  0.00     0.000 OA
ATOM    100   O  Z9L D   5      84.724  87.558  25.1440  0.00  0.00     0.000 O
ENDBRANCH 81 95
ENDBRANCH 76 80
ENDBRANCH 60 76
ENDBRANCH 59 63
ENDBRANCH 37 59
ENDBRANCH 36 40
ENDBRANCH 23 36
ENDBRANCH 22 26
ENDBRANCH 1 22
TORSDOF 19
ENDMDL
MODEL 71
REMARK VINA RESULT:       0.0    107.270    112.701
ROOT
ATOM      1  C1  Z9H D   1     138.230  28.034  91.7070  0.00  0.00     0.000 C
ATOM      2  C2  Z9H D   1     139.196  26.968  91.1380  0.00  0.00     0.000 C
ATOM      3  C3  Z9H D   1     140.115  26.811  92.3890  0.00  0.00     0.000 C
ATOM      4  C4  Z9H D   1     140.672  28.164  92.9970  0.00  0.00     0.000 C
ATOM      5  C5  Z9H D   1     139.760  29.424  93.2780  0.00  0.00     0.000 C
ATOM      6  O5  Z9H D   1     138.747  29.281  92.2510  0.00  0.00     0.000 O
ATOM      7   O  Z9H D   1     141.187  25.898  92.1430  0.00  0.00     0.000 O
ATOM      8   C  Z9H D   1     140.981  24.561  92.6300  0.00  0.00     0.000 C
ATOM      9   O  Z9H D   1     141.293  27.807  94.2360  0.00  0.00     0.000 O
ATOM     10   C  Z9H D   1     142.716  27.668  94.1960  0.00  0.00     0.000 C
ENDROOT
BRANCH 2 11
ATOM     11   O  Z9H D   1     138.390  25.819  91.1300  0.00  0.00     0.000 O
ATOM     12   O  Z9H D   1     137.820  24.936  89.5640  0.00  0.00     0.000 OA
ATOM     13   S  Z9H D   1     138.676  26.073  89.5880  0.00  0.00     0.000 S
ATOM     14   O  Z9H D   1     140.054  25.768  89.3290  0.00  0.00     0.000 OA
ATOM     15   O  Z9H D   1     137.977  27.241  89.1020  0.00  0.00     0.000 O
ENDBRANCH 2 11
BRANCH 5 16
ATOM     16   C  Z9H D   1     140.587  30.864  93.4900  0.00  0.00     0.000 C
ATOM     17   S  Z9H D   1     140.615  32.591  94.5170  0.00  0.00     0.000 S
ATOM     18   O  Z9H D   1     140.314  31.042  94.8590  0.00  0.00     0.000 O
ATOM     19   O  Z9H D   1     139.644  33.221  93.6700  0.00  0.00     0.000 O
ATOM     20   O  Z9H D   1     142.015  32.802  94.3890  0.00  0.00     0.000 OA
ATOM     21   O  Z9H D   1     140.279  32.719  95.9050  0.00  0.00     0.000 OA
ENDBRANCH 5 16
BRANCH 1 22
ATOM     22  O4  GU1 D   2     137.396  27.577  92.8320  0.00  0.00     0.000 O
BRANCH 22 26
ATOM     23  C1  GU1 D   2     133.690  27.856  94.6100  0.00  0.00     0.000 C
ATOM     24  C2  GU1 D   2     133.678  27.927  93.0910  0.00  0.00     0.000 C
ATOM     25  C3  GU1 D   2     134.994  27.438  92.5590  0.00  0.00     0.000 C
ATOM     26  C4  GU1 D   2     136.152  28.180  93.2090  0.00  0.00     0.000 C
ATOM     27  C5  GU1 D   2     136.014  28.137  94.7330  0.00  0.00     0.000 C
ATOM     28  O5  GU1 D   2     134.747  28.651  95.1340  0.00  0.00     0.000 O
ATOM     29   O  GU1 D   2     132.646  27.125  92.5290  0.00  0.00     0.000 O
ATOM     30   C  GU1 D   2     131.463  27.848  92.2150  0.00  0.00     0.000 C
ATOM     31   C  GU1 D   2     134.791  26.530  90.3390  0.00  0.00     0.000 C
ATOM     32   O  GU1 D   2     135.029  27.679  91.1490  0.00  0.00     0.000 O
BRANCH 27 33
ATOM     33   C  GU1 D   2     137.084  28.967  95.4030  0.00  0.00     0.000 C
ATOM     34   O  GU1 D   2     137.031  30.175  95.2920  0.00  0.00     0.000 OA
ATOM     35   O  GU1 D   2     137.975  28.432  96.0430  0.00  0.00     0.000 O
ENDBRANCH 27 33
BRANCH 23 36
ATOM     36  O4  GU6 D   3     132.645  28.494  95.3710  0.00  0.00     0.000 O
BRANCH 36 40
ATOM     37  C1  GU6 D   3     130.449  31.120  97.6000  0.00  0.00     0.000 C
ATOM     38  C2  GU6 D   3     130.043  29.663  97.7840  0.00  0.00     0.000 C
ATOM     39  C3  GU6 D   3     131.072  28.768  97.1430  0.00  0.00     0.000 C
ATOM     40  C4  GU6 D   3     132.099  29.400  96.3080  0.00  0.00     0.000 C
ATOM     41  C5  GU6 D   3     131.462  30.575  95.4950  0.00  0.00     0.000 C
ATOM     42  O5  GU6 D   3     130.531  31.396  96.2110  0.00  0.00     0.000 O
BRANCH 38 43
ATOM     43   O  GU6 D   3     129.918  29.350  99.1570  0.00  0.00     0.000 O
ATOM     44   S  GU6 D   3     128.566  28.769  99.5500  0.00  0.00     0.000 S
ATOM     45   O  GU6 D   3     127.612  29.878  99.7240  0.00  0.00     0.000 OA
ATOM     46   O  GU6 D   3     128.100  27.887  98.4650  0.00  0.00     0.000 O
ATOM     47   O  GU6 D   3     128.724  28.005 100.7840  0.00  0.00     0.000 OA
ENDBRANCH 38 43
BRANCH 39 48
ATOM     48   O  GU6 D   3     131.186  27.409  97.5180  0.00  0.00     0.000 O
ATOM     49   S  GU6 D   3     132.151  26.739  98.4960  0.00  0.00     0.000 S
ATOM     50   O  GU6 D   3     132.067  27.384  99.8110  0.00  0.00     0.000 OA
ATOM     51   O  GU6 D   3     131.662  25.355  98.5500  0.00  0.00     0.000 OA
ATOM     52   O  GU6 D   3     133.528  26.851  97.9630  0.00  0.00     0.000 O
ENDBRANCH 39 48
BRANCH 41 53
ATOM     53   C  GU6 D   3     131.701  30.978  94.0650  0.00  0.00     0.000 C
ATOM     54   O  GU6 D   3     133.044  31.364  94.1980  0.00  0.00     0.000 O
ATOM     55   S  GU6 D   3     133.794  31.991  93.0150  0.00  0.00     0.000 S
ATOM     56   O  GU6 D   3     133.153  33.299  92.7470  0.00  0.00     0.000 O
ATOM     57   O  GU6 D   3     135.203  32.171  93.3960  0.00  0.00     0.000 OA
ATOM     58   O  GU6 D   3     133.639  31.076  91.8620  0.00  0.00     0.000 OA
ENDBRANCH 41 53
BRANCH 37 59
ATOM     59  O4  Z9K D   4     131.585  31.750  98.2310  0.00  0.00     0.000 O
BRANCH 59 63
ATOM     60  C1  Z9K D   4     133.632  33.499 101.0940  0.00  0.00     0.000 C
ATOM     61  C2  Z9K D   4     132.191  33.561 101.6720  0.00  0.00     0.000 C
ATOM     62  C3  Z9K D   4     131.399  32.693 100.6020  0.00  0.00     0.000 C
ATOM     63  C4  Z9K D   4     131.659  32.941  99.0670  0.00  0.00     0.000 C
ATOM     64  C5  Z9K D   4     133.037  33.514  98.7010  0.00  0.00     0.000 C
ATOM     65  O5  Z9K D   4     133.902  32.948  99.7200  0.00  0.00     0.000 O
ATOM     66   O  Z9K D   4     129.970  32.771 100.7510  0.00  0.00     0.000 O
ATOM     67   C  Z9K D   4     129.428  31.858 101.6910  0.00  0.00     0.000 C
BRANCH 61 68
ATOM     68   O  Z9K D   4     132.193  32.817 102.8600  0.00  0.00     0.000 O
ATOM     69   O  Z9K D   4     130.571  34.791 103.0060  0.00  0.00     0.000 OA
ATOM     70   S  Z9K D   4     131.860  34.307 103.3990  0.00  0.00     0.000 S
ATOM     71   O  Z9K D   4     133.068  35.074 103.4250  0.00  0.00     0.000 OA
ATOM     72   O  Z9K D   4     131.769  33.523 104.5880  0.00  0.00     0.000 OA
ENDBRANCH 61 68
BRANCH 64 73
ATOM     73   C  Z9K D   4     133.365  33.247  97.2170  0.00  0.00     0.000 C
ATOM     74   O  Z9K D   4     132.767  33.868  96.2910  0.00  0.00     0.000 O
ATOM     75   O  Z9K D   4     134.238  32.413  96.8720  0.00  0.00     0.000 OA
ENDBRANCH 64 73
BRANCH 60 76
ATOM     76  O4  Z9L D   5     134.599  34.558 100.9840  0.00  0.00     0.000 O
BRANCH 76 80
ATOM     77  C1  Z9L D   5     138.466  35.477 101.3910  0.00  0.00     0.000 C
ATOM     78  C2  Z9L D   5     138.103  35.651  99.8380  0.00  0.00     0.000 C
ATOM     79  C3  Z9L D   5     136.416  35.717  99.7390  0.00  0.00     0.000 C
ATOM     80  C4  Z9L D   5     135.990  34.528 100.7970  0.00  0.00     0.000 C
ATOM     81  C5  Z9L D   5     136.519  34.202 102.2850  0.00  0.00     0.000 C
ATOM     82  O5  Z9L D   5     137.941  34.393 102.2600  0.00  0.00     0.000 O
ATOM     83   C  Z9L D   5     138.563  36.748 103.4570  0.00  0.00     0.000 C
ATOM     84   C  Z9L D   5     138.563  36.748 103.4570  0.00  0.00     0.000 C
BRANCH 78 85
ATOM     85   O  Z9L D   5     138.634  36.862  99.4040  0.00  0.00     0.000 O
ATOM     86   O  Z9L D   5     140.096  37.048  98.1640  0.00  0.00     0.000 OA
ATOM     87   S  Z9L D   5     139.466  35.812  98.5160  0.00  0.00     0.000 S
ATOM     88   O  Z9L D   5     138.780  35.388  97.3210  0.00  0.00     0.000 OA
ATOM     89   O  Z9L D   5     140.467  35.063  99.1950  0.00  0.00     0.000 OA
ENDBRANCH 78 85
BRANCH 79 90
ATOM     90   O  Z9L D   5     135.959  35.218  98.5230  0.00  0.00     0.000 O
ATOM     91   S  Z9L D   5     135.343  36.685  98.4570  0.00  0.00     0.000 S
ATOM     92   O  Z9L D   5     136.155  37.867  98.5810  0.00  0.00     0.000 OA
ATOM     93   O  Z9L D   5     133.991  36.658  98.9560  0.00  0.00     0.000 O
ATOM     94   O  Z9L D   5     135.288  36.354  97.0700  0.00  0.00     0.000 OA
ENDBRANCH 79 90
BRANCH 81 95
ATOM     95   C  Z9L D   5     135.910  32.831 103.0350  0.00  0.00     0.000 C
ATOM     96   S  Z9L D   5     136.237  30.903 103.4130  0.00  0.00     0.000 S
ATOM     97   O  Z9L D   5     136.505  31.873 102.2010  0.00  0.00     0.000 O
ATOM     98   O  Z9L D   5     134.818  30.660 103.4450  0.00  0.00     0.000 OA
ATOM     99   O  Z9L D   5     136.968  31.183 104.6030  0.00  0.00     0.000 OA
ATOM    100   O  Z9L D   5     136.841  29.958 102.5060  0.00  0.00     0.000 O
ENDBRANCH 81 95
ENDBRANCH 76 80
ENDBRANCH 60 76
ENDBRANCH 59 63
ENDBRANCH 37 59
ENDBRANCH 36 40
ENDBRANCH 23 36
ENDBRANCH 22 26
ENDBRANCH 1 22
TORSDOF 19
ENDMDL
MODEL 72
REMARK VINA RESULT:       0.0     74.049     79.105
ROOT
ATOM      1  C1  Z9H D   1      96.612  50.400  16.7460  0.00  0.00     0.000 C
ATOM      2  C2  Z9H D   1      97.057  48.921  16.6670  0.00  0.00     0.000 C
ATOM      3  C3  Z9H D   1      98.394  49.131  15.8940  0.00  0.00     0.000 C
ATOM      4  C4  Z9H D   1      98.289  50.015  14.5830  0.00  0.00     0.000 C
ATOM      5  C5  Z9H D   1      97.531  51.401  14.5340  0.00  0.00     0.000 C
ATOM      6  O5  Z9H D   1      96.504  51.202  15.5370  0.00  0.00     0.000 O
ATOM      7   O  Z9H D   1      99.037  47.888  15.6050  0.00  0.00     0.000 O
ATOM      8   C  Z9H D   1     100.089  47.514  16.5090  0.00  0.00     0.000 C
ATOM      9   O  Z9H D   1      99.637  50.256  14.1670  0.00  0.00     0.000 O
ATOM     10   C  Z9H D   1     100.120  49.412  13.1170  0.00  0.00     0.000 C
ENDROOT
BRANCH 2 11
ATOM     11   O  Z9H D   1      97.438  48.659  17.9930  0.00  0.00     0.000 O
ATOM     12   O  Z9H D   1      96.536  47.462  19.1380  0.00  0.00     0.000 OA
ATOM     13   S  Z9H D   1      96.190  47.700  17.7770  0.00  0.00     0.000 S
ATOM     14   O  Z9H D   1      96.580  46.646  16.8860  0.00  0.00     0.000 OA
ATOM     15   O  Z9H D   1      94.953  48.443  17.6950  0.00  0.00     0.000 O
ENDBRANCH 2 11
BRANCH 5 16
ATOM     16   C  Z9H D   1      97.154  51.949  12.9980  0.00  0.00     0.000 C
ATOM     17   S  Z9H D   1      97.004  53.587  11.8430  0.00  0.00     0.000 S
ATOM     18   O  Z9H D   1      98.032  53.048  12.9650  0.00  0.00     0.000 O
ATOM     19   O  Z9H D   1      95.701  53.931  12.3350  0.00  0.00     0.000 O
ATOM     20   O  Z9H D   1      97.218  52.905  10.6140  0.00  0.00     0.000 OA
ATOM     21   O  Z9H D   1      97.906  54.700  11.8880  0.00  0.00     0.000 OA
ENDBRANCH 5 16
BRANCH 1 22
ATOM     22  O4  GU1 D   2      97.481  51.265  17.5640  0.00  0.00     0.000 O
BRANCH 22 26
ATOM     23  C1  GU1 D   2      97.568  54.456  20.1680  0.00  0.00     0.000 C
ATOM     24  C2  GU1 D   2      96.347  53.558  20.2970  0.00  0.00     0.000 C
ATOM     25  C3  GU1 D   2      96.609  52.258  19.5930  0.00  0.00     0.000 C
ATOM     26  C4  GU1 D   2      97.057  52.498  18.1590  0.00  0.00     0.000 C
ATOM     27  C5  GU1 D   2      98.221  53.493  18.1330  0.00  0.00     0.000 C
ATOM     28  O5  GU1 D   2      97.859  54.701  18.7970  0.00  0.00     0.000 O
ATOM     29   O  GU1 D   2      96.038  53.273  21.6560  0.00  0.00     0.000 O
ATOM     30   C  GU1 D   2      95.032  54.113  22.2060  0.00  0.00     0.000 C
ATOM     31   C  GU1 D   2      95.328  50.448  20.5280  0.00  0.00     0.000 C
ATOM     32   O  GU1 D   2      95.393  51.503  19.5720  0.00  0.00     0.000 O
BRANCH 27 33
ATOM     33   C  GU1 D   2      98.609  53.843  16.7160  0.00  0.00     0.000 C
ATOM     34   O  GU1 D   2      97.840  54.509  16.0540  0.00  0.00     0.000 OA
ATOM     35   O  GU1 D   2      99.674  53.466  16.2530  0.00  0.00     0.000 O
ENDBRANCH 27 33
BRANCH 23 36
ATOM     36  O4  GU6 D   3      97.484  55.845  20.5430  0.00  0.00     0.000 O
BRANCH 36 40
ATOM     37  C1  GU6 D   3      97.088  59.911  20.5030  0.00  0.00     0.000 C
ATOM     38  C2  GU6 D   3      97.910  59.381  21.6720  0.00  0.00     0.000 C
ATOM     39  C3  GU6 D   3      98.224  57.925  21.4480  0.00  0.00     0.000 C
ATOM     40  C4  GU6 D   3      97.542  57.243  20.3430  0.00  0.00     0.000 C
ATOM     41  C5  GU6 D   3      96.068  57.756  20.2420  0.00  0.00     0.000 C
ATOM     42  O5  GU6 D   3      95.884  59.165  20.4230  0.00  0.00     0.000 O
BRANCH 38 43
ATOM     43   O  GU6 D   3      99.110  60.118  21.8100  0.00  0.00     0.000 O
ATOM     44   S  GU6 D   3      99.321  60.722  23.1930  0.00  0.00     0.000 S
ATOM     45   O  GU6 D   3      98.550  61.975  23.2790  0.00  0.00     0.000 OA
ATOM     46   O  GU6 D   3      98.824  59.771  24.2030  0.00  0.00     0.000 O
ATOM     47   O  GU6 D   3     100.747  60.961  23.3890  0.00  0.00     0.000 OA
ENDBRANCH 38 43
BRANCH 39 48
ATOM     48   O  GU6 D   3      99.301  57.303  22.1230  0.00  0.00     0.000 O
ATOM     49   S  GU6 D   3     100.724  57.018  21.6450  0.00  0.00     0.000 S
ATOM     50   O  GU6 D   3     101.362  58.259  21.1900  0.00  0.00     0.000 OA
ATOM     51   O  GU6 D   3     101.381  56.495  22.8500  0.00  0.00     0.000 OA
ATOM     52   O  GU6 D   3     100.672  56.040  20.5370  0.00  0.00     0.000 O
ENDBRANCH 39 48
BRANCH 41 53
ATOM     53   C  GU6 D   3      94.810  56.977  19.9640  0.00  0.00     0.000 C
ATOM     54   O  GU6 D   3      95.112  56.590  18.6490  0.00  0.00     0.000 O
ATOM     55   S  GU6 D   3      94.079  55.832  17.8040  0.00  0.00     0.000 S
ATOM     56   O  GU6 D   3      92.952  56.765  17.5700  0.00  0.00     0.000 O
ATOM     57   O  GU6 D   3      94.707  55.445  16.5330  0.00  0.00     0.000 OA
ATOM     58   O  GU6 D   3      93.643  54.658  18.5930  0.00  0.00     0.000 OA
ENDBRANCH 41 53
BRANCH 37 59
ATOM     59  O4  Z9K D   4      97.577  60.084  19.1570  0.00  0.00     0.000 O
BRANCH 59 63
ATOM     60  C1  Z9K D   4      99.458  61.832  16.1810  0.00  0.00     0.000 C
ATOM     61  C2  Z9K D   4      99.430  62.976  17.2330  0.00  0.00     0.000 C
ATOM     62  C3  Z9K D   4      98.837  62.211  18.4940  0.00  0.00     0.000 C
ATOM     63  C4  Z9K D   4      97.590  61.265  18.3020  0.00  0.00     0.000 C
ATOM     64  C5  Z9K D   4      97.412  60.659  16.9020  0.00  0.00     0.000 C
ATOM     65  O5  Z9K D   4      98.780  60.514  16.4370  0.00  0.00     0.000 O
ATOM     66   O  Z9K D   4      98.471  63.090  19.5730  0.00  0.00     0.000 O
ATOM     67   C  Z9K D   4      99.538  63.420  20.4470  0.00  0.00     0.000 C
BRANCH 61 68
ATOM     68   O  Z9K D   4     100.762  63.278  17.5460  0.00  0.00     0.000 O
ATOM     69   O  Z9K D   4      99.287  65.367  17.6560  0.00  0.00     0.000 OA
ATOM     70   S  Z9K D   4     100.254  64.660  16.8710  0.00  0.00     0.000 S
ATOM     71   O  Z9K D   4     100.222  64.500  15.4500  0.00  0.00     0.000 OA
ATOM     72   O  Z9K D   4     101.581  64.988  17.2820  0.00  0.00     0.000 OA
ENDBRANCH 61 68
BRANCH 64 73
ATOM     73   C  Z9K D   4      96.510  59.408  16.9560  0.00  0.00     0.000 C
ATOM     74   O  Z9K D   4      95.265  59.506  17.1640  0.00  0.00     0.000 O
ATOM     75   O  Z9K D   4      96.971  58.253  16.7900  0.00  0.00     0.000 OA
ENDBRANCH 64 73
BRANCH 60 76
ATOM     76  O4  Z9L D   5      99.084  61.884  14.7930  0.00  0.00     0.000 O
BRANCH 76 80
ATOM     77  C1  Z9L D   5     100.077  60.673  11.1170  0.00  0.00     0.000 C
ATOM     78  C2  Z9L D   5      98.667  59.996  11.4690  0.00  0.00     0.000 C
ATOM     79  C3  Z9L D   5      98.036  60.848  12.7880  0.00  0.00     0.000 C
ATOM     80  C4  Z9L D   5      99.382  61.030  13.7200  0.00  0.00     0.000 C
ATOM     81  C5  Z9L D   5     100.878  61.492  13.3320  0.00  0.00     0.000 C
ATOM     82  O5  Z9L D   5     101.188  60.850  12.0860  0.00  0.00     0.000 O
ATOM     83   C  Z9L D   5     101.006  62.655  10.0670  0.00  0.00     0.000 C
ATOM     84   C  Z9L D   5     101.006  62.655  10.0670  0.00  0.00     0.000 C
BRANCH 78 85
ATOM     85   O  Z9L D   5      97.823  60.161  10.3740  0.00  0.00     0.000 O
ATOM     86   O  Z9L D   5      97.208  58.740   9.2280  0.00  0.00     0.000 OA
ATOM     87   S  Z9L D   5      97.971  58.561  10.4260  0.00  0.00     0.000 S
ATOM     88   O  Z9L D   5      97.068  57.924  11.3520  0.00  0.00     0.000 OA
ATOM     89   O  Z9L D   5      99.217  58.026   9.9990  0.00  0.00     0.000 OA
ENDBRANCH 78 85
BRANCH 79 90
ATOM     90   O  Z9L D   5      97.229  60.034  13.5780  0.00  0.00     0.000 O
ATOM     91   S  Z9L D   5      96.178  61.172  13.2070  0.00  0.00     0.000 S
ATOM     92   O  Z9L D   5      95.870  61.522  11.8450  0.00  0.00     0.000 OA
ATOM     93   O  Z9L D   5      96.165  62.167  14.2500  0.00  0.00     0.000 O
ATOM     94   O  Z9L D   5      95.269  60.143  13.5950  0.00  0.00     0.000 OA
ENDBRANCH 79 90
BRANCH 81 95
ATOM     95   C  Z9L D   5     102.029  61.470  14.5510  0.00  0.00     0.000 C
ATOM     96   S  Z9L D   5     103.488  60.405  15.3910  0.00  0.00     0.000 S
ATOM     97   O  Z9L D   5     102.095  60.081  14.7330  0.00  0.00     0.000 O
ATOM     98   O  Z9L D   5     103.212  61.018  16.6650  0.00  0.00     0.000 OA
ATOM     99   O  Z9L D   5     104.480  60.932  14.5160  0.00  0.00     0.000 OA
ATOM    100   O  Z9L D   5     103.492  58.974  15.5660  0.00  0.00     0.000 O
ENDBRANCH 81 95
ENDBRANCH 76 80
ENDBRANCH 60 76
ENDBRANCH 59 63
ENDBRANCH 37 59
ENDBRANCH 36 40
ENDBRANCH 23 36
ENDBRANCH 22 26
ENDBRANCH 1 22
TORSDOF 19
ENDMDL
MODEL 73
REMARK VINA RESULT:       0.0     54.233     61.850
ROOT
ATOM      1  C1  Z9H D   1      76.715  37.268  16.6390  0.00  0.00     0.000 C
ATOM      2  C2  Z9H D   1      78.121  37.100  17.2640  0.00  0.00     0.000 C
ATOM      3  C3  Z9H D   1      77.850  37.828  18.6170  0.00  0.00     0.000 C
ATOM      4  C4  Z9H D   1      77.185  39.261  18.4960  0.00  0.00     0.000 C
ATOM      5  C5  Z9H D   1      75.931  39.557  17.5800  0.00  0.00     0.000 C
ATOM      6  O5  Z9H D   1      76.116  38.588  16.5180  0.00  0.00     0.000 O
ATOM      7   O  Z9H D   1      79.028  37.894  19.4240  0.00  0.00     0.000 O
ATOM      8   C  Z9H D   1      79.128  36.891  20.4490  0.00  0.00     0.000 C
ATOM      9   O  Z9H D   1      76.833  39.640  19.8300  0.00  0.00     0.000 O
ATOM     10   C  Z9H D   1      77.748  40.525  20.4830  0.00  0.00     0.000 C
ENDROOT
BRANCH 2 11
ATOM     11   O  Z9H D   1      78.138  35.733  17.5820  0.00  0.00     0.000 O
ATOM     12   O  Z9H D   1      79.266  34.467  16.7550  0.00  0.00     0.000 OA
ATOM     13   S  Z9H D   1      79.272  35.864  16.4770  0.00  0.00     0.000 S
ATOM     14   O  Z9H D   1      80.383  36.566  17.0530  0.00  0.00     0.000 OA
ATOM     15   O  Z9H D   1      78.715  36.120  15.1680  0.00  0.00     0.000 O
ENDBRANCH 2 11
BRANCH 5 16
ATOM     16   C  Z9H D   1      75.663  41.175  17.2460  0.00  0.00     0.000 C
ATOM     17   S  Z9H D   1      74.241  42.570  16.9790  0.00  0.00     0.000 S
ATOM     18   O  Z9H D   1      74.475  41.330  17.9850  0.00  0.00     0.000 O
ATOM     19   O  Z9H D   1      74.002  42.202  15.6130  0.00  0.00     0.000 O
ATOM     20   O  Z9H D   1      75.058  43.670  17.3580  0.00  0.00     0.000 OA
ATOM     21   O  Z9H D   1      73.025  42.649  17.7350  0.00  0.00     0.000 OA
ENDBRANCH 5 16
BRANCH 1 22
ATOM     22  O4  GU1 D   2      75.637  36.548  17.3370  0.00  0.00     0.000 O
BRANCH 22 26
ATOM     23  C1  GU1 D   2      72.122  34.454  16.8560  0.00  0.00     0.000 C
ATOM     24  C2  GU1 D   2      73.143  34.252  15.7470  0.00  0.00     0.000 C
ATOM     25  C3  GU1 D   2      74.485  34.738  16.2130  0.00  0.00     0.000 C
ATOM     26  C4  GU1 D   2      74.398  36.168  16.7270  0.00  0.00     0.000 C
ATOM     27  C5  GU1 D   2      73.273  36.285  17.7610  0.00  0.00     0.000 C
ATOM     28  O5  GU1 D   2      72.040  35.830  17.2090  0.00  0.00     0.000 O
ATOM     29   O  GU1 D   2      73.269  32.883  15.3820  0.00  0.00     0.000 O
ATOM     30   C  GU1 D   2      72.497  32.518  14.2460  0.00  0.00     0.000 C
ATOM     31   C  GU1 D   2      76.294  33.606  15.1000  0.00  0.00     0.000 C
ATOM     32   O  GU1 D   2      75.388  34.706  15.1030  0.00  0.00     0.000 O
BRANCH 27 33
ATOM     33   C  GU1 D   2      73.082  37.717  18.2000  0.00  0.00     0.000 C
ATOM     34   O  GU1 D   2      72.624  38.510  17.4040  0.00  0.00     0.000 OA
ATOM     35   O  GU1 D   2      73.380  38.063  19.3330  0.00  0.00     0.000 O
ENDBRANCH 27 33
BRANCH 23 36
ATOM     36  O4  GU6 D   3      70.716  34.297  16.5790  0.00  0.00     0.000 O
BRANCH 36 40
ATOM     37  C1  GU6 D   3      66.784  34.970  15.6960  0.00  0.00     0.000 C
ATOM     38  C2  GU6 D   3      67.030  33.695  16.4940  0.00  0.00     0.000 C
ATOM     39  C3  GU6 D   3      68.449  33.680  16.9970  0.00  0.00     0.000 C
ATOM     40  C4  GU6 D   3      69.366  34.702  16.4810  0.00  0.00     0.000 C
ATOM     41  C5  GU6 D   3      69.068  34.954  14.9660  0.00  0.00     0.000 C
ATOM     42  O5  GU6 D   3      67.684  34.997  14.6000  0.00  0.00     0.000 O
BRANCH 38 43
ATOM     43   O  GU6 D   3      66.131  33.609  17.5830  0.00  0.00     0.000 O
ATOM     44   S  GU6 D   3      65.313  32.325  17.6240  0.00  0.00     0.000 S
ATOM     45   O  GU6 D   3      64.172  32.467  16.7030  0.00  0.00     0.000 OA
ATOM     46   O  GU6 D   3      66.166  31.209  17.1770  0.00  0.00     0.000 O
ATOM     47   O  GU6 D   3      64.865  32.095  18.9940  0.00  0.00     0.000 OA
ENDBRANCH 38 43
BRANCH 39 48
ATOM     48   O  GU6 D   3      68.824  32.866  18.0920  0.00  0.00     0.000 O
ATOM     49   S  GU6 D   3      68.986  33.223  19.5690  0.00  0.00     0.000 S
ATOM     50   O  GU6 D   3      67.751  33.827  20.0820  0.00  0.00     0.000 OA
ATOM     51   O  GU6 D   3      69.242  31.921  20.2000  0.00  0.00     0.000 OA
ATOM     52   O  GU6 D   3      70.112  34.173  19.7120  0.00  0.00     0.000 O
ENDBRANCH 39 48
BRANCH 41 53
ATOM     53   C  GU6 D   3      70.036  35.174  13.8340  0.00  0.00     0.000 C
ATOM     54   O  GU6 D   3      70.565  36.399  14.2710  0.00  0.00     0.000 O
ATOM     55   S  GU6 D   3      71.564  37.170  13.3980  0.00  0.00     0.000 S
ATOM     56   O  GU6 D   3      70.830  37.600  12.1850  0.00  0.00     0.000 O
ATOM     57   O  GU6 D   3      72.045  38.335  14.1540  0.00  0.00     0.000 OA
ATOM     58   O  GU6 D   3      72.659  36.236  13.0540  0.00  0.00     0.000 OA
ENDBRANCH 41 53
BRANCH 37 59
ATOM     59  O4  Z9K D   4      66.743  36.301  16.2530  0.00  0.00     0.000 O
BRANCH 59 63
ATOM     60  C1  Z9K D   4      65.210  39.408  18.1080  0.00  0.00     0.000 C
ATOM     61  C2  Z9K D   4      63.941  38.543  17.8690  0.00  0.00     0.000 C
ATOM     62  C3  Z9K D   4      64.588  37.212  17.2880  0.00  0.00     0.000 C
ATOM     63  C4  Z9K D   4      65.706  37.322  16.1810  0.00  0.00     0.000 C
ATOM     64  C5  Z9K D   4      66.524  38.622  16.1750  0.00  0.00     0.000 C
ATOM     65  O5  Z9K D   4      66.555  38.990  17.5790  0.00  0.00     0.000 O
ATOM     66   O  Z9K D   4      63.619  36.299  16.7440  0.00  0.00     0.000 O
ATOM     67   C  Z9K D   4      63.030  35.432  17.7000  0.00  0.00     0.000 C
BRANCH 61 68
ATOM     68   O  Z9K D   4      63.426  38.212  19.1300  0.00  0.00     0.000 O
ATOM     69   O  Z9K D   4      61.553  38.493  17.4090  0.00  0.00     0.000 OA
ATOM     70   S  Z9K D   4      62.233  39.113  18.5060  0.00  0.00     0.000 S
ATOM     71   O  Z9K D   4      62.598  40.494  18.5920  0.00  0.00     0.000 OA
ATOM     72   O  Z9K D   4      61.680  38.690  19.7520  0.00  0.00     0.000 OA
ENDBRANCH 61 68
BRANCH 64 73
ATOM     73   C  Z9K D   4      67.861  38.425  15.4300  0.00  0.00     0.000 C
ATOM     74   O  Z9K D   4      67.898  38.298  14.1720  0.00  0.00     0.000 O
ATOM     75   O  Z9K D   4      68.959  38.391  16.0390  0.00  0.00     0.000 OA
ENDBRANCH 64 73
BRANCH 60 76
ATOM     76  O4  Z9L D   5      65.407  40.804  17.8280  0.00  0.00     0.000 O
BRANCH 76 80
ATOM     77  C1  Z9L D   5      66.993  44.201  19.2120  0.00  0.00     0.000 C
ATOM     78  C2  Z9L D   5      67.790  43.822  17.8730  0.00  0.00     0.000 C
ATOM     79  C3  Z9L D   5      66.848  42.681  17.0540  0.00  0.00     0.000 C
ATOM     80  C4  Z9L D   5      66.360  41.720  18.3010  0.00  0.00     0.000 C
ATOM     81  C5  Z9L D   5      65.768  42.097  19.7530  0.00  0.00     0.000 C
ATOM     82  O5  Z9L D   5      66.535  43.215  20.2240  0.00  0.00     0.000 O
ATOM     83   C  Z9L D   5      65.078  45.490  19.9640  0.00  0.00     0.000 C
ATOM     84   C  Z9L D   5      65.078  45.490  19.9640  0.00  0.00     0.000 C
BRANCH 78 85
ATOM     85   O  Z9L D   5      67.895  44.970  17.0940  0.00  0.00     0.000 O
ATOM     86   O  Z9L D   5      69.533  45.919  16.7360  0.00  0.00     0.000 OA
ATOM     87   S  Z9L D   5      69.438  44.671  17.4300  0.00  0.00     0.000 S
ATOM     88   O  Z9L D   5      70.048  43.705  16.5500  0.00  0.00     0.000 OA
ATOM     89   O  Z9L D   5      69.862  44.949  18.7590  0.00  0.00     0.000 OA
ENDBRANCH 78 85
BRANCH 79 90
ATOM     90   O  Z9L D   5      67.638  41.819  16.2990  0.00  0.00     0.000 O
ATOM     91   S  Z9L D   5      66.712  42.409  15.1470  0.00  0.00     0.000 S
ATOM     92   O  Z9L D   5      66.604  43.822  14.8930  0.00  0.00     0.000 OA
ATOM     93   O  Z9L D   5      65.587  41.531  14.9410  0.00  0.00     0.000 O
ATOM     94   O  Z9L D   5      67.784  41.916  14.3440  0.00  0.00     0.000 OA
ENDBRANCH 79 90
BRANCH 81 95
ATOM     95   C  Z9L D   5      65.464  40.832  20.8110  0.00  0.00     0.000 C
ATOM     96   S  Z9L D   5      66.198  39.769  22.3270  0.00  0.00     0.000 S
ATOM     97   O  Z9L D   5      66.793  40.440  21.0330  0.00  0.00     0.000 O
ATOM     98   O  Z9L D   5      65.450  38.618  21.8910  0.00  0.00     0.000 OA
ATOM     99   O  Z9L D   5      65.678  40.663  23.3060  0.00  0.00     0.000 OA
ATOM    100   O  Z9L D   5      67.577  39.380  22.4930  0.00  0.00     0.000 O
ENDBRANCH 81 95
ENDBRANCH 76 80
ENDBRANCH 60 76
ENDBRANCH 59 63
ENDBRANCH 37 59
ENDBRANCH 36 40
ENDBRANCH 23 36
ENDBRANCH 22 26
ENDBRANCH 1 22
TORSDOF 19
ENDMDL
MODEL 74
REMARK VINA RESULT:       0.0    114.219    120.345
ROOT
ATOM      1  C1  Z9H D   1     104.549 133.399 133.9810  0.00  0.00     0.000 C
ATOM      2  C2  Z9H D   1     104.377 133.911 135.4310  0.00  0.00     0.000 C
ATOM      3  C3  Z9H D   1     102.991 134.605 135.2590  0.00  0.00     0.000 C
ATOM      4  C4  Z9H D   1     102.878 135.601 134.0310  0.00  0.00     0.000 C
ATOM      5  C5  Z9H D   1     103.369 135.235 132.5740  0.00  0.00     0.000 C
ATOM      6  O5  Z9H D   1     104.458 134.320 132.8590  0.00  0.00     0.000 O
ATOM      7   O  Z9H D   1     102.573 135.251 136.4630  0.00  0.00     0.000 O
ATOM      8   C  Z9H D   1     101.646 134.508 137.2710  0.00  0.00     0.000 C
ATOM      9   O  Z9H D   1     101.492 135.945 133.9360  0.00  0.00     0.000 O
ATOM     10   C  Z9H D   1     101.126 137.201 134.5160  0.00  0.00     0.000 C
ENDROOT
BRANCH 2 11
ATOM     11   O  Z9H D   1     104.107 132.724 136.1300  0.00  0.00     0.000 O
ATOM     12   O  Z9H D   1     105.267 131.956 137.4030  0.00  0.00     0.000 OA
ATOM     13   S  Z9H D   1     105.507 133.184 136.7230  0.00  0.00     0.000 S
ATOM     14   O  Z9H D   1     105.292 134.348 137.5340  0.00  0.00     0.000 OA
ATOM     15   O  Z9H D   1     106.572 133.027 135.7600  0.00  0.00     0.000 O
ENDBRANCH 2 11
BRANCH 5 16
ATOM     16   C  Z9H D   1     103.575 136.540 131.5470  0.00  0.00     0.000 C
ATOM     17   S  Z9H D   1     103.344 137.177 129.6540  0.00  0.00     0.000 S
ATOM     18   O  Z9H D   1     102.487 136.284 130.6910  0.00  0.00     0.000 O
ATOM     19   O  Z9H D   1     104.563 136.570 129.2010  0.00  0.00     0.000 O
ATOM     20   O  Z9H D   1     103.237 138.554 129.9880  0.00  0.00     0.000 OA
ATOM     21   O  Z9H D   1     102.233 136.842 128.8130  0.00  0.00     0.000 OA
ENDBRANCH 5 16
BRANCH 1 22
ATOM     22  O4  GU1 D   2     103.573 132.375 133.5660  0.00  0.00     0.000 O
BRANCH 22 26
ATOM     23  C1  GU1 D   2     103.012 128.966 131.3220  0.00  0.00     0.000 C
ATOM     24  C2  GU1 D   2     104.381 129.085 131.9750  0.00  0.00     0.000 C
ATOM     25  C3  GU1 D   2     104.333 130.136 133.0460  0.00  0.00     0.000 C
ATOM     26  C4  GU1 D   2     103.788 131.446 132.4970  0.00  0.00     0.000 C
ATOM     27  C5  GU1 D   2     102.462 131.201 131.7710  0.00  0.00     0.000 C
ATOM     28  O5  GU1 D   2     102.625 130.213 130.7570  0.00  0.00     0.000 O
ATOM     29   O  GU1 D   2     104.794 127.861 132.5710  0.00  0.00     0.000 O
ATOM     30   C  GU1 D   2     105.650 127.081 131.7490  0.00  0.00     0.000 C
ATOM     31   C  GU1 D   2     105.961 129.742 134.7740  0.00  0.00     0.000 C
ATOM     32   O  GU1 D   2     105.664 130.357 133.5230  0.00  0.00     0.000 O
BRANCH 27 33
ATOM     33   C  GU1 D   2     101.958 132.463 131.1120  0.00  0.00     0.000 C
ATOM     34   O  GU1 D   2     100.968 132.997 131.5690  0.00  0.00     0.000 OA
ATOM     35   O  GU1 D   2     102.538 132.933 130.1460  0.00  0.00     0.000 O
ENDBRANCH 27 33
BRANCH 23 36
ATOM     36  O4  GU6 D   3     102.856 128.207 130.1070  0.00  0.00     0.000 O
BRANCH 36 40
ATOM     37  C1  GU6 D   3     102.483 127.069 126.2010  0.00  0.00     0.000 C
ATOM     38  C2  GU6 D   3     101.822 126.116 127.1890  0.00  0.00     0.000 C
ATOM     39  C3  GU6 D   3     101.777 126.753 128.5530  0.00  0.00     0.000 C
ATOM     40  C4  GU6 D   3     102.530 127.998 128.7480  0.00  0.00     0.000 C
ATOM     41  C5  GU6 D   3     103.876 127.924 127.9550  0.00  0.00     0.000 C
ATOM     42  O5  GU6 D   3     103.801 127.343 126.6490  0.00  0.00     0.000 O
BRANCH 38 43
ATOM     43   O  GU6 D   3     100.512 125.789 126.7650  0.00  0.00     0.000 O
ATOM     44   S  GU6 D   3     100.250 124.295 126.6270  0.00  0.00     0.000 S
ATOM     45   O  GU6 D   3     100.775 123.846 125.3260  0.00  0.00     0.000 OA
ATOM     46   O  GU6 D   3     100.958 123.591 127.7110  0.00  0.00     0.000 O
ATOM     47   O  GU6 D   3      98.813 124.058 126.7310  0.00  0.00     0.000 OA
ENDBRANCH 38 43
BRANCH 39 48
ATOM     48   O  GU6 D   3     100.864 126.303 129.5350  0.00  0.00     0.000 O
ATOM     49   S  GU6 D   3      99.499 126.862 129.9350  0.00  0.00     0.000 S
ATOM     50   O  GU6 D   3      98.624 126.947 128.7600  0.00  0.00     0.000 OA
ATOM     51   O  GU6 D   3      99.002 125.870 130.8980  0.00  0.00     0.000 OA
ATOM     52   O  GU6 D   3      99.686 128.207 130.5250  0.00  0.00     0.000 O
ENDBRANCH 39 48
BRANCH 41 53
ATOM     53   C  GU6 D   3     105.245 128.394 128.3680  0.00  0.00     0.000 C
ATOM     54   O  GU6 D   3     104.962 129.768 128.4360  0.00  0.00     0.000 O
ATOM     55   S  GU6 D   3     106.081 130.780 128.7190  0.00  0.00     0.000 S
ATOM     56   O  GU6 D   3     106.997 130.740 127.5560  0.00  0.00     0.000 O
ATOM     57   O  GU6 D   3     105.480 132.114 128.8630  0.00  0.00     0.000 OA
ATOM     58   O  GU6 D   3     106.768 130.340 129.9540  0.00  0.00     0.000 OA
ENDBRANCH 41 53
BRANCH 37 59
ATOM     59  O4  Z9K D   4     101.916 128.316 125.7470  0.00  0.00     0.000 O
BRANCH 59 63
ATOM     60  C1  Z9K D   4      99.637 130.696 123.6050  0.00  0.00     0.000 C
ATOM     61  C2  Z9K D   4      99.500 129.362 122.8200  0.00  0.00     0.000 C
ATOM     62  C3  Z9K D   4     100.270 128.363 123.7880  0.00  0.00     0.000 C
ATOM     63  C4  Z9K D   4     101.658 128.799 124.3960  0.00  0.00     0.000 C
ATOM     64  C5  Z9K D   4     101.886 130.312 124.5390  0.00  0.00     0.000 C
ATOM     65  O5  Z9K D   4     100.549 130.817 124.7950  0.00  0.00     0.000 O
ATOM     66   O  Z9K D   4     100.515 127.074 123.1980  0.00  0.00     0.000 O
ATOM     67   C  Z9K D   4      99.442 126.156 123.3290  0.00  0.00     0.000 C
BRANCH 61 68
ATOM     68   O  Z9K D   4      98.149 128.993 122.8680  0.00  0.00     0.000 O
ATOM     69   O  Z9K D   4      99.226 128.284 120.6570  0.00  0.00     0.000 OA
ATOM     70   S  Z9K D   4      98.372 129.248 121.2830  0.00  0.00     0.000 S
ATOM     71   O  Z9K D   4      98.376 130.657 121.0340  0.00  0.00     0.000 OA
ATOM     72   O  Z9K D   4      97.025 128.779 121.3330  0.00  0.00     0.000 OA
ENDBRANCH 61 68
BRANCH 64 73
ATOM     73   C  Z9K D   4     102.999 130.604 125.5670  0.00  0.00     0.000 C
ATOM     74   O  Z9K D   4     104.214 130.366 125.3040  0.00  0.00     0.000 O
ATOM     75   O  Z9K D   4     102.746 131.093 126.6950  0.00  0.00     0.000 OA
ENDBRANCH 64 73
BRANCH 60 76
ATOM     76  O4  Z9L D   5      99.940 132.006 123.0960  0.00  0.00     0.000 O
BRANCH 76 80
ATOM     77  C1  Z9L D   5      99.051 135.891 123.3960  0.00  0.00     0.000 C
ATOM     78  C2  Z9L D   5     100.576 135.721 123.8610  0.00  0.00     0.000 C
ATOM     79  C3  Z9L D   5     101.086 134.206 123.3080  0.00  0.00     0.000 C
ATOM     80  C4  Z9L D   5      99.767 133.282 123.6560  0.00  0.00     0.000 C
ATOM     81  C5  Z9L D   5      98.197 133.548 123.4000  0.00  0.00     0.000 C
ATOM     82  O5  Z9L D   5      97.964 134.929 123.7130  0.00  0.00     0.000 O
ATOM     83   C  Z9L D   5      97.725 136.353 121.4160  0.00  0.00     0.000 C
ATOM     84   C  Z9L D   5      97.725 136.353 121.4160  0.00  0.00     0.000 C
BRANCH 78 85
ATOM     85   O  Z9L D   5     101.330 136.711 123.2380  0.00  0.00     0.000 O
ATOM     86   O  Z9L D   5     102.152 138.205 124.1340  0.00  0.00     0.000 OA
ATOM     87   S  Z9L D   5     101.484 137.119 124.7850  0.00  0.00     0.000 S
ATOM     88   O  Z9L D   5     102.525 136.399 125.4750  0.00  0.00     0.000 OA
ATOM     89   O  Z9L D   5     100.342 137.699 125.4030  0.00  0.00     0.000 OA
ENDBRANCH 78 85
BRANCH 79 90
ATOM     90   O  Z9L D   5     102.062 133.665 124.1410  0.00  0.00     0.000 O
ATOM     91   S  Z9L D   5     102.865 133.685 122.7660  0.00  0.00     0.000 S
ATOM     92   O  Z9L D   5     103.048 134.888 121.9980  0.00  0.00     0.000 OA
ATOM     93   O  Z9L D   5     102.733 132.404 122.1170  0.00  0.00     0.000 O
ATOM     94   O  Z9L D   5     103.966 133.588 123.6690  0.00  0.00     0.000 OA
ENDBRANCH 79 90
BRANCH 81 95
ATOM     95   C  Z9L D   5      97.118 132.403 123.9820  0.00  0.00     0.000 C
ATOM     96   S  Z9L D   5      95.920 131.922 125.4990  0.00  0.00     0.000 S
ATOM     97   O  Z9L D   5      97.323 132.622 125.3520  0.00  0.00     0.000 O
ATOM     98   O  Z9L D   5      96.125 130.522 125.2250  0.00  0.00     0.000 OA
ATOM     99   O  Z9L D   5      94.814 132.630 124.9480  0.00  0.00     0.000 OA
ATOM    100   O  Z9L D   5      96.193 132.158 126.8950  0.00  0.00     0.000 O
ENDBRANCH 81 95
ENDBRANCH 76 80
ENDBRANCH 60 76
ENDBRANCH 59 63
ENDBRANCH 37 59
ENDBRANCH 36 40
ENDBRANCH 23 36
ENDBRANCH 22 26
ENDBRANCH 1 22
TORSDOF 19
ENDMDL
MODEL 75
REMARK VINA RESULT:       0.0     56.900     62.674
ROOT
ATOM      1  C1  Z9H D   1      68.884  32.381  98.7910  0.00  0.00     0.000 C
ATOM      2  C2  Z9H D   1      70.111  32.948  98.0390  0.00  0.00     0.000 C
ATOM      3  C3  Z9H D   1      70.588  33.962  99.1230  0.00  0.00     0.000 C
ATOM      4  C4  Z9H D   1      69.467  34.929  99.6880  0.00  0.00     0.000 C
ATOM      5  C5  Z9H D   1      68.044  34.424 100.1550  0.00  0.00     0.000 C
ATOM      6  O5  Z9H D   1      67.852  33.273  99.2950  0.00  0.00     0.000 O
ATOM      7   O  Z9H D   1      71.718  34.716  98.6790  0.00  0.00     0.000 O
ATOM      8   C  Z9H D   1      72.994  34.243  99.1410  0.00  0.00     0.000 C
ATOM      9   O  Z9H D   1      70.062  35.606 100.8010  0.00  0.00     0.000 O
ATOM     10   C  Z9H D   1      70.548  36.924 100.5340  0.00  0.00     0.000 C
ENDROOT
BRANCH 2 11
ATOM     11   O  Z9H D   1      71.019  31.880  98.1130  0.00  0.00     0.000 O
ATOM     12   O  Z9H D   1      71.609  30.885  96.6220  0.00  0.00     0.000 OA
ATOM     13   S  Z9H D   1      70.726  32.001  96.5560  0.00  0.00     0.000 S
ATOM     14   O  Z9H D   1      71.345  33.202  96.0730  0.00  0.00     0.000 OA
ATOM     15   O  Z9H D   1      69.388  31.566  96.2290  0.00  0.00     0.000 O
ENDBRANCH 2 11
BRANCH 5 16
ATOM     16   C  Z9H D   1      66.877  35.616 100.2900  0.00  0.00     0.000 C
ATOM     17   S  Z9H D   1      65.295  36.233 101.3640  0.00  0.00     0.000 S
ATOM     18   O  Z9H D   1      66.741  35.593 101.6900  0.00  0.00     0.000 O
ATOM     19   O  Z9H D   1      64.380  35.348 100.7020  0.00  0.00     0.000 O
ATOM     20   O  Z9H D   1      65.431  37.607 101.0270  0.00  0.00     0.000 OA
ATOM     21   O  Z9H D   1      65.193  36.140 102.7910  0.00  0.00     0.000 OA
ENDBRANCH 5 16
BRANCH 1 22
ATOM     22  O4  GU1 D   2      69.204  31.624 100.0140  0.00  0.00     0.000 O
BRANCH 22 26
ATOM     23  C1  GU1 D   2      68.145  28.406 102.3580  0.00  0.00     0.000 C
ATOM     24  C2  GU1 D   2      67.957  28.197 100.8630  0.00  0.00     0.000 C
ATOM     25  C3  GU1 D   2      68.717  29.254 100.1140  0.00  0.00     0.000 C
ATOM     26  C4  GU1 D   2      68.339  30.645 100.6030  0.00  0.00     0.000 C
ATOM     27  C5  GU1 D   2      68.463  30.717 102.1280  0.00  0.00     0.000 C
ATOM     28  O5  GU1 D   2      67.681  29.695 102.7400  0.00  0.00     0.000 O
ATOM     29   O  GU1 D   2      68.431  26.925 100.4390  0.00  0.00     0.000 O
ATOM     30   C  GU1 D   2      67.414  25.937 100.3410  0.00  0.00     0.000 C
ATOM     31   C  GU1 D   2      69.374  28.512  97.9210  0.00  0.00     0.000 C
ATOM     32   O  GU1 D   2      68.386  29.150  98.7260  0.00  0.00     0.000 O
BRANCH 27 33
ATOM     33   C  GU1 D   2      67.980  32.048 102.6530  0.00  0.00     0.000 C
ATOM     34   O  GU1 D   2      66.792  32.294 102.5970  0.00  0.00     0.000 OA
ATOM     35   O  GU1 D   2      68.768  32.852 103.1250  0.00  0.00     0.000 O
ENDBRANCH 27 33
BRANCH 23 36
ATOM     36  O4  GU6 D   3      67.326  27.679 103.2960  0.00  0.00     0.000 O
BRANCH 36 40
ATOM     37  C1  GU6 D   3      64.413  26.573 105.9390  0.00  0.00     0.000 C
ATOM     38  C2  GU6 D   3      65.733  25.835 106.1280  0.00  0.00     0.000 C
ATOM     39  C3  GU6 D   3      66.804  26.497 105.3020  0.00  0.00     0.000 C
ATOM     40  C4  GU6 D   3      66.387  27.523 104.3400  0.00  0.00     0.000 C
ATOM     41  C5  GU6 D   3      65.031  27.103 103.6830  0.00  0.00     0.000 C
ATOM     42  O5  GU6 D   3      64.062  26.526 104.5650  0.00  0.00     0.000 O
BRANCH 38 43
ATOM     43   O  GU6 D   3      66.109  25.829 107.4910  0.00  0.00     0.000 O
ATOM     44   S  GU6 D   3      66.363  24.442 108.0680  0.00  0.00     0.000 S
ATOM     45   O  GU6 D   3      65.067  23.841 108.4300  0.00  0.00     0.000 OA
ATOM     46   O  GU6 D   3      67.015  23.616 107.0370  0.00  0.00     0.000 O
ATOM     47   O  GU6 D   3      67.234  24.569 109.2320  0.00  0.00     0.000 OA
ENDBRANCH 38 43
BRANCH 39 48
ATOM     48   O  GU6 D   3      68.174  26.308 105.6020  0.00  0.00     0.000 O
ATOM     49   S  GU6 D   3      69.136  27.195 106.3910  0.00  0.00     0.000 S
ATOM     50   O  GU6 D   3      68.593  27.467 107.7270  0.00  0.00     0.000 OA
ATOM     51   O  GU6 D   3      70.354  26.378 106.4690  0.00  0.00     0.000 OA
ATOM     52   O  GU6 D   3      69.331  28.464 105.6550  0.00  0.00     0.000 O
ENDBRANCH 39 48
BRANCH 41 53
ATOM     53   C  GU6 D   3      64.593  27.234 102.2490  0.00  0.00     0.000 C
ATOM     54   O  GU6 D   3      64.566  28.636 102.1840  0.00  0.00     0.000 O
ATOM     55   S  GU6 D   3      64.058  29.348 100.9230  0.00  0.00     0.000 S
ATOM     56   O  GU6 D   3      62.614  29.035 100.8090  0.00  0.00     0.000 O
ATOM     57   O  GU6 D   3      64.265  30.794 101.0860  0.00  0.00     0.000 OA
ATOM     58   O  GU6 D   3      64.814  28.800  99.7750  0.00  0.00     0.000 OA
ENDBRANCH 41 53
BRANCH 37 59
ATOM     59  O4  Z9K D   4      64.138  27.910 106.4070  0.00  0.00     0.000 O
BRANCH 59 63
ATOM     60  C1  Z9K D   4      63.179  30.723 108.9800  0.00  0.00     0.000 C
ATOM     61  C2  Z9K D   4      62.803  29.444 109.7780  0.00  0.00     0.000 C
ATOM     62  C3  Z9K D   4      63.362  28.311 108.8120  0.00  0.00     0.000 C
ATOM     63  C4  Z9K D   4      63.070  28.407 107.2660  0.00  0.00     0.000 C
ATOM     64  C5  Z9K D   4      62.833  29.820 106.7110  0.00  0.00     0.000 C
ATOM     65  O5  Z9K D   4      63.672  30.645 107.5610  0.00  0.00     0.000 O
ATOM     66   O  Z9K D   4      62.940  26.987 109.1860  0.00  0.00     0.000 O
ATOM     67   C  Z9K D   4      63.759  26.365 110.1630  0.00  0.00     0.000 C
BRANCH 61 68
ATOM     68   O  Z9K D   4      63.613  29.421 110.9220  0.00  0.00     0.000 O
ATOM     69   O  Z9K D   4      61.313  28.401 111.3940  0.00  0.00     0.000 OA
ATOM     70   S  Z9K D   4      62.132  29.564 111.5620  0.00  0.00     0.000 S
ATOM     71   O  Z9K D   4      61.696  30.920 111.4290  0.00  0.00     0.000 OA
ATOM     72   O  Z9K D   4      62.957  29.442 112.7200  0.00  0.00     0.000 OA
ENDBRANCH 61 68
BRANCH 64 73
ATOM     73   C  Z9K D   4      63.059  29.856 105.1850  0.00  0.00     0.000 C
ATOM     74   O  Z9K D   4      62.239  29.314 104.3880  0.00  0.00     0.000 O
ATOM     75   O  Z9K D   4      64.056  30.426 104.6770  0.00  0.00     0.000 OA
ENDBRANCH 64 73
BRANCH 60 76
ATOM     76  O4  Z9L D   5      62.389  31.905 108.7610  0.00  0.00     0.000 O
BRANCH 76 80
ATOM     77  C1  Z9L D   5      62.498  35.896 108.5930  0.00  0.00     0.000 C
ATOM     78  C2  Z9L D   5      62.121  35.374 107.1240  0.00  0.00     0.000 C
ATOM     79  C3  Z9L D   5      61.628  33.765 107.2920  0.00  0.00     0.000 C
ATOM     80  C4  Z9L D   5      62.751  33.201 108.3580  0.00  0.00     0.000 C
ATOM     81  C5  Z9L D   5      63.311  33.832 109.7320  0.00  0.00     0.000 C
ATOM     82  O5  Z9L D   5      63.480  35.237 109.4920  0.00  0.00     0.000 O
ATOM     83   C  Z9L D   5      61.454  36.608 110.6660  0.00  0.00     0.000 C
ATOM     84   C  Z9L D   5      61.454  36.608 110.6660  0.00  0.00     0.000 C
BRANCH 78 85
ATOM     85   O  Z9L D   5      61.051  36.133 106.6580  0.00  0.00     0.000 O
ATOM     86   O  Z9L D   5      61.142  37.403 105.2130  0.00  0.00     0.000 OA
ATOM     87   S  Z9L D   5      62.205  36.532 105.6130  0.00  0.00     0.000 S
ATOM     88   O  Z9L D   5      62.352  35.598 104.5240  0.00  0.00     0.000 OA
ATOM     89   O  Z9L D   5      63.230  37.390 106.0980  0.00  0.00     0.000 OA
ENDBRANCH 78 85
BRANCH 79 90
ATOM     90   O  Z9L D   5      61.904  33.028 106.1440  0.00  0.00     0.000 O
ATOM     91   S  Z9L D   5      60.329  32.809 106.2300  0.00  0.00     0.000 S
ATOM     92   O  Z9L D   5      59.399  33.907 106.2710  0.00  0.00     0.000 OA
ATOM     93   O  Z9L D   5      60.055  31.580 106.9330  0.00  0.00     0.000 O
ATOM     94   O  Z9L D   5      60.528  32.474 104.8570  0.00  0.00     0.000 OA
ENDBRANCH 79 90
BRANCH 81 95
ATOM     95   C  Z9L D   5      64.540  33.001 110.5150  0.00  0.00     0.000 C
ATOM     96   S  Z9L D   5      66.512  32.870 110.7650  0.00  0.00     0.000 S
ATOM     97   O  Z9L D   5      65.550  33.205 109.5640  0.00  0.00     0.000 O
ATOM     98   O  Z9L D   5      66.394  31.455 111.0080  0.00  0.00     0.000 OA
ATOM     99   O  Z9L D   5      66.515  33.809 111.8360  0.00  0.00     0.000 OA
ATOM    100   O  Z9L D   5      67.505  33.075 109.7400  0.00  0.00     0.000 O
ENDBRANCH 81 95
ENDBRANCH 76 80
ENDBRANCH 60 76
ENDBRANCH 59 63
ENDBRANCH 37 59
ENDBRANCH 36 40
ENDBRANCH 23 36
ENDBRANCH 22 26
ENDBRANCH 1 22
TORSDOF 19
ENDMDL
MODEL 76
REMARK VINA RESULT:       0.0     93.908     98.915
ROOT
ATOM      1  C1  Z9H D   1      65.737  99.285 149.4540  0.00  0.00     0.000 C
ATOM      2  C2  Z9H D   1      65.648  99.320 150.9990  0.00  0.00     0.000 C
ATOM      3  C3  Z9H D   1      67.032  98.677 151.3160  0.00  0.00     0.000 C
ATOM      4  C4  Z9H D   1      67.343  97.322 150.5550  0.00  0.00     0.000 C
ATOM      5  C5  Z9H D   1      67.117  97.133 149.0020  0.00  0.00     0.000 C
ATOM      6  O5  Z9H D   1      66.008  98.035 148.7610  0.00  0.00     0.000 O
ATOM      7   O  Z9H D   1      67.226  98.512 152.7220  0.00  0.00     0.000 O
ATOM      8   C  Z9H D   1      68.010  99.535 153.3600  0.00  0.00     0.000 C
ATOM      9   O  Z9H D   1      68.720  97.034 150.8200  0.00  0.00     0.000 O
ATOM     10   C  Z9H D   1      68.962  96.078 151.8570  0.00  0.00     0.000 C
ENDROOT
BRANCH 2 11
ATOM     11   O  Z9H D   1      65.809 100.688 151.2690  0.00  0.00     0.000 O
ATOM     12   O  Z9H D   1      64.462 101.790 151.9960  0.00  0.00     0.000 OA
ATOM     13   S  Z9H D   1      64.328 100.392 151.7610  0.00  0.00     0.000 S
ATOM     14   O  Z9H D   1      64.399  99.594 152.9520  0.00  0.00     0.000 OA
ATOM     15   O  Z9H D   1      63.435 100.151 150.6510  0.00  0.00     0.000 O
ENDBRANCH 2 11
BRANCH 5 16
ATOM     16   C  Z9H D   1      67.074  95.543 148.4810  0.00  0.00     0.000 C
ATOM     17   S  Z9H D   1      67.591  94.304 146.9850  0.00  0.00     0.000 S
ATOM     18   O  Z9H D   1      68.278  95.548 147.7510  0.00  0.00     0.000 O
ATOM     19   O  Z9H D   1      66.453  94.645 146.1810  0.00  0.00     0.000 O
ATOM     20   O  Z9H D   1      67.653  93.136 147.7930  0.00  0.00     0.000 OA
ATOM     21   O  Z9H D   1      68.816  94.388 146.2440  0.00  0.00     0.000 OA
ENDBRANCH 5 16
BRANCH 1 22
ATOM     22  O4  GU1 D   2      66.784 100.145 148.8750  0.00  0.00     0.000 O
BRANCH 22 26
ATOM     23  C1  GU1 D   2      67.762 102.594 145.7100  0.00  0.00     0.000 C
ATOM     24  C2  GU1 D   2      66.299 102.641 146.1270  0.00  0.00     0.000 C
ATOM     25  C3  GU1 D   2      66.151 102.028 147.4890  0.00  0.00     0.000 C
ATOM     26  C4  GU1 D   2      66.767 100.637 147.5290  0.00  0.00     0.000 C
ATOM     27  C5  GU1 D   2      68.201 100.682 146.9930  0.00  0.00     0.000 C
ATOM     28  O5  GU1 D   2      68.227 101.250 145.6870  0.00  0.00     0.000 O
ATOM     29   O  GU1 D   2      65.804 103.973 146.1830  0.00  0.00     0.000 O
ATOM     30   C  GU1 D   2      65.111 104.379 145.0110  0.00  0.00     0.000 C
ATOM     31   C  GU1 D   2      64.254 102.912 148.6770  0.00  0.00     0.000 C
ATOM     32   O  GU1 D   2      64.755 101.919 147.7860  0.00  0.00     0.000 O
BRANCH 27 33
ATOM     33   C  GU1 D   2      68.796  99.297 146.9080  0.00  0.00     0.000 C
ATOM     34   O  GU1 D   2      68.360  98.530 146.0750  0.00  0.00     0.000 OA
ATOM     35   O  GU1 D   2      69.699  98.962 147.6600  0.00  0.00     0.000 O
ENDBRANCH 27 33
BRANCH 23 36
ATOM     36  O4  GU6 D   3      68.134 102.894 144.3500  0.00  0.00     0.000 O
BRANCH 36 40
ATOM     37  C1  GU6 D   3      69.171 102.626 140.4070  0.00  0.00     0.000 C
ATOM     38  C2  GU6 D   3      69.665 103.895 141.0920  0.00  0.00     0.000 C
ATOM     39  C3  GU6 D   3      69.473 103.772 142.5810  0.00  0.00     0.000 C
ATOM     40  C4  GU6 D   3      68.687 102.636 143.0760  0.00  0.00     0.000 C
ATOM     41  C5  GU6 D   3      67.494 102.363 142.1010  0.00  0.00     0.000 C
ATOM     42  O5  GU6 D   3      67.794 102.459 140.7040  0.00  0.00     0.000 O
BRANCH 38 43
ATOM     43   O  GU6 D   3      71.030 104.120 140.7980  0.00  0.00     0.000 O
ATOM     44   S  GU6 D   3      71.327 105.487 140.1950  0.00  0.00     0.000 S
ATOM     45   O  GU6 D   3      71.032 105.436 138.7530  0.00  0.00     0.000 OA
ATOM     46   O  GU6 D   3      70.454 106.485 140.8390  0.00  0.00     0.000 O
ATOM     47   O  GU6 D   3      72.728 105.815 140.4410  0.00  0.00     0.000 OA
ENDBRANCH 38 43
BRANCH 39 48
ATOM     48   O  GU6 D   3      70.211 104.580 143.4780  0.00  0.00     0.000 O
ATOM     49   S  GU6 D   3      71.482 104.262 144.2650  0.00  0.00     0.000 S
ATOM     50   O  GU6 D   3      72.543 103.817 143.3540  0.00  0.00     0.000 OA
ATOM     51   O  GU6 D   3      71.820 105.551 144.8850  0.00  0.00     0.000 OA
ATOM     52   O  GU6 D   3      71.182 103.201 145.2510  0.00  0.00     0.000 O
ENDBRANCH 39 48
BRANCH 41 53
ATOM     53   C  GU6 D   3      66.071 101.996 142.4260  0.00  0.00     0.000 C
ATOM     54   O  GU6 D   3      66.323 100.737 142.9940  0.00  0.00     0.000 O
ATOM     55   S  GU6 D   3      65.161  99.829 143.4200  0.00  0.00     0.000 S
ATOM     56   O  GU6 D   3      64.448  99.439 142.1820  0.00  0.00     0.000 O
ATOM     57   O  GU6 D   3      65.715  98.646 144.0950  0.00  0.00     0.000 OA
ATOM     58   O  GU6 D   3      64.286 100.623 144.3100  0.00  0.00     0.000 OA
ENDBRANCH 41 53
BRANCH 37 59
ATOM     59  O4  Z9K D   4      69.795 101.329 140.5170  0.00  0.00     0.000 O
BRANCH 59 63
ATOM     60  C1  Z9K D   4      72.392  98.481 139.7500  0.00  0.00     0.000 C
ATOM     61  C2  Z9K D   4      72.678  99.470 138.5870  0.00  0.00     0.000 C
ATOM     62  C3  Z9K D   4      71.760 100.699 139.0040  0.00  0.00     0.000 C
ATOM     63  C4  Z9K D   4      70.282 100.427 139.4820  0.00  0.00     0.000 C
ATOM     64  C5  Z9K D   4      70.017  99.045 140.0980  0.00  0.00     0.000 C
ATOM     65  O5  Z9K D   4      71.283  98.728 140.7360  0.00  0.00     0.000 O
ATOM     66   O  Z9K D   4      71.636 101.693 137.9710  0.00  0.00     0.000 O
ATOM     67   C  Z9K D   4      72.679 102.655 137.9550  0.00  0.00     0.000 C
BRANCH 61 68
ATOM     68   O  Z9K D   4      74.003  99.902 138.7310  0.00  0.00     0.000 O
ATOM     69   O  Z9K D   4      73.338  99.766 136.2640  0.00  0.00     0.000 OA
ATOM     70   S  Z9K D   4      74.060  99.116 137.3160  0.00  0.00     0.000 S
ATOM     71   O  Z9K D   4      74.086  97.708 137.5670  0.00  0.00     0.000 OA
ATOM     72   O  Z9K D   4      75.382  99.643 137.4280  0.00  0.00     0.000 OA
ENDBRANCH 61 68
BRANCH 64 73
ATOM     73   C  Z9K D   4      68.737  99.065 140.9600  0.00  0.00     0.000 C
ATOM     74   O  Z9K D   4      67.591  99.141 140.4300  0.00  0.00     0.000 O
ATOM     75   O  Z9K D   4      68.782  99.000 142.2130  0.00  0.00     0.000 OA
ENDBRANCH 64 73
BRANCH 60 76
ATOM     76  O4  Z9L D   5      72.170  97.062 139.6830  0.00  0.00     0.000 O
BRANCH 76 80
ATOM     77  C1  Z9L D   5      72.971  93.564 141.4440  0.00  0.00     0.000 C
ATOM     78  C2  Z9L D   5      71.390  93.803 141.5710  0.00  0.00     0.000 C
ATOM     79  C3  Z9L D   5      70.990  95.010 140.4560  0.00  0.00     0.000 C
ATOM     80  C4  Z9L D   5      72.239  96.064 140.6700  0.00  0.00     0.000 C
ATOM     81  C5  Z9L D   5      73.827  95.809 140.7750  0.00  0.00     0.000 C
ATOM     82  O5  Z9L D   5      73.995  94.632 141.5790  0.00  0.00     0.000 O
ATOM     83   C  Z9L D   5      74.607  92.523 139.9840  0.00  0.00     0.000 C
ATOM     84   C  Z9L D   5      74.607  92.523 139.9840  0.00  0.00     0.000 C
BRANCH 78 85
ATOM     85   O  Z9L D   5      70.745  92.622 141.2160  0.00  0.00     0.000 O
ATOM     86   O  Z9L D   5      69.769  91.487 142.4280  0.00  0.00     0.000 OA
ATOM     87   S  Z9L D   5      70.326  92.763 142.7620  0.00  0.00     0.000 S
ATOM     88   O  Z9L D   5      69.189  93.622 142.9800  0.00  0.00     0.000 OA
ATOM     89   O  Z9L D   5      71.341  92.489 143.7200  0.00  0.00     0.000 OA
ENDBRANCH 78 85
BRANCH 79 90
ATOM     90   O  Z9L D   5      69.892  95.752 140.8830  0.00  0.00     0.000 O
ATOM     91   S  Z9L D   5      69.332  95.224 139.4880  0.00  0.00     0.000 S
ATOM     92   O  Z9L D   5      69.272  93.824 139.1620  0.00  0.00     0.000 OA
ATOM     93   O  Z9L D   5      69.582  96.213 138.4690  0.00  0.00     0.000 O
ATOM     94   O  Z9L D   5      68.096  95.566 140.1130  0.00  0.00     0.000 OA
ENDBRANCH 79 90
BRANCH 81 95
ATOM     95   C  Z9L D   5      74.800  97.138 141.0910  0.00  0.00     0.000 C
ATOM     96   S  Z9L D   5      75.730  98.170 142.5190  0.00  0.00     0.000 S
ATOM     97   O  Z9L D   5      74.368  97.389 142.4020  0.00  0.00     0.000 O
ATOM     98   O  Z9L D   5      75.583  99.379 141.7510  0.00  0.00     0.000 OA
ATOM     99   O  Z9L D   5      76.909  97.375 142.4310  0.00  0.00     0.000 OA
ATOM    100   O  Z9L D   5      75.226  98.410 143.8480  0.00  0.00     0.000 O
ENDBRANCH 81 95
ENDBRANCH 76 80
ENDBRANCH 60 76
ENDBRANCH 59 63
ENDBRANCH 37 59
ENDBRANCH 36 40
ENDBRANCH 23 36
ENDBRANCH 22 26
ENDBRANCH 1 22
TORSDOF 19
ENDMDL
MODEL 77
REMARK VINA RESULT:       0.0    103.125    110.065
ROOT
ATOM      1  C1  Z9H D   1      95.150 112.290 126.2470  0.00  0.00     0.000 C
ATOM      2  C2  Z9H D   1      93.869 112.981 125.7220  0.00  0.00     0.000 C
ATOM      3  C3  Z9H D   1      94.255 114.453 126.0610  0.00  0.00     0.000 C
ATOM      4  C4  Z9H D   1      94.757 114.700 127.5440  0.00  0.00     0.000 C
ATOM      5  C5  Z9H D   1      95.836 113.788 128.2530  0.00  0.00     0.000 C
ATOM      6  O5  Z9H D   1      95.597 112.509 127.6140  0.00  0.00     0.000 O
ATOM      7   O  Z9H D   1      93.202 115.363 125.7360  0.00  0.00     0.000 O
ATOM      8   C  Z9H D   1      93.343 116.043 124.4770  0.00  0.00     0.000 C
ATOM      9   O  Z9H D   1      95.256 116.041 127.5680  0.00  0.00     0.000 O
ATOM     10   C  Z9H D   1      94.361 117.023 128.0990  0.00  0.00     0.000 C
ENDROOT
BRANCH 2 11
ATOM     11   O  Z9H D   1      94.027 112.872 124.3320  0.00  0.00     0.000 O
ATOM     12   O  Z9H D   1      92.920 111.828 123.2170  0.00  0.00     0.000 OA
ATOM     13   S  Z9H D   1      92.742 111.985 124.6220  0.00  0.00     0.000 S
ATOM     14   O  Z9H D   1      91.660 112.860 124.9740  0.00  0.00     0.000 OA
ATOM     15   O  Z9H D   1      93.082 110.763 125.3130  0.00  0.00     0.000 O
ENDBRANCH 2 11
BRANCH 5 16
ATOM     16   C  Z9H D   1      95.899 113.930 129.9200  0.00  0.00     0.000 C
ATOM     17   S  Z9H D   1      97.129 113.946 131.5090  0.00  0.00     0.000 S
ATOM     18   O  Z9H D   1      97.159 114.551 130.0120  0.00  0.00     0.000 O
ATOM     19   O  Z9H D   1      97.208 112.515 131.5820  0.00  0.00     0.000 O
ATOM     20   O  Z9H D   1      96.273 114.723 132.3350  0.00  0.00     0.000 OA
ATOM     21   O  Z9H D   1      98.426 114.556 131.5280  0.00  0.00     0.000 OA
ENDBRANCH 5 16
BRANCH 1 22
ATOM     22  O4  GU1 D   2      96.380 112.621 125.5060  0.00  0.00     0.000 O
BRANCH 22 26
ATOM     23  C1  GU1 D   2      99.976 111.163 124.1240  0.00  0.00     0.000 C
ATOM     24  C2  GU1 D   2      98.833 110.160 124.1150  0.00  0.00     0.000 C
ATOM     25  C3  GU1 D   2      97.529 110.889 124.2640  0.00  0.00     0.000 C
ATOM     26  C4  GU1 D   2      97.552 111.798 125.4850  0.00  0.00     0.000 C
ATOM     27  C5  GU1 D   2      98.794 112.693 125.4500  0.00  0.00     0.000 C
ATOM     28  O5  GU1 D   2      99.975 111.903 125.3390  0.00  0.00     0.000 O
ATOM     29   O  GU1 D   2      98.789 109.415 122.9030  0.00  0.00     0.000 O
ATOM     30   C  GU1 D   2      99.425 108.147 122.9850  0.00  0.00     0.000 C
ATOM     31   C  GU1 D   2      95.699 109.685 123.2680  0.00  0.00     0.000 C
ATOM     32   O  GU1 D   2      96.487 109.923 124.4320  0.00  0.00     0.000 O
BRANCH 27 33
ATOM     33   C  GU1 D   2      98.907 113.521 126.7080  0.00  0.00     0.000 C
ATOM     34   O  GU1 D   2      99.171 112.955 127.7490  0.00  0.00     0.000 OA
ATOM     35   O  GU1 D   2      98.739 114.730 126.6730  0.00  0.00     0.000 O
ENDBRANCH 27 33
BRANCH 23 36
ATOM     36  O4  GU6 D   3     101.337 110.704 124.2410  0.00  0.00     0.000 O
BRANCH 36 40
ATOM     37  C1  GU6 D   3     105.023 109.652 125.6550  0.00  0.00     0.000 C
ATOM     38  C2  GU6 D   3     105.016 110.051 124.1850  0.00  0.00     0.000 C
ATOM     39  C3  GU6 D   3     103.689 110.674 123.8370  0.00  0.00     0.000 C
ATOM     40  C4  GU6 D   3     102.615 110.590 124.8340  0.00  0.00     0.000 C
ATOM     41  C5  GU6 D   3     102.671 109.198 125.5460  0.00  0.00     0.000 C
ATOM     42  O5  GU6 D   3     103.979 108.717 125.8760  0.00  0.00     0.000 O
BRANCH 38 43
ATOM     43   O  GU6 D   3     106.063 110.962 123.9100  0.00  0.00     0.000 O
ATOM     44   S  GU6 D   3     106.998 110.526 122.7890  0.00  0.00     0.000 S
ATOM     45   O  GU6 D   3     107.978 109.575 123.3400  0.00  0.00     0.000 OA
ATOM     46   O  GU6 D   3     106.200 109.858 121.7450  0.00  0.00     0.000 O
ATOM     47   O  GU6 D   3     107.654 111.708 122.2390  0.00  0.00     0.000 OA
ENDBRANCH 38 43
BRANCH 39 48
ATOM     48   O  GU6 D   3     103.552 111.506 122.7020  0.00  0.00     0.000 O
ATOM     49   S  GU6 D   3     103.566 113.031 122.5960  0.00  0.00     0.000 S
ATOM     50   O  GU6 D   3     104.797 113.567 123.1870  0.00  0.00     0.000 OA
ATOM     51   O  GU6 D   3     103.527 113.264 121.1460  0.00  0.00     0.000 OA
ATOM     52   O  GU6 D   3     102.386 113.572 123.3060  0.00  0.00     0.000 O
ENDBRANCH 39 48
BRANCH 41 53
ATOM     53   C  GU6 D   3     101.537 108.294 125.9500  0.00  0.00     0.000 C
ATOM     54   O  GU6 D   3     100.960 109.133 126.9170  0.00  0.00     0.000 O
ATOM     55   S  GU6 D   3      99.779 108.644 127.7670  0.00  0.00     0.000 S
ATOM     56   O  GU6 D   3     100.291 107.545 128.6180  0.00  0.00     0.000 O
ATOM     57   O  GU6 D   3      99.302 109.762 128.5920  0.00  0.00     0.000 OA
ATOM     58   O  GU6 D   3      98.741 108.154 126.8330  0.00  0.00     0.000 OA
ENDBRANCH 41 53
BRANCH 37 59
ATOM     59  O4  Z9K D   4     105.014 110.576 126.7640  0.00  0.00     0.000 O
BRANCH 59 63
ATOM     60  C1  Z9K D   4     106.490 113.107 129.3840  0.00  0.00     0.000 C
ATOM     61  C2  Z9K D   4     107.789 112.486 128.8010  0.00  0.00     0.000 C
ATOM     62  C3  Z9K D   4     107.197 111.603 127.6190  0.00  0.00     0.000 C
ATOM     63  C4  Z9K D   4     105.929 110.706 127.8910  0.00  0.00     0.000 C
ATOM     64  C5  Z9K D   4     104.998 111.178 129.0180  0.00  0.00     0.000 C
ATOM     65  O5  Z9K D   4     105.130 112.623 128.9610  0.00  0.00     0.000 O
ATOM     66   O  Z9K D   4     108.163 110.710 127.0360  0.00  0.00     0.000 O
ATOM     67   C  Z9K D   4     108.960 111.293 126.0180  0.00  0.00     0.000 C
BRANCH 61 68
ATOM     68   O  Z9K D   4     108.505 113.526 128.1940  0.00  0.00     0.000 O
ATOM     69   O  Z9K D   4     110.082 111.781 129.2030  0.00  0.00     0.000 OA
ATOM     70   S  Z9K D   4     109.508 113.080 129.3860  0.00  0.00     0.000 S
ATOM     71   O  Z9K D   4     109.028 113.615 130.6230  0.00  0.00     0.000 OA
ATOM     72   O  Z9K D   4     110.268 114.075 128.7010  0.00  0.00     0.000 OA
ENDBRANCH 61 68
BRANCH 64 73
ATOM     73   C  Z9K D   4     103.594 110.554 128.8680  0.00  0.00     0.000 C
ATOM     74   O  Z9K D   4     103.394 109.327 129.1020  0.00  0.00     0.000 O
ATOM     75   O  Z9K D   4     102.602 111.237 128.5160  0.00  0.00     0.000 OA
ENDBRANCH 64 73
BRANCH 60 76
ATOM     76  O4  Z9L D   5     106.123 113.283 130.7640  0.00  0.00     0.000 O
BRANCH 76 80
ATOM     77  C1  Z9L D   5     104.430 115.785 133.3790  0.00  0.00     0.000 C
ATOM     78  C2  Z9L D   5     103.493 114.486 133.2980  0.00  0.00     0.000 C
ATOM     79  C3  Z9L D   5     104.415 113.267 132.5740  0.00  0.00     0.000 C
ATOM     80  C4  Z9L D   5     105.162 114.108 131.3710  0.00  0.00     0.000 C
ATOM     81  C5  Z9L D   5     105.914 115.534 131.3910  0.00  0.00     0.000 C
ATOM     82  O5  Z9L D   5     105.118 116.399 132.2150  0.00  0.00     0.000 O
ATOM     83   C  Z9L D   5     106.300 116.683 134.6410  0.00  0.00     0.000 C
ATOM     84   C  Z9L D   5     106.300 116.683 134.6410  0.00  0.00     0.000 C
BRANCH 78 85
ATOM     85   O  Z9L D   5     103.170 114.105 134.5960  0.00  0.00     0.000 O
ATOM     86   O  Z9L D   5     101.415 114.224 135.3810  0.00  0.00     0.000 OA
ATOM     87   S  Z9L D   5     101.725 114.496 134.0110  0.00  0.00     0.000 S
ATOM     88   O  Z9L D   5     101.093 113.436 133.2660  0.00  0.00     0.000 OA
ATOM     89   O  Z9L D   5     101.468 115.885 133.8370  0.00  0.00     0.000 OA
ENDBRANCH 78 85
BRANCH 79 90
ATOM     90   O  Z9L D   5     103.612 112.376 131.8670  0.00  0.00     0.000 O
ATOM     91   S  Z9L D   5     104.307 111.363 132.8810  0.00  0.00     0.000 S
ATOM     92   O  Z9L D   5     104.243 111.536 134.3090  0.00  0.00     0.000 OA
ATOM     93   O  Z9L D   5     105.470 110.784 132.2560  0.00  0.00     0.000 O
ATOM     94   O  Z9L D   5     103.185 110.568 132.5010  0.00  0.00     0.000 OA
ENDBRANCH 79 90
BRANCH 81 95
ATOM     95   C  Z9L D   5     106.483 116.125 129.9280  0.00  0.00     0.000 C
ATOM     96   S  Z9L D   5     106.074 117.319 128.3870  0.00  0.00     0.000 S
ATOM     97   O  Z9L D   5     105.242 116.357 129.3160  0.00  0.00     0.000 O
ATOM     98   O  Z9L D   5     106.860 116.480 127.5190  0.00  0.00     0.000 OA
ATOM     99   O  Z9L D   5     106.639 118.460 129.0240  0.00  0.00     0.000 OA
ATOM    100   O  Z9L D   5     104.775 117.505 127.7880  0.00  0.00     0.000 O
ENDBRANCH 81 95
ENDBRANCH 76 80
ENDBRANCH 60 76
ENDBRANCH 59 63
ENDBRANCH 37 59
ENDBRANCH 36 40
ENDBRANCH 23 36
ENDBRANCH 22 26
ENDBRANCH 1 22
TORSDOF 19
ENDMDL
MODEL 78
REMARK VINA RESULT:       0.0     83.578     90.916
ROOT
ATOM      1  C1  Z9H D   1      73.519  12.664 131.4450  0.00  0.00     0.000 C
ATOM      2  C2  Z9H D   1      73.798  11.363 130.6540  0.00  0.00     0.000 C
ATOM      3  C3  Z9H D   1      73.380  11.870 129.2390  0.00  0.00     0.000 C
ATOM      4  C4  Z9H D   1      71.963  12.576 129.1610  0.00  0.00     0.000 C
ATOM      5  C5  Z9H D   1      71.495  13.689 130.1820  0.00  0.00     0.000 C
ATOM      6  O5  Z9H D   1      72.212  13.299 131.3810  0.00  0.00     0.000 O
ATOM      7   O  Z9H D   1      73.473  10.834 128.2600  0.00  0.00     0.000 O
ATOM      8   C  Z9H D   1      74.670  10.844 127.4650  0.00  0.00     0.000 C
ATOM      9   O  Z9H D   1      71.884  13.145 127.8500  0.00  0.00     0.000 O
ATOM     10   C  Z9H D   1      71.147  12.382 126.8900  0.00  0.00     0.000 C
ENDROOT
BRANCH 2 11
ATOM     11   O  Z9H D   1      75.201  11.331 130.6310  0.00  0.00     0.000 O
ATOM     12   O  Z9H D   1      76.245  10.032 131.5140  0.00  0.00     0.000 OA
ATOM     13   S  Z9H D   1      74.821  10.049 131.4890  0.00  0.00     0.000 S
ATOM     14   O  Z9H D   1      74.244   9.072 130.6100  0.00  0.00     0.000 OA
ATOM     15   O  Z9H D   1      74.299  10.411 132.7870  0.00  0.00     0.000 O
ENDBRANCH 2 11
BRANCH 5 16
ATOM     16   C  Z9H D   1      69.847  13.979 130.2080  0.00  0.00     0.000 C
ATOM     17   S  Z9H D   1      68.447  15.408 130.4000  0.00  0.00     0.000 S
ATOM     18   O  Z9H D   1      69.871  15.271 129.6520  0.00  0.00     0.000 O
ATOM     19   O  Z9H D   1      68.517  15.418 131.8330  0.00  0.00     0.000 O
ATOM     20   O  Z9H D   1      67.443  14.711 129.6740  0.00  0.00     0.000 OA
ATOM     21   O  Z9H D   1      68.549  16.727 129.8480  0.00  0.00     0.000 OA
ENDBRANCH 5 16
BRANCH 1 22
ATOM     22  O4  GU1 D   2      74.387  13.801 131.0930  0.00  0.00     0.000 O
BRANCH 22 26
ATOM     23  C1  GU1 D   2      76.377  17.099 132.5540  0.00  0.00     0.000 C
ATOM     24  C2  GU1 D   2      76.322  15.912 133.5040  0.00  0.00     0.000 C
ATOM     25  C3  GU1 D   2      75.929  14.681 132.7390  0.00  0.00     0.000 C
ATOM     26  C4  GU1 D   2      74.644  14.914 131.9580  0.00  0.00     0.000 C
ATOM     27  C5  GU1 D   2      74.766  16.187 131.1150  0.00  0.00     0.000 C
ATOM     28  O5  GU1 D   2      75.110  17.298 131.9380  0.00  0.00     0.000 O
ATOM     29   O  GU1 D   2      77.579  15.668 134.1230  0.00  0.00     0.000 O
ATOM     30   C  GU1 D   2      77.703  16.240 135.4170  0.00  0.00     0.000 C
ATOM     31   C  GU1 D   2      76.772  12.673 133.7640  0.00  0.00     0.000 C
ATOM     32   O  GU1 D   2      75.710  13.620 133.6740  0.00  0.00     0.000 O
BRANCH 27 33
ATOM     33   C  GU1 D   2      73.464  16.509 130.4210  0.00  0.00     0.000 C
ATOM     34   O  GU1 D   2      72.525  16.878 131.0960  0.00  0.00     0.000 OA
ATOM     35   O  GU1 D   2      73.364  16.404 129.2080  0.00  0.00     0.000 O
ENDBRANCH 27 33
BRANCH 23 36
ATOM     36  O4  GU6 D   3      76.489  18.437 133.0770  0.00  0.00     0.000 O
BRANCH 36 40
ATOM     37  C1  GU6 D   3      75.696  22.216 134.4130  0.00  0.00     0.000 C
ATOM     38  C2  GU6 D   3      77.109  22.035 133.8710  0.00  0.00     0.000 C
ATOM     39  C3  GU6 D   3      77.212  20.710 133.1630  0.00  0.00     0.000 C
ATOM     40  C4  GU6 D   3      76.090  19.774 133.3020  0.00  0.00     0.000 C
ATOM     41  C5  GU6 D   3      75.524  19.849 134.7580  0.00  0.00     0.000 C
ATOM     42  O5  GU6 D   3      75.422  21.161 135.3220  0.00  0.00     0.000 O
BRANCH 38 43
ATOM     43   O  GU6 D   3      77.438  23.085 132.9810  0.00  0.00     0.000 O
ATOM     44   S  GU6 D   3      78.712  23.838 133.3410  0.00  0.00     0.000 S
ATOM     45   O  GU6 D   3      78.391  24.831 134.3810  0.00  0.00     0.000 OA
ATOM     46   O  GU6 D   3      79.695  22.875 133.8700  0.00  0.00     0.000 O
ATOM     47   O  GU6 D   3      79.236  24.478 132.1380  0.00  0.00     0.000 OA
ENDBRANCH 38 43
BRANCH 39 48
ATOM     48   O  GU6 D   3      78.237  20.469 132.2180  0.00  0.00     0.000 O
ATOM     49   S  GU6 D   3      78.202  20.551 130.6920  0.00  0.00     0.000 S
ATOM     50   O  GU6 D   3      77.738  21.876 130.2670  0.00  0.00     0.000 OA
ATOM     51   O  GU6 D   3      79.606  20.333 130.3150  0.00  0.00     0.000 OA
ATOM     52   O  GU6 D   3      77.290  19.506 130.1760  0.00  0.00     0.000 O
ENDBRANCH 39 48
BRANCH 41 53
ATOM     53   C  GU6 D   3      75.054  18.732 135.6500  0.00  0.00     0.000 C
ATOM     54   O  GU6 D   3      73.944  18.334 134.8880  0.00  0.00     0.000 O
ATOM     55   S  GU6 D   3      72.990  17.251 135.4100  0.00  0.00     0.000 S
ATOM     56   O  GU6 D   3      72.321  17.811 136.6070  0.00  0.00     0.000 O
ATOM     57   O  GU6 D   3      72.007  16.947 134.3600  0.00  0.00     0.000 OA
ATOM     58   O  GU6 D   3      73.814  16.073 135.7630  0.00  0.00     0.000 OA
ENDBRANCH 41 53
BRANCH 37 59
ATOM     59  O4  Z9K D   4      74.516  22.404 133.6030  0.00  0.00     0.000 O
BRANCH 59 63
ATOM     60  C1  Z9K D   4      71.900  24.346 131.4060  0.00  0.00     0.000 C
ATOM     61  C2  Z9K D   4      72.710  25.522 132.0190  0.00  0.00     0.000 C
ATOM     62  C3  Z9K D   4      73.877  24.732 132.7560  0.00  0.00     0.000 C
ATOM     63  C4  Z9K D   4      73.518  23.465 133.6230  0.00  0.00     0.000 C
ATOM     64  C5  Z9K D   4      72.235  22.718 133.2270  0.00  0.00     0.000 C
ATOM     65  O5  Z9K D   4      72.176  22.918 131.7900  0.00  0.00     0.000 O
ATOM     66   O  Z9K D   4      74.666  25.563 133.6260  0.00  0.00     0.000 O
ATOM     67   C  Z9K D   4      75.725  26.249 132.9780  0.00  0.00     0.000 C
BRANCH 61 68
ATOM     68   O  Z9K D   4      73.310  26.206 130.9540  0.00  0.00     0.000 O
ATOM     69   O  Z9K D   4      72.693  27.807 132.8530  0.00  0.00     0.000 OA
ATOM     70   S  Z9K D   4      72.313  27.332 131.5560  0.00  0.00     0.000 S
ATOM     71   O  Z9K D   4      70.978  27.050 131.1270  0.00  0.00     0.000 OA
ATOM     72   O  Z9K D   4      73.001  28.048 130.5300  0.00  0.00     0.000 OA
ENDBRANCH 61 68
BRANCH 64 73
ATOM     73   C  Z9K D   4      72.249  21.275 133.7750  0.00  0.00     0.000 C
ATOM     74   O  Z9K D   4      72.104  21.041 135.0100  0.00  0.00     0.000 O
ATOM     75   O  Z9K D   4      72.398  20.283 133.0210  0.00  0.00     0.000 OA
ENDBRANCH 64 73
BRANCH 60 76
ATOM     76  O4  Z9L D   5      70.473  24.175 131.3530  0.00  0.00     0.000 O
BRANCH 76 80
ATOM     77  C1  Z9L D   5      67.430  22.979 129.0540  0.00  0.00     0.000 C
ATOM     78  C2  Z9L D   5      67.503  21.971 130.2990  0.00  0.00     0.000 C
ATOM     79  C3  Z9L D   5      68.455  22.723 131.4780  0.00  0.00     0.000 C
ATOM     80  C4  Z9L D   5      69.667  23.349 130.5530  0.00  0.00     0.000 C
ATOM     81  C5  Z9L D   5      69.618  24.172 129.1680  0.00  0.00     0.000 C
ATOM     82  O5  Z9L D   5      68.616  23.539 128.3570  0.00  0.00     0.000 O
ATOM     83   C  Z9L D   5      66.359  25.045 128.3620  0.00  0.00     0.000 C
ATOM     84   C  Z9L D   5      66.359  25.045 128.3620  0.00  0.00     0.000 C
BRANCH 78 85
ATOM     85   O  Z9L D   5      66.213  21.803 130.7940  0.00  0.00     0.000 O
ATOM     86   O  Z9L D   5      65.188  20.176 130.6810  0.00  0.00     0.000 OA
ATOM     87   S  Z9L D   5      66.557  20.317 130.2880  0.00  0.00     0.000 S
ATOM     88   O  Z9L D   5      67.303  19.536 131.2430  0.00  0.00     0.000 OA
ATOM     89   O  Z9L D   5      66.564  20.113 128.8800  0.00  0.00     0.000 OA
ENDBRANCH 78 85
BRANCH 79 90
ATOM     90   O  Z9L D   5      69.125  21.787 132.2610  0.00  0.00     0.000 O
ATOM     91   S  Z9L D   5      68.313  22.555 133.3970  0.00  0.00     0.000 S
ATOM     92   O  Z9L D   5      66.881  22.689 133.3630  0.00  0.00     0.000 OA
ATOM     93   O  Z9L D   5      69.143  23.592 133.9580  0.00  0.00     0.000 O
ATOM     94   O  Z9L D   5      68.608  21.351 134.1040  0.00  0.00     0.000 OA
ENDBRANCH 79 90
BRANCH 81 95
ATOM     95   C  Z9L D   5      71.084  24.573 128.4590  0.00  0.00     0.000 C
ATOM     96   S  Z9L D   5      72.437  24.029 127.1030  0.00  0.00     0.000 S
ATOM     97   O  Z9L D   5      71.496  23.277 128.1170  0.00  0.00     0.000 O
ATOM     98   O  Z9L D   5      73.478  24.646 127.8830  0.00  0.00     0.000 OA
ATOM     99   O  Z9L D   5      71.780  24.734 126.0540  0.00  0.00     0.000 OA
ATOM    100   O  Z9L D   5      72.833  22.675 126.8050  0.00  0.00     0.000 O
ENDBRANCH 81 95
ENDBRANCH 76 80
ENDBRANCH 60 76
ENDBRANCH 59 63
ENDBRANCH 37 59
ENDBRANCH 36 40
ENDBRANCH 23 36
ENDBRANCH 22 26
ENDBRANCH 1 22
TORSDOF 19
ENDMDL
MODEL 79
REMARK VINA RESULT:       0.0    104.022    110.987
ROOT
ATOM      1  C1  Z9H D   1     102.770  96.827 132.0560  0.00  0.00     0.000 C
ATOM      2  C2  Z9H D   1     103.152  97.775 130.8950  0.00  0.00     0.000 C
ATOM      3  C3  Z9H D   1     104.255  98.596 131.6320  0.00  0.00     0.000 C
ATOM      4  C4  Z9H D   1     103.839  99.176 133.0470  0.00  0.00     0.000 C
ATOM      5  C5  Z9H D   1     103.120  98.311 134.1580  0.00  0.00     0.000 C
ATOM      6  O5  Z9H D   1     102.376  97.366 133.3490  0.00  0.00     0.000 O
ATOM      7   O  Z9H D   1     104.780  99.635 130.8030  0.00  0.00     0.000 O
ATOM      8   C  Z9H D   1     106.019  99.330 130.1430  0.00  0.00     0.000 C
ATOM      9   O  Z9H D   1     105.043  99.690 133.6250  0.00  0.00     0.000 O
ATOM     10   C  Z9H D   1     105.228 101.104 133.5100  0.00  0.00     0.000 C
ENDROOT
BRANCH 2 11
ATOM     11   O  Z9H D   1     103.850  96.915 130.0330  0.00  0.00     0.000 O
ATOM     12   O  Z9H D   1     103.245  96.412 128.3190  0.00  0.00     0.000 OA
ATOM     13   S  Z9H D   1     102.570  97.321 129.1840  0.00  0.00     0.000 S
ATOM     14   O  Z9H D   1     102.702  98.696 128.7970  0.00  0.00     0.000 OA
ATOM     15   O  Z9H D   1     101.368  96.717 129.7110  0.00  0.00     0.000 O
ENDBRANCH 2 11
BRANCH 5 16
ATOM     16   C  Z9H D   1     102.378  99.192 135.3710  0.00  0.00     0.000 C
ATOM     17   S  Z9H D   1     101.973  99.235 137.3400  0.00  0.00     0.000 S
ATOM     18   O  Z9H D   1     103.240  98.833 136.4240  0.00  0.00     0.000 O
ATOM     19   O  Z9H D   1     100.843  98.358 137.2230  0.00  0.00     0.000 O
ATOM     20   O  Z9H D   1     101.856 100.649 137.4230  0.00  0.00     0.000 OA
ATOM     21   O  Z9H D   1     102.878  98.809 138.3670  0.00  0.00     0.000 OA
ENDBRANCH 5 16
BRANCH 1 22
ATOM     22  O4  GU1 D   2     103.834  95.894 132.4690  0.00  0.00     0.000 O
BRANCH 22 26
ATOM     23  C1  GU1 D   2     104.637  92.092 133.8370  0.00  0.00     0.000 C
ATOM     24  C2  GU1 D   2     103.471  92.189 132.8640  0.00  0.00     0.000 C
ATOM     25  C3  GU1 D   2     103.522  93.513 132.1580  0.00  0.00     0.000 C
ATOM     26  C4  GU1 D   2     103.598  94.659 133.1560  0.00  0.00     0.000 C
ATOM     27  C5  GU1 D   2     104.736  94.413 134.1510  0.00  0.00     0.000 C
ATOM     28  O5  GU1 D   2     104.577  93.148 134.7880  0.00  0.00     0.000 O
ATOM     29   O  GU1 D   2     103.510  91.160 131.8830  0.00  0.00     0.000 O
ATOM     30   C  GU1 D   2     102.692  90.040 132.1920  0.00  0.00     0.000 C
ATOM     31   C  GU1 D   2     102.484  93.421 129.9880  0.00  0.00     0.000 C
ATOM     32   O  GU1 D   2     102.326  93.658 131.3850  0.00  0.00     0.000 O
BRANCH 27 33
ATOM     33   C  GU1 D   2     104.761  95.473 135.2260  0.00  0.00     0.000 C
ATOM     34   O  GU1 D   2     103.863  95.489 136.0420  0.00  0.00     0.000 OA
ATOM     35   O  GU1 D   2     105.667  96.290 135.2720  0.00  0.00     0.000 O
ENDBRANCH 27 33
BRANCH 23 36
ATOM     36  O4  GU6 D   3     104.677  91.030 134.8100  0.00  0.00     0.000 O
BRANCH 36 40
ATOM     37  C1  GU6 D   3     104.362  88.817 138.2310  0.00  0.00     0.000 C
ATOM     38  C2  GU6 D   3     105.443  88.327 137.2740  0.00  0.00     0.000 C
ATOM     39  C3  GU6 D   3     105.662  89.352 136.1930  0.00  0.00     0.000 C
ATOM     40  C4  GU6 D   3     104.710  90.465 136.1050  0.00  0.00     0.000 C
ATOM     41  C5  GU6 D   3     103.268  89.946 136.4190  0.00  0.00     0.000 C
ATOM     42  O5  GU6 D   3     103.163  89.010 137.4970  0.00  0.00     0.000 O
BRANCH 38 43
ATOM     43   O  GU6 D   3     106.652  88.092 137.9690  0.00  0.00     0.000 O
ATOM     44   S  GU6 D   3     107.217  86.689 137.7910  0.00  0.00     0.000 S
ATOM     45   O  GU6 D   3     106.517  85.781 138.7170  0.00  0.00     0.000 OA
ATOM     46   O  GU6 D   3     106.973  86.256 136.4030  0.00  0.00     0.000 O
ATOM     47   O  GU6 D   3     108.651  86.721 138.0600  0.00  0.00     0.000 OA
ENDBRANCH 38 43
BRANCH 39 48
ATOM     48   O  GU6 D   3     106.862  89.372 135.4430  0.00  0.00     0.000 O
ATOM     49   S  GU6 D   3     108.113  90.232 135.6180  0.00  0.00     0.000 S
ATOM     50   O  GU6 D   3     108.639  90.089 136.9800  0.00  0.00     0.000 OA
ATOM     51   O  GU6 D   3     109.043  89.672 134.6280  0.00  0.00     0.000 OA
ATOM     52   O  GU6 D   3     107.763  91.646 135.3550  0.00  0.00     0.000 O
ENDBRANCH 39 48
BRANCH 41 53
ATOM     53   C  GU6 D   3     101.967  90.304 135.7540  0.00  0.00     0.000 C
ATOM     54   O  GU6 D   3     101.919  91.652 136.1420  0.00  0.00     0.000 O
ATOM     55   S  GU6 D   3     100.692  92.514 135.8140  0.00  0.00     0.000 S
ATOM     56   O  GU6 D   3      99.560  91.959 136.5920  0.00  0.00     0.000 O
ATOM     57   O  GU6 D   3     100.970  93.899 136.2180  0.00  0.00     0.000 OA
ATOM     58   O  GU6 D   3     100.447  92.393 134.3590  0.00  0.00     0.000 OA
ENDBRANCH 41 53
BRANCH 37 59
ATOM     59  O4  Z9K D   4     104.499  89.937 139.1320  0.00  0.00     0.000 O
BRANCH 59 63
ATOM     60  C1  Z9K D   4     105.600  91.864 142.3750  0.00  0.00     0.000 C
ATOM     61  C2  Z9K D   4     105.861  90.392 142.7970  0.00  0.00     0.000 C
ATOM     62  C3  Z9K D   4     105.591  89.633 141.4260  0.00  0.00     0.000 C
ATOM     63  C4  Z9K D   4     104.319  90.012 140.5760  0.00  0.00     0.000 C
ATOM     64  C5  Z9K D   4     103.781  91.438 140.7660  0.00  0.00     0.000 C
ATOM     65  O5  Z9K D   4     104.984  92.202 141.0450  0.00  0.00     0.000 O
ATOM     66   O  Z9K D   4     105.527  88.203 141.5700  0.00  0.00     0.000 O
ATOM     67   C  Z9K D   4     106.786  87.552 141.5240  0.00  0.00     0.000 C
BRANCH 61 68
ATOM     68   O  Z9K D   4     107.235  90.273 143.0480  0.00  0.00     0.000 O
ATOM     69   O  Z9K D   4     105.876  88.746 144.5880  0.00  0.00     0.000 OA
ATOM     70   S  Z9K D   4     106.600  89.979 144.5090  0.00  0.00     0.000 S
ATOM     71   O  Z9K D   4     106.206  91.219 145.1050  0.00  0.00     0.000 OA
ATOM     72   O  Z9K D   4     107.994  89.766 144.7310  0.00  0.00     0.000 OA
ENDBRANCH 61 68
BRANCH 64 73
ATOM     73   C  Z9K D   4     102.898  91.856 139.5710  0.00  0.00     0.000 C
ATOM     74   O  Z9K D   4     101.748  91.355 139.3990  0.00  0.00     0.000 O
ATOM     75   O  Z9K D   4     103.280  92.708 138.7320  0.00  0.00     0.000 OA
ENDBRANCH 64 73
BRANCH 60 76
ATOM     76  O4  Z9L D   5     104.890  92.888 143.0930  0.00  0.00     0.000 O
BRANCH 76 80
ATOM     77  C1  Z9L D   5     104.899  96.759 144.0850  0.00  0.00     0.000 C
ATOM     78  C2  Z9L D   5     103.610  96.514 143.1620  0.00  0.00     0.000 C
ATOM     79  C3  Z9L D   5     103.349  94.843 143.1270  0.00  0.00     0.000 C
ATOM     80  C4  Z9L D   5     104.890  94.286 142.9590  0.00  0.00     0.000 C
ATOM     81  C5  Z9L D   5     106.248  94.693 143.7270  0.00  0.00     0.000 C
ATOM     82  O5  Z9L D   5     106.222  96.121 143.8650  0.00  0.00     0.000 O
ATOM     83   C  Z9L D   5     105.571  96.775 146.4170  0.00  0.00     0.000 C
ATOM     84   C  Z9L D   5     105.571  96.775 146.4170  0.00  0.00     0.000 C
BRANCH 78 85
ATOM     85   O  Z9L D   5     102.521  97.133 143.7680  0.00  0.00     0.000 O
ATOM     86   O  Z9L D   5     101.609  98.685 143.0850  0.00  0.00     0.000 OA
ATOM     87   S  Z9L D   5     102.646  97.972 142.4040  0.00  0.00     0.000 S
ATOM     88   O  Z9L D   5     101.994  97.350 141.2770  0.00  0.00     0.000 OA
ATOM     89   O  Z9L D   5     103.734  98.884 142.3180  0.00  0.00     0.000 OA
ENDBRANCH 78 85
BRANCH 79 90
ATOM     90   O  Z9L D   5     102.752  94.448 141.9330  0.00  0.00     0.000 O
ATOM     91   S  Z9L D   5     101.664  93.912 142.9660  0.00  0.00     0.000 S
ATOM     92   O  Z9L D   5     101.029  94.771 143.9300  0.00  0.00     0.000 OA
ATOM     93   O  Z9L D   5     101.934  92.529 143.2690  0.00  0.00     0.000 O
ATOM     94   O  Z9L D   5     100.863  93.936 141.7850  0.00  0.00     0.000 OA
ENDBRANCH 79 90
BRANCH 81 95
ATOM     95   C  Z9L D   5     107.670  93.965 143.2140  0.00  0.00     0.000 C
ATOM     96   S  Z9L D   5     109.273  94.169 142.0500  0.00  0.00     0.000 S
ATOM     97   O  Z9L D   5     107.753  94.568 141.9510  0.00  0.00     0.000 O
ATOM     98   O  Z9L D   5     109.339  92.741 141.8780  0.00  0.00     0.000 OA
ATOM     99   O  Z9L D   5     110.021  94.829 143.0660  0.00  0.00     0.000 OA
ATOM    100   O  Z9L D   5     109.293  94.787 140.7470  0.00  0.00     0.000 O
ENDBRANCH 81 95
ENDBRANCH 76 80
ENDBRANCH 60 76
ENDBRANCH 59 63
ENDBRANCH 37 59
ENDBRANCH 36 40
ENDBRANCH 23 36
ENDBRANCH 22 26
ENDBRANCH 1 22
TORSDOF 19
ENDMDL
MODEL 80
REMARK VINA RESULT:       0.0     48.938     54.459
ROOT
ATOM      1  C1  Z9H D   1      61.613  14.853  79.6110  0.00  0.00     0.000 C
ATOM      2  C2  Z9H D   1      60.323  14.016  79.7870  0.00  0.00     0.000 C
ATOM      3  C3  Z9H D   1      59.608  14.928  80.8300  0.00  0.00     0.000 C
ATOM      4  C4  Z9H D   1      60.482  15.340  82.0860  0.00  0.00     0.000 C
ATOM      5  C5  Z9H D   1      61.961  15.886  81.9670  0.00  0.00     0.000 C
ATOM      6  O5  Z9H D   1      62.419  15.216  80.7660  0.00  0.00     0.000 O
ATOM      7   O  Z9H D   1      58.363  14.368  81.2530  0.00  0.00     0.000 O
ATOM      8   C  Z9H D   1      57.197  14.892  80.5980  0.00  0.00     0.000 C
ATOM      9   O  Z9H D   1      59.720  16.332  82.7820  0.00  0.00     0.000 O
ATOM     10   C  Z9H D   1      58.981  15.861  83.9130  0.00  0.00     0.000 C
ENDROOT
BRANCH 2 11
ATOM     11   O  Z9H D   1      59.655  14.252  78.5750  0.00  0.00     0.000 O
ATOM     12   O  Z9H D   1      59.339  12.932  77.2660  0.00  0.00     0.000 OA
ATOM     13   S  Z9H D   1      59.973  12.696  78.5190  0.00  0.00     0.000 S
ATOM     14   O  Z9H D   1      59.136  12.030  79.4760  0.00  0.00     0.000 OA
ATOM     15   O  Z9H D   1      61.383  12.446  78.3310  0.00  0.00     0.000 O
ENDBRANCH 2 11
BRANCH 5 16
ATOM     16   C  Z9H D   1      62.850  15.839  83.3840  0.00  0.00     0.000 C
ATOM     17   S  Z9H D   1      64.230  16.810  84.4760  0.00  0.00     0.000 S
ATOM     18   O  Z9H D   1      62.937  17.226  83.6030  0.00  0.00     0.000 O
ATOM     19   O  Z9H D   1      65.332  16.298  83.7140  0.00  0.00     0.000 O
ATOM     20   O  Z9H D   1      63.824  16.264  85.7240  0.00  0.00     0.000 OA
ATOM     21   O  Z9H D   1      64.296  18.235  84.6230  0.00  0.00     0.000 OA
ENDBRANCH 5 16
BRANCH 1 22
ATOM     22  O4  GU1 D   2      61.413  16.178  78.9980  0.00  0.00     0.000 O
BRANCH 22 26
ATOM     23  C1  GU1 D   2      63.029  18.997  76.4660  0.00  0.00     0.000 C
ATOM     24  C2  GU1 D   2      63.311  17.553  76.0790  0.00  0.00     0.000 C
ATOM     25  C3  GU1 D   2      62.376  16.647  76.8260  0.00  0.00     0.000 C
ATOM     26  C4  GU1 D   2      62.439  16.914  78.3220  0.00  0.00     0.000 C
ATOM     27  C5  GU1 D   2      62.247  18.409  78.5960  0.00  0.00     0.000 C
ATOM     28  O5  GU1 D   2      63.201  19.176  77.8670  0.00  0.00     0.000 O
ATOM     29   O  GU1 D   2      63.127  17.331  74.6860  0.00  0.00     0.000 O
ATOM     30   C  GU1 D   2      64.329  17.391  73.9300  0.00  0.00     0.000 C
ATOM     31   C  GU1 D   2      61.968  14.592  75.6400  0.00  0.00     0.000 C
ATOM     32   O  GU1 D   2      62.772  15.292  76.5860  0.00  0.00     0.000 O
BRANCH 27 33
ATOM     33   C  GU1 D   2      62.425  18.723  80.0630  0.00  0.00     0.000 C
ATOM     34   O  GU1 D   2      63.537  18.635  80.5420  0.00  0.00     0.000 OA
ATOM     35   O  GU1 D   2      61.471  19.061  80.7450  0.00  0.00     0.000 O
ENDBRANCH 27 33
BRANCH 23 36
ATOM     36  O4  GU6 D   3      63.945  20.040  76.0780  0.00  0.00     0.000 O
BRANCH 36 40
ATOM     37  C1  GU6 D   3      66.926  22.834  76.0220  0.00  0.00     0.000 C
ATOM     38  C2  GU6 D   3      65.782  23.130  75.0600  0.00  0.00     0.000 C
ATOM     39  C3  GU6 D   3      64.627  22.207  75.3490  0.00  0.00     0.000 C
ATOM     40  C4  GU6 D   3      64.858  21.099  76.2830  0.00  0.00     0.000 C
ATOM     41  C5  GU6 D   3      66.294  20.521  76.0630  0.00  0.00     0.000 C
ATOM     42  O5  GU6 D   3      67.329  21.486  75.8430  0.00  0.00     0.000 O
BRANCH 38 43
ATOM     43   O  GU6 D   3      65.365  24.477  75.1820  0.00  0.00     0.000 O
ATOM     44   S  GU6 D   3      65.383  25.261  73.8760  0.00  0.00     0.000 S
ATOM     45   O  GU6 D   3      66.761  25.718  73.6230  0.00  0.00     0.000 OA
ATOM     46   O  GU6 D   3      64.955  24.368  72.7840  0.00  0.00     0.000 O
ATOM     47   O  GU6 D   3      64.463  26.388  73.9910  0.00  0.00     0.000 OA
ENDBRANCH 38 43
BRANCH 39 48
ATOM     48   O  GU6 D   3      63.316  22.528  74.9240  0.00  0.00     0.000 O
ATOM     49   S  GU6 D   3      62.163  23.165  75.6980  0.00  0.00     0.000 S
ATOM     50   O  GU6 D   3      62.588  24.445  76.2770  0.00  0.00     0.000 OA
ATOM     51   O  GU6 D   3      61.138  23.365  74.6640  0.00  0.00     0.000 OA
ATOM     52   O  GU6 D   3      61.737  22.240  76.7720  0.00  0.00     0.000 O
ENDBRANCH 39 48
BRANCH 41 53
ATOM     53   C  GU6 D   3      66.748  19.086  76.0640  0.00  0.00     0.000 C
ATOM     54   O  GU6 D   3      66.486  18.804  77.4150  0.00  0.00     0.000 O
ATOM     55   S  GU6 D   3      66.882  17.450  78.0180  0.00  0.00     0.000 S
ATOM     56   O  GU6 D   3      68.362  17.391  78.0020  0.00  0.00     0.000 O
ATOM     57   O  GU6 D   3      66.374  17.385  79.3960  0.00  0.00     0.000 OA
ATOM     58   O  GU6 D   3      66.298  16.398  77.1570  0.00  0.00     0.000 OA
ENDBRANCH 41 53
BRANCH 37 59
ATOM     59  O4  Z9K D   4      66.901  23.090  77.4420  0.00  0.00     0.000 O
BRANCH 59 63
ATOM     60  C1  Z9K D   4      67.162  25.198  80.7500  0.00  0.00     0.000 C
ATOM     61  C2  Z9K D   4      67.764  26.187  79.7140  0.00  0.00     0.000 C
ATOM     62  C3  Z9K D   4      67.488  25.407  78.3560  0.00  0.00     0.000 C
ATOM     63  C4  Z9K D   4      67.810  23.866  78.2770  0.00  0.00     0.000 C
ATOM     64  C5  Z9K D   4      67.770  23.099  79.6070  0.00  0.00     0.000 C
ATOM     65  O5  Z9K D   4      66.747  23.806  80.3560  0.00  0.00     0.000 O
ATOM     66   O  Z9K D   4      68.161  25.984  77.2220  0.00  0.00     0.000 O
ATOM     67   C  Z9K D   4      67.453  27.042  76.5980  0.00  0.00     0.000 C
BRANCH 61 68
ATOM     68   O  Z9K D   4      66.936  27.317  79.6940  0.00  0.00     0.000 O
ATOM     69   O  Z9K D   4      69.377  27.951  79.2640  0.00  0.00     0.000 OA
ATOM     70   S  Z9K D   4      68.330  27.934  80.2410  0.00  0.00     0.000 S
ATOM     71   O  Z9K D   4      68.481  27.592  81.6220  0.00  0.00     0.000 OA
ATOM     72   O  Z9K D   4      67.506  29.093  80.1250  0.00  0.00     0.000 OA
ENDBRANCH 61 68
BRANCH 64 73
ATOM     73   C  Z9K D   4      67.598  21.585  79.3630  0.00  0.00     0.000 C
ATOM     74   O  Z9K D   4      68.541  20.885  78.8910  0.00  0.00     0.000 O
ATOM     75   O  Z9K D   4      66.524  20.990  79.6270  0.00  0.00     0.000 OA
ENDBRANCH 64 73
BRANCH 60 76
ATOM     76  O4  Z9L D   5      67.697  24.801  82.0240  0.00  0.00     0.000 O
BRANCH 76 80
ATOM     77  C1  Z9L D   5      66.770  24.014  85.8310  0.00  0.00     0.000 C
ATOM     78  C2  Z9L D   5      67.301  22.646  85.1840  0.00  0.00     0.000 C
ATOM     79  C3  Z9L D   5      68.110  23.064  83.7590  0.00  0.00     0.000 C
ATOM     80  C4  Z9L D   5      67.090  24.200  83.1390  0.00  0.00     0.000 C
ATOM     81  C5  Z9L D   5      66.361  25.457  83.8380  0.00  0.00     0.000 C
ATOM     82  O5  Z9L D   5      65.914  25.000  85.1240  0.00  0.00     0.000 O
ATOM     83   C  Z9L D   5      67.568  25.954  87.0520  0.00  0.00     0.000 C
ATOM     84   C  Z9L D   5      67.568  25.954  87.0520  0.00  0.00     0.000 C
BRANCH 78 85
ATOM     85   O  Z9L D   5      68.207  22.072  86.0710  0.00  0.00     0.000 O
ATOM     86   O  Z9L D   5      67.909  20.446  87.0610  0.00  0.00     0.000 OA
ATOM     87   S  Z9L D   5      67.035  20.972  86.0560  0.00  0.00     0.000 S
ATOM     88   O  Z9L D   5      67.125  20.042  84.9580  0.00  0.00     0.000 OA
ATOM     89   O  Z9L D   5      65.837  21.313  86.7430  0.00  0.00     0.000 OA
ENDBRANCH 78 85
BRANCH 79 90
ATOM     90   O  Z9L D   5      68.035  22.043  82.8150  0.00  0.00     0.000 O
ATOM     91   S  Z9L D   5      69.617  22.169  82.9480  0.00  0.00     0.000 S
ATOM     92   O  Z9L D   5      70.297  22.042  84.2100  0.00  0.00     0.000 OA
ATOM     93   O  Z9L D   5      70.113  23.056  81.9250  0.00  0.00     0.000 O
ATOM     94   O  Z9L D   5      69.542  20.864  82.3750  0.00  0.00     0.000 OA
ENDBRANCH 79 90
BRANCH 81 95
ATOM     95   C  Z9L D   5      65.303  26.354  82.8960  0.00  0.00     0.000 C
ATOM     96   S  Z9L D   5      63.393  26.613  82.3930  0.00  0.00     0.000 S
ATOM     97   O  Z9L D   5      64.308  25.378  82.7370  0.00  0.00     0.000 O
ATOM     98   O  Z9L D   5      63.792  27.074  81.0880  0.00  0.00     0.000 OA
ATOM     99   O  Z9L D   5      63.156  27.524  83.4610  0.00  0.00     0.000 OA
ATOM    100   O  Z9L D   5      62.417  25.564  82.2270  0.00  0.00     0.000 O
ENDBRANCH 81 95
ENDBRANCH 76 80
ENDBRANCH 60 76
ENDBRANCH 59 63
ENDBRANCH 37 59
ENDBRANCH 36 40
ENDBRANCH 23 36
ENDBRANCH 22 26
ENDBRANCH 1 22
TORSDOF 19
ENDMDL
MODEL 81
REMARK VINA RESULT:       0.0      7.967     14.002
ROOT
ATOM      1  C1  Z9H D   1      19.458  60.562  54.6340  0.00  0.00     0.000 C
ATOM      2  C2  Z9H D   1      18.063  60.404  53.9830  0.00  0.00     0.000 C
ATOM      3  C3  Z9H D   1      17.490  59.319  54.9460  0.00  0.00     0.000 C
ATOM      4  C4  Z9H D   1      18.421  58.059  55.1800  0.00  0.00     0.000 C
ATOM      5  C5  Z9H D   1      19.962  58.173  55.5150  0.00  0.00     0.000 C
ATOM      6  O5  Z9H D   1      20.314  59.403  54.8340  0.00  0.00     0.000 O
ATOM      7   O  Z9H D   1      16.181  58.903  54.5520  0.00  0.00     0.000 O
ATOM      8   C  Z9H D   1      15.097  59.526  55.2620  0.00  0.00     0.000 C
ATOM      9   O  Z9H D   1      17.812  57.317  56.2420  0.00  0.00     0.000 O
ATOM     10   C  Z9H D   1      17.020  56.196  55.8370  0.00  0.00     0.000 C
ENDROOT
BRANCH 2 11
ATOM     11   O  Z9H D   1      17.428  61.598  54.3580  0.00  0.00     0.000 O
ATOM     12   O  Z9H D   1      16.920  62.953  53.1480  0.00  0.00     0.000 OA
ATOM     13   S  Z9H D   1      17.521  61.717  52.7760  0.00  0.00     0.000 S
ATOM     14   O  Z9H D   1      16.604  60.776  52.1990  0.00  0.00     0.000 OA
ATOM     15   O  Z9H D   1      18.881  61.930  52.3360  0.00  0.00     0.000 O
ENDBRANCH 2 11
BRANCH 5 16
ATOM     16   C  Z9H D   1      20.843  56.768  55.2870  0.00  0.00     0.000 C
ATOM     17   S  Z9H D   1      22.353  55.656  56.0090  0.00  0.00     0.000 S
ATOM     18   O  Z9H D   1      21.127  56.498  56.6380  0.00  0.00     0.000 O
ATOM     19   O  Z9H D   1      23.367  56.449  55.3760  0.00  0.00     0.000 O
ATOM     20   O  Z9H D   1      21.880  54.425  55.4780  0.00  0.00     0.000 OA
ATOM     21   O  Z9H D   1      22.621  55.455  57.4030  0.00  0.00     0.000 OA
ENDBRANCH 5 16
BRANCH 1 22
ATOM     22  O4  GU1 D   2      19.444  61.123  55.9970  0.00  0.00     0.000 O
BRANCH 22 26
ATOM     23  C1  GU1 D   2      21.431  63.564  58.6550  0.00  0.00     0.000 C
ATOM     24  C2  GU1 D   2      21.502  64.009  57.2020  0.00  0.00     0.000 C
ATOM     25  C3  GU1 D   2      20.452  63.286  56.4090  0.00  0.00     0.000 C
ATOM     26  C4  GU1 D   2      20.561  61.781  56.6060  0.00  0.00     0.000 C
ATOM     27  C5  GU1 D   2      20.585  61.449  58.1010  0.00  0.00     0.000 C
ATOM     28  O5  GU1 D   2      21.634  62.159  58.7530  0.00  0.00     0.000 O
ATOM     29   O  GU1 D   2      21.281  65.407  57.0620  0.00  0.00     0.000 O
ATOM     30   C  GU1 D   2      22.475  66.172  56.9810  0.00  0.00     0.000 C
ATOM     31   C  GU1 D   2      19.750  64.544  54.4810  0.00  0.00     0.000 C
ATOM     32   O  GU1 D   2      20.651  63.581  55.0220  0.00  0.00     0.000 O
BRANCH 27 33
ATOM     33   C  GU1 D   2      20.814  59.973  58.3290  0.00  0.00     0.000 C
ATOM     34   O  GU1 D   2      21.905  59.510  58.0650  0.00  0.00     0.000 OA
ATOM     35   O  GU1 D   2      19.921  59.268  58.7730  0.00  0.00     0.000 O
ENDBRANCH 27 33
BRANCH 23 36
ATOM     36  O4  GU6 D   3      22.484  63.922  59.5710  0.00  0.00     0.000 O
BRANCH 36 40
ATOM     37  C1  GU6 D   3      25.831  63.905  61.9150  0.00  0.00     0.000 C
ATOM     38  C2  GU6 D   3      24.736  64.843  62.4070  0.00  0.00     0.000 C
ATOM     39  C3  GU6 D   3      23.463  64.576  61.6470  0.00  0.00     0.000 C
ATOM     40  C4  GU6 D   3      23.539  63.688  60.4820  0.00  0.00     0.000 C
ATOM     41  C5  GU6 D   3      24.878  63.945  59.7140  0.00  0.00     0.000 C
ATOM     42  O5  GU6 D   3      26.038  64.140  60.5310  0.00  0.00     0.000 O
BRANCH 38 43
ATOM     43   O  GU6 D   3      24.516  64.666  63.7940  0.00  0.00     0.000 O
ATOM     44   S  GU6 D   3      24.638  65.941  64.6180  0.00  0.00     0.000 S
ATOM     45   O  GU6 D   3      26.064  66.192  64.8840  0.00  0.00     0.000 OA
ATOM     46   O  GU6 D   3      24.080  67.061  63.8380  0.00  0.00     0.000 O
ATOM     47   O  GU6 D   3      23.887  65.773  65.8580  0.00  0.00     0.000 OA
ENDBRANCH 38 43
BRANCH 39 48
ATOM     48   O  GU6 D   3      22.209  64.974  62.1670  0.00  0.00     0.000 O
ATOM     49   S  GU6 D   3      21.162  64.164  62.9300  0.00  0.00     0.000 S
ATOM     50   O  GU6 D   3      21.768  63.542  64.1130  0.00  0.00     0.000 OA
ATOM     51   O  GU6 D   3      20.171  65.179  63.3130  0.00  0.00     0.000 OA
ATOM     52   O  GU6 D   3      20.615  63.122  62.0340  0.00  0.00     0.000 O
ENDBRANCH 39 48
BRANCH 41 53
ATOM     53   C  GU6 D   3      25.123  64.003  58.2310  0.00  0.00     0.000 C
ATOM     54   O  GU6 D   3      24.831  62.661  57.9370  0.00  0.00     0.000 O
ATOM     55   S  GU6 D   3      25.033  62.114  56.5180  0.00  0.00     0.000 S
ATOM     56   O  GU6 D   3      26.490  62.148  56.2500  0.00  0.00     0.000 O
ATOM     57   O  GU6 D   3      24.529  60.734  56.4720  0.00  0.00     0.000 OA
ATOM     58   O  GU6 D   3      24.301  63.008  55.5930  0.00  0.00     0.000 OA
ENDBRANCH 41 53
BRANCH 37 59
ATOM     59  O4  Z9K D   4      25.851  62.476  62.1160  0.00  0.00     0.000 O
BRANCH 59 63
ATOM     60  C1  Z9K D   4      26.427  59.095  64.0350  0.00  0.00     0.000 C
ATOM     61  C2  Z9K D   4      27.159  60.099  64.9680  0.00  0.00     0.000 C
ATOM     62  C3  Z9K D   4      26.767  61.482  64.2890  0.00  0.00     0.000 C
ATOM     63  C4  Z9K D   4      26.866  61.624  62.7220  0.00  0.00     0.000 C
ATOM     64  C5  Z9K D   4      26.725  60.323  61.9170  0.00  0.00     0.000 C
ATOM     65  O5  Z9K D   4      25.817  59.536  62.7330  0.00  0.00     0.000 O
ATOM     66   O  Z9K D   4      27.508  62.601  64.8080  0.00  0.00     0.000 O
ATOM     67   C  Z9K D   4      26.955  63.177  65.9800  0.00  0.00     0.000 C
BRANCH 61 68
ATOM     68   O  Z9K D   4      26.499  60.067  66.2040  0.00  0.00     0.000 O
ATOM     69   O  Z9K D   4      29.004  60.500  66.5020  0.00  0.00     0.000 OA
ATOM     70   S  Z9K D   4      27.970  59.513  66.5950  0.00  0.00     0.000 S
ATOM     71   O  Z9K D   4      28.078  58.147  66.1820  0.00  0.00     0.000 OA
ATOM     72   O  Z9K D   4      27.318  59.576  67.8630  0.00  0.00     0.000 OA
ENDBRANCH 61 68
BRANCH 64 73
ATOM     73   C  Z9K D   4      26.337  60.622  60.4530  0.00  0.00     0.000 C
ATOM     74   O  Z9K D   4      27.168  61.130  59.6460  0.00  0.00     0.000 O
ATOM     75   O  Z9K D   4      25.191  60.368  60.0080  0.00  0.00     0.000 OA
ENDBRANCH 64 73
BRANCH 60 76
ATOM     76  O4  Z9L D   5      26.907  57.843  63.5170  0.00  0.00     0.000 O
BRANCH 76 80
ATOM     77  C1  Z9L D   5      25.899  54.058  62.7220  0.00  0.00     0.000 C
ATOM     78  C2  Z9L D   5      26.227  54.762  61.3180  0.00  0.00     0.000 C
ATOM     79  C3  Z9L D   5      27.079  56.179  61.6730  0.00  0.00     0.000 C
ATOM     80  C4  Z9L D   5      26.228  56.745  62.9650  0.00  0.00     0.000 C
ATOM     81  C5  Z9L D   5      25.689  55.990  64.2840  0.00  0.00     0.000 C
ATOM     82  O5  Z9L D   5      25.188  54.718  63.8460  0.00  0.00     0.000 O
ATOM     83   C  Z9L D   5      26.972  52.774  64.4800  0.00  0.00     0.000 C
ATOM     84   C  Z9L D   5      26.972  52.774  64.4800  0.00  0.00     0.000 C
BRANCH 78 85
ATOM     85   O  Z9L D   5      27.047  53.907  60.5870  0.00  0.00     0.000 O
ATOM     86   O  Z9L D   5      26.526  52.976  58.9830  0.00  0.00     0.000 OA
ATOM     87   S  Z9L D   5      25.731  53.951  59.6670  0.00  0.00     0.000 S
ATOM     88   O  Z9L D   5      25.681  55.084  58.7760  0.00  0.00     0.000 OA
ATOM     89   O  Z9L D   5      24.597  53.238  60.1470  0.00  0.00     0.000 OA
ENDBRANCH 78 85
BRANCH 79 90
ATOM     90   O  Z9L D   5      26.855  57.160  60.7100  0.00  0.00     0.000 O
ATOM     91   S  Z9L D   5      28.439  57.040  60.6050  0.00  0.00     0.000 S
ATOM     92   O  Z9L D   5      29.101  55.791  60.3340  0.00  0.00     0.000 OA
ATOM     93   O  Z9L D   5      29.050  58.034  61.4520  0.00  0.00     0.000 O
ATOM     94   O  Z9L D   5      28.176  57.661  59.3480  0.00  0.00     0.000 OA
ENDBRANCH 79 90
BRANCH 81 95
ATOM     95   C  Z9L D   5      24.764  56.886  65.3590  0.00  0.00     0.000 C
ATOM     96   S  Z9L D   5      22.907  57.358  65.9050  0.00  0.00     0.000 S
ATOM     97   O  Z9L D   5      23.640  57.071  64.5410  0.00  0.00     0.000 O
ATOM     98   O  Z9L D   5      23.361  58.649  66.3560  0.00  0.00     0.000 OA
ATOM     99   O  Z9L D   5      22.809  56.254  66.7990  0.00  0.00     0.000 OA
ATOM    100   O  Z9L D   5      21.791  57.553  65.0130  0.00  0.00     0.000 O
ENDBRANCH 81 95
ENDBRANCH 76 80
ENDBRANCH 60 76
ENDBRANCH 59 63
ENDBRANCH 37 59
ENDBRANCH 36 40
ENDBRANCH 23 36
ENDBRANCH 22 26
ENDBRANCH 1 22
TORSDOF 19
ENDMDL
MODEL 82
REMARK VINA RESULT:       0.0    115.842    121.990
ROOT
ATOM      1  C1  Z9H D   1     112.800 127.439 128.2230  0.00  0.00     0.000 C
ATOM      2  C2  Z9H D   1     114.283 127.839 128.0380  0.00  0.00     0.000 C
ATOM      3  C3  Z9H D   1     114.058 129.183 127.2810  0.00  0.00     0.000 C
ATOM      4  C4  Z9H D   1     113.079 129.107 126.0370  0.00  0.00     0.000 C
ATOM      5  C5  Z9H D   1     111.671 128.392 126.0880  0.00  0.00     0.000 C
ATOM      6  O5  Z9H D   1     111.910 127.357 127.0750  0.00  0.00     0.000 O
ATOM      7   O  Z9H D   1     115.296 129.789 126.9030  0.00  0.00     0.000 O
ATOM      8   C  Z9H D   1     115.766 130.828 127.7780  0.00  0.00     0.000 C
ATOM      9   O  Z9H D   1     112.850 130.463 125.6390  0.00  0.00     0.000 O
ATOM     10   C  Z9H D   1     113.630 130.921 124.5310  0.00  0.00     0.000 C
ENDROOT
BRANCH 2 11
ATOM     11   O  Z9H D   1     114.650 128.209 129.3410  0.00  0.00     0.000 O
ATOM     12   O  Z9H D   1     115.899 127.270 130.3970  0.00  0.00     0.000 OA
ATOM     13   S  Z9H D   1     115.553 126.933 129.0580  0.00  0.00     0.000 S
ATOM     14   O  Z9H D   1     116.552 127.293 128.0920  0.00  0.00     0.000 OA
ATOM     15   O  Z9H D   1     114.769 125.720 129.0300  0.00  0.00     0.000 O
ENDBRANCH 2 11
BRANCH 5 16
ATOM     16   C  Z9H D   1     111.003 128.034 124.5960  0.00  0.00     0.000 C
ATOM     17   S  Z9H D   1     109.282 127.935 123.5620  0.00  0.00     0.000 S
ATOM     18   O  Z9H D   1     109.931 128.945 124.6420  0.00  0.00     0.000 O
ATOM     19   O  Z9H D   1     108.935 126.642 124.0780  0.00  0.00     0.000 O
ATOM     20   O  Z9H D   1     109.880 128.131 122.2870  0.00  0.00     0.000 OA
ATOM     21   O  Z9H D   1     108.203 128.870 123.6870  0.00  0.00     0.000 OA
ENDBRANCH 5 16
BRANCH 1 22
ATOM     22  O4  GU1 D   2     112.023 128.332 129.1010  0.00  0.00     0.000 O
BRANCH 22 26
ATOM     23  C1  GU1 D   2     109.032 128.510 131.9280  0.00  0.00     0.000 C
ATOM     24  C2  GU1 D   2     109.900 127.262 131.9930  0.00  0.00     0.000 C
ATOM     25  C3  GU1 D   2     111.152 127.486 131.1970  0.00  0.00     0.000 C
ATOM     26  C4  GU1 D   2     110.824 127.945 129.7830  0.00  0.00     0.000 C
ATOM     27  C5  GU1 D   2     109.865 129.138 129.8280  0.00  0.00     0.000 C
ATOM     28  O5  GU1 D   2     108.698 128.811 130.5780  0.00  0.00     0.000 O
ATOM     29   O  GU1 D   2     110.272 126.942 133.3280  0.00  0.00     0.000 O
ATOM     30   C  GU1 D   2     109.444 125.962 133.9370  0.00  0.00     0.000 C
ATOM     31   C  GU1 D   2     112.986 126.150 132.0000  0.00  0.00     0.000 C
ATOM     32   O  GU1 D   2     111.867 126.249 131.1220  0.00  0.00     0.000 O
BRANCH 27 33
ATOM     33   C  GU1 D   2     109.426 129.539 128.4400  0.00  0.00     0.000 C
ATOM     34   O  GU1 D   2     108.691 128.791 127.8280  0.00  0.00     0.000 OA
ATOM     35   O  GU1 D   2     109.800 130.593 127.9510  0.00  0.00     0.000 O
ENDBRANCH 27 33
BRANCH 23 36
ATOM     36  O4  GU6 D   3     107.671 128.468 132.4020  0.00  0.00     0.000 O
BRANCH 36 40
ATOM     37  C1  GU6 D   3     103.603 128.195 132.6560  0.00  0.00     0.000 C
ATOM     38  C2  GU6 D   3     104.240 128.999 133.7820  0.00  0.00     0.000 C
ATOM     39  C3  GU6 D   3     105.685 129.269 133.4550  0.00  0.00     0.000 C
ATOM     40  C4  GU6 D   3     106.265 128.568 132.3030  0.00  0.00     0.000 C
ATOM     41  C5  GU6 D   3     105.701 127.110 132.2400  0.00  0.00     0.000 C
ATOM     42  O5  GU6 D   3     104.305 126.969 132.5220  0.00  0.00     0.000 O
BRANCH 38 43
ATOM     43   O  GU6 D   3     103.552 130.220 133.9730  0.00  0.00     0.000 O
ATOM     44   S  GU6 D   3     103.055 130.446 135.3950  0.00  0.00     0.000 S
ATOM     45   O  GU6 D   3     101.790 129.714 135.5720  0.00  0.00     0.000 OA
ATOM     46   O  GU6 D   3     104.062 129.919 136.3350  0.00  0.00     0.000 O
ATOM     47   O  GU6 D   3     102.875 131.879 135.6070  0.00  0.00     0.000 OA
ENDBRANCH 38 43
BRANCH 39 48
ATOM     48   O  GU6 D   3     106.387 130.325 134.0820  0.00  0.00     0.000 O
ATOM     49   S  GU6 D   3     106.679 131.740 133.5840  0.00  0.00     0.000 S
ATOM     50   O  GU6 D   3     105.429 132.416 133.2200  0.00  0.00     0.000 OA
ATOM     51   O  GU6 D   3     107.308 132.379 134.7490  0.00  0.00     0.000 OA
ATOM     52   O  GU6 D   3     107.574 131.660 132.4080  0.00  0.00     0.000 O
ENDBRANCH 39 48
BRANCH 41 53
ATOM     53   C  GU6 D   3     106.420 125.831 131.9080  0.00  0.00     0.000 C
ATOM     54   O  GU6 D   3     106.720 126.123 130.5680  0.00  0.00     0.000 O
ATOM     55   S  GU6 D   3     107.384 125.069 129.6710  0.00  0.00     0.000 S
ATOM     56   O  GU6 D   3     106.403 123.971 129.5050  0.00  0.00     0.000 O
ATOM     57   O  GU6 D   3     107.697 125.687 128.3750  0.00  0.00     0.000 OA
ATOM     58   O  GU6 D   3     108.598 124.596 130.3740  0.00  0.00     0.000 OA
ENDBRANCH 41 53
BRANCH 37 59
ATOM     59  O4  Z9K D   4     103.348 128.691 131.3250  0.00  0.00     0.000 O
BRANCH 59 63
ATOM     60  C1  Z9K D   4     101.448 130.629 128.4820  0.00  0.00     0.000 C
ATOM     61  C2  Z9K D   4     100.383 130.634 129.6130  0.00  0.00     0.000 C
ATOM     62  C3  Z9K D   4     101.219 130.016 130.8160  0.00  0.00     0.000 C
ATOM     63  C4  Z9K D   4     102.110 128.742 130.5580  0.00  0.00     0.000 C
ATOM     64  C5  Z9K D   4     102.607 128.547 129.1170  0.00  0.00     0.000 C
ATOM     65  O5  Z9K D   4     102.760 129.911 128.6430  0.00  0.00     0.000 O
ATOM     66   O  Z9K D   4     100.409 129.675 131.9560  0.00  0.00     0.000 O
ATOM     67   C  Z9K D   4     100.175 130.750 132.8510  0.00  0.00     0.000 C
BRANCH 61 68
ATOM     68   O  Z9K D   4     100.145 131.974 129.9470  0.00  0.00     0.000 O
ATOM     69   O  Z9K D   4      98.025 130.563 130.2080  0.00  0.00     0.000 OA
ATOM     70   S  Z9K D   4      98.703 131.510 129.3730  0.00  0.00     0.000 S
ATOM     71   O  Z9K D   4      98.759 131.475 127.9440  0.00  0.00     0.000 OA
ATOM     72   O  Z9K D   4      98.446 132.845 129.8060  0.00  0.00     0.000 OA
ENDBRANCH 61 68
BRANCH 64 73
ATOM     73   C  Z9K D   4     103.831 127.608 129.0810  0.00  0.00     0.000 C
ATOM     74   O  Z9K D   4     103.711 126.367 129.2960  0.00  0.00     0.000 O
ATOM     75   O  Z9K D   4     104.985 128.034 128.8320  0.00  0.00     0.000 OA
ENDBRANCH 64 73
BRANCH 60 76
ATOM     76  O4  Z9L D   5     101.285 130.260 127.1010  0.00  0.00     0.000 O
BRANCH 76 80
ATOM     77  C1  Z9L D   5     102.258 131.222 123.3470  0.00  0.00     0.000 C
ATOM     78  C2  Z9L D   5     102.915 129.791 123.6500  0.00  0.00     0.000 C
ATOM     79  C3  Z9L D   5     102.143 129.184 125.0270  0.00  0.00     0.000 C
ATOM     80  C4  Z9L D   5     102.069 130.533 125.9690  0.00  0.00     0.000 C
ATOM     81  C5  Z9L D   5     101.626 132.043 125.6150  0.00  0.00     0.000 C
ATOM     82  O5  Z9L D   5     102.185 132.336 124.3260  0.00  0.00     0.000 O
ATOM     83   C  Z9L D   5     100.235 132.212 122.4420  0.00  0.00     0.000 C
ATOM     84   C  Z9L D   5     100.235 132.212 122.4420  0.00  0.00     0.000 C
BRANCH 78 85
ATOM     85   O  Z9L D   5     102.647 128.955 122.5700  0.00  0.00     0.000 O
ATOM     86   O  Z9L D   5     103.962 128.299 121.3250  0.00  0.00     0.000 OA
ATOM     87   S  Z9L D   5     104.250 129.054 122.5060  0.00  0.00     0.000 S
ATOM     88   O  Z9L D   5     104.925 128.131 123.3850  0.00  0.00     0.000 OA
ATOM     89   O  Z9L D   5     104.791 130.284 122.0420  0.00  0.00     0.000 OA
ENDBRANCH 78 85
BRANCH 79 90
ATOM     90   O  Z9L D   5     102.987 128.351 125.7570  0.00  0.00     0.000 O
ATOM     91   S  Z9L D   5     101.793 127.336 125.4690  0.00  0.00     0.000 S
ATOM     92   O  Z9L D   5     101.337 127.041 124.1370  0.00  0.00     0.000 OA
ATOM     93   O  Z9L D   5     100.876 127.352 126.5810  0.00  0.00     0.000 O
ATOM     94   O  Z9L D   5     102.820 126.395 125.7830  0.00  0.00     0.000 OA
ENDBRANCH 79 90
BRANCH 81 95
ATOM     95   C  Z9L D   5     101.770 133.191 126.8290  0.00  0.00     0.000 C
ATOM     96   S  Z9L D   5     102.936 134.616 127.5900  0.00  0.00     0.000 S
ATOM     97   O  Z9L D   5     103.170 133.215 126.9100  0.00  0.00     0.000 O
ATOM     98   O  Z9L D   5     102.408 134.356 128.9040  0.00  0.00     0.000 OA
ATOM     99   O  Z9L D   5     102.378 135.624 126.7530  0.00  0.00     0.000 OA
ATOM    100   O  Z9L D   5     104.376 134.576 127.6600  0.00  0.00     0.000 O
ENDBRANCH 81 95
ENDBRANCH 76 80
ENDBRANCH 60 76
ENDBRANCH 59 63
ENDBRANCH 37 59
ENDBRANCH 36 40
ENDBRANCH 23 36
ENDBRANCH 22 26
ENDBRANCH 1 22
TORSDOF 19
ENDMDL
MODEL 83
REMARK VINA RESULT:       0.0    130.027    136.655
ROOT
ATOM      1  C1  Z9H D   1     124.686 120.967 148.1880  0.00  0.00     0.000 C
ATOM      2  C2  Z9H D   1     124.674 119.922 149.3290  0.00  0.00     0.000 C
ATOM      3  C3  Z9H D   1     123.342 119.201 148.9550  0.00  0.00     0.000 C
ATOM      4  C4  Z9H D   1     122.098 120.153 148.7160  0.00  0.00     0.000 C
ATOM      5  C5  Z9H D   1     122.163 121.450 147.8150  0.00  0.00     0.000 C
ATOM      6  O5  Z9H D   1     123.547 121.848 147.9840  0.00  0.00     0.000 O
ATOM      7   O  Z9H D   1     123.013 118.180 149.8990  0.00  0.00     0.000 O
ATOM      8   C  Z9H D   1     123.372 116.844 149.5110  0.00  0.00     0.000 C
ATOM      9   O  Z9H D   1     121.066 119.318 148.1810  0.00  0.00     0.000 O
ATOM     10   C  Z9H D   1     120.081 118.876 149.1200  0.00  0.00     0.000 C
ENDROOT
BRANCH 2 11
ATOM     11   O  Z9H D   1     125.691 119.041 148.9290  0.00  0.00     0.000 O
ATOM     12   O  Z9H D   1     127.316 118.808 149.8580  0.00  0.00     0.000 OA
ATOM     13   S  Z9H D   1     126.256 119.662 150.2780  0.00  0.00     0.000 S
ATOM     14   O  Z9H D   1     125.489 119.139 151.3720  0.00  0.00     0.000 OA
ATOM     15   O  Z9H D   1     126.630 121.048 150.1120  0.00  0.00     0.000 O
ENDBRANCH 2 11
BRANCH 5 16
ATOM     16   C  Z9H D   1     120.911 122.537 148.0460  0.00  0.00     0.000 C
ATOM     17   S  Z9H D   1     119.689 123.835 147.1180  0.00  0.00     0.000 S
ATOM     18   O  Z9H D   1     120.277 122.366 146.8000  0.00  0.00     0.000 O
ATOM     19   O  Z9H D   1     120.662 124.890 147.1070  0.00  0.00     0.000 O
ATOM     20   O  Z9H D   1     118.645 123.748 148.0790  0.00  0.00     0.000 OA
ATOM     21   O  Z9H D   1     119.110 123.626 145.8240  0.00  0.00     0.000 OA
ENDBRANCH 5 16
BRANCH 1 22
ATOM     22  O4  GU1 D   2     124.836 120.405 146.8350  0.00  0.00     0.000 O
BRANCH 22 26
ATOM     23  C1  GU1 D   2     126.486 120.992 143.1060  0.00  0.00     0.000 C
ATOM     24  C2  GU1 D   2     127.327 121.504 144.2650  0.00  0.00     0.000 C
ATOM     25  C3  GU1 D   2     126.825 120.905 145.5470  0.00  0.00     0.000 C
ATOM     26  C4  GU1 D   2     125.331 121.140 145.7090  0.00  0.00     0.000 C
ATOM     27  C5  GU1 D   2     124.589 120.686 144.4480  0.00  0.00     0.000 C
ATOM     28  O5  GU1 D   2     125.119 121.336 143.2960  0.00  0.00     0.000 O
ATOM     29   O  GU1 D   2     128.700 121.159 144.1210  0.00  0.00     0.000 O
ATOM     30   C  GU1 D   2     129.495 122.192 143.5560  0.00  0.00     0.000 C
ATOM     31   C  GU1 D   2     128.555 120.755 147.2140  0.00  0.00     0.000 C
ATOM     32   O  GU1 D   2     127.508 121.532 146.6370  0.00  0.00     0.000 O
BRANCH 27 33
ATOM     33   C  GU1 D   2     123.118 121.018 144.5310  0.00  0.00     0.000 C
ATOM     34   O  GU1 D   2     122.784 122.184 144.4770  0.00  0.00     0.000 OA
ATOM     35   O  GU1 D   2     122.287 120.130 144.6440  0.00  0.00     0.000 O
ENDBRANCH 27 33
BRANCH 23 36
ATOM     36  O4  GU6 D   3     126.604 121.602 141.8050  0.00  0.00     0.000 O
BRANCH 36 40
ATOM     37  C1  GU6 D   3     126.032 123.892 138.4700  0.00  0.00     0.000 C
ATOM     38  C2  GU6 D   3     126.755 122.578 138.2020  0.00  0.00     0.000 C
ATOM     39  C3  GU6 D   3     126.674 121.699 139.4220  0.00  0.00     0.000 C
ATOM     40  C4  GU6 D   3     126.155 122.295 140.6580  0.00  0.00     0.000 C
ATOM     41  C5  GU6 D   3     126.664 123.769 140.7810  0.00  0.00     0.000 C
ATOM     42  O5  GU6 D   3     126.656 124.535 139.5710  0.00  0.00     0.000 O
BRANCH 38 43
ATOM     43   O  GU6 D   3     126.185 121.915 137.0900  0.00  0.00     0.000 O
ATOM     44   S  GU6 D   3     127.177 121.569 135.9870  0.00  0.00     0.000 S
ATOM     45   O  GU6 D   3     127.389 122.767 135.1550  0.00  0.00     0.000 OA
ATOM     46   O  GU6 D   3     128.453 121.173 136.6090  0.00  0.00     0.000 O
ATOM     47   O  GU6 D   3     126.639 120.464 135.2000  0.00  0.00     0.000 OA
ENDBRANCH 38 43
BRANCH 39 48
ATOM     48   O  GU6 D   3     126.867 120.301 139.3240  0.00  0.00     0.000 O
ATOM     49   S  GU6 D   3     125.839 119.173 139.2350  0.00  0.00     0.000 S
ATOM     50   O  GU6 D   3     124.927 119.407 138.1100  0.00  0.00     0.000 OA
ATOM     51   O  GU6 D   3     126.670 117.983 139.0070  0.00  0.00     0.000 OA
ATOM     52   O  GU6 D   3     125.077 119.118 140.5020  0.00  0.00     0.000 O
ENDBRANCH 39 48
BRANCH 41 53
ATOM     53   C  GU6 D   3     127.148 124.505 142.0010  0.00  0.00     0.000 C
ATOM     54   O  GU6 D   3     125.936 124.518 142.7100  0.00  0.00     0.000 O
ATOM     55   S  GU6 D   3     125.821 125.274 144.0400  0.00  0.00     0.000 S
ATOM     56   O  GU6 D   3     125.978 126.714 143.7290  0.00  0.00     0.000 O
ATOM     57   O  GU6 D   3     124.495 125.008 144.6160  0.00  0.00     0.000 OA
ATOM     58   O  GU6 D   3     126.916 124.796 144.9130  0.00  0.00     0.000 OA
ENDBRANCH 41 53
BRANCH 37 59
ATOM     59  O4  Z9K D   4     124.606 124.034 138.6430  0.00  0.00     0.000 O
BRANCH 59 63
ATOM     60  C1  Z9K D   4     120.840 124.356 137.5660  0.00  0.00     0.000 C
ATOM     61  C2  Z9K D   4     121.561 124.574 136.2080  0.00  0.00     0.000 C
ATOM     62  C3  Z9K D   4     123.067 124.260 136.6120  0.00  0.00     0.000 C
ATOM     63  C4  Z9K D   4     123.650 124.879 137.9390  0.00  0.00     0.000 C
ATOM     64  C5  Z9K D   4     122.627 125.204 139.0380  0.00  0.00     0.000 C
ATOM     65  O5  Z9K D   4     121.613 124.184 138.8460  0.00  0.00     0.000 O
ATOM     66   O  Z9K D   4     124.016 124.616 135.5900  0.00  0.00     0.000 O
ATOM     67   C  Z9K D   4     124.217 123.617 134.6040  0.00  0.00     0.000 C
BRANCH 61 68
ATOM     68   O  Z9K D   4     121.158 123.536 135.3570  0.00  0.00     0.000 O
ATOM     69   O  Z9K D   4     121.570 125.697 134.0500  0.00  0.00     0.000 OA
ATOM     70   S  Z9K D   4     120.565 124.839 134.6000  0.00  0.00     0.000 S
ATOM     71   O  Z9K D   4     119.376 125.267 135.2720  0.00  0.00     0.000 OA
ATOM     72   O  Z9K D   4     120.243 123.784 133.6930  0.00  0.00     0.000 OA
ENDBRANCH 61 68
BRANCH 64 73
ATOM     73   C  Z9K D   4     123.317 125.314 140.4150  0.00  0.00     0.000 C
ATOM     74   O  Z9K D   4     124.060 126.298 140.6990  0.00  0.00     0.000 O
ATOM     75   O  Z9K D   4     123.163 124.440 141.3030  0.00  0.00     0.000 OA
ENDBRANCH 64 73
BRANCH 60 76
ATOM     76  O4  Z9L D   5     119.803 125.151 138.1660  0.00  0.00     0.000 O
BRANCH 76 80
ATOM     77  C1  Z9L D   5     116.369 125.003 140.2050  0.00  0.00     0.000 C
ATOM     78  C2  Z9L D   5     117.452 125.700 141.1600  0.00  0.00     0.000 C
ATOM     79  C3  Z9L D   5     118.738 126.176 140.1690  0.00  0.00     0.000 C
ATOM     80  C4  Z9L D   5     118.885 124.860 139.1880  0.00  0.00     0.000 C
ATOM     81  C5  Z9L D   5     117.770 124.002 138.4000  0.00  0.00     0.000 C
ATOM     82  O5  Z9L D   5     116.659 123.863 139.2990  0.00  0.00     0.000 O
ATOM     83   C  Z9L D   5     114.674 125.558 138.5580  0.00  0.00     0.000 C
ATOM     84   C  Z9L D   5     114.674 125.558 138.5580  0.00  0.00     0.000 C
BRANCH 78 85
ATOM     85   O  Z9L D   5     116.867 126.831 141.7220  0.00  0.00     0.000 O
ATOM     86   O  Z9L D   5     116.414 127.032 143.5840  0.00  0.00     0.000 OA
ATOM     87   S  Z9L D   5     117.127 125.925 143.0240  0.00  0.00     0.000 S
ATOM     88   O  Z9L D   5     118.465 126.036 143.5520  0.00  0.00     0.000 OA
ATOM     89   O  Z9L D   5     116.271 124.802 143.1950  0.00  0.00     0.000 OA
ENDBRANCH 78 85
BRANCH 79 90
ATOM     90   O  Z9L D   5     119.943 126.171 140.8650  0.00  0.00     0.000 O
ATOM     91   S  Z9L D   5     119.910 127.694 140.3990  0.00  0.00     0.000 S
ATOM     92   O  Z9L D   5     118.812 128.571 140.7100  0.00  0.00     0.000 OA
ATOM     93   O  Z9L D   5     120.643 127.832 139.1650  0.00  0.00     0.000 O
ATOM     94   O  Z9L D   5     120.854 127.804 141.4640  0.00  0.00     0.000 OA
ENDBRANCH 79 90
BRANCH 81 95
ATOM     95   C  Z9L D   5     118.293 122.649 137.5590  0.00  0.00     0.000 C
ATOM     96   S  Z9L D   5     118.529 120.673 137.6430  0.00  0.00     0.000 S
ATOM     97   O  Z9L D   5     118.666 121.866 138.6610  0.00  0.00     0.000 O
ATOM     98   O  Z9L D   5     119.653 120.763 136.7460  0.00  0.00     0.000 OA
ATOM     99   O  Z9L D   5     117.214 120.419 137.1590  0.00  0.00     0.000 OA
ATOM    100   O  Z9L D   5     118.933 119.922 138.8060  0.00  0.00     0.000 O
ENDBRANCH 81 95
ENDBRANCH 76 80
ENDBRANCH 60 76
ENDBRANCH 59 63
ENDBRANCH 37 59
ENDBRANCH 36 40
ENDBRANCH 23 36
ENDBRANCH 22 26
ENDBRANCH 1 22
TORSDOF 19
ENDMDL
MODEL 84
REMARK VINA RESULT:       0.0    112.030    118.039
ROOT
ATOM      1  C1  Z9H D   1      92.554 144.756 121.8180  0.00  0.00     0.000 C
ATOM      2  C2  Z9H D   1      92.064 146.038 121.1020  0.00  0.00     0.000 C
ATOM      3  C3  Z9H D   1      93.015 145.979 119.8680  0.00  0.00     0.000 C
ATOM      4  C4  Z9H D   1      94.551 145.776 120.2020  0.00  0.00     0.000 C
ATOM      5  C5  Z9H D   1      95.077 144.681 121.2130  0.00  0.00     0.000 C
ATOM      6  O5  Z9H D   1      93.963 144.582 122.1350  0.00  0.00     0.000 O
ATOM      7   O  Z9H D   1      92.838 147.111 119.0130  0.00  0.00     0.000 O
ATOM      8   C  Z9H D   1      91.999 146.892 117.8670  0.00  0.00     0.000 C
ATOM      9   O  Z9H D   1      95.193 145.535 118.9450  0.00  0.00     0.000 O
ATOM     10   C  Z9H D   1      95.848 146.665 118.3600  0.00  0.00     0.000 C
ENDROOT
BRANCH 2 11
ATOM     11   O  Z9H D   1      90.809 145.639 120.6170  0.00  0.00     0.000 O
ATOM     12   O  Z9H D   1      89.166 146.335 121.2290  0.00  0.00     0.000 OA
ATOM     13   S  Z9H D   1      90.448 146.764 121.6790  0.00  0.00     0.000 S
ATOM     14   O  Z9H D   1      90.854 148.034 121.1480  0.00  0.00     0.000 OA
ATOM     15   O  Z9H D   1      90.683 146.315 123.0320  0.00  0.00     0.000 O
ENDBRANCH 2 11
BRANCH 5 16
ATOM     16   C  Z9H D   1      96.642 144.915 121.7600  0.00  0.00     0.000 C
ATOM     17   S  Z9H D   1      98.351 143.982 122.2580  0.00  0.00     0.000 S
ATOM     18   O  Z9H D   1      97.242 143.830 121.0940  0.00  0.00     0.000 O
ATOM     19   O  Z9H D   1      97.893 143.641 123.5740  0.00  0.00     0.000 O
ATOM     20   O  Z9H D   1      99.195 145.094 121.9890  0.00  0.00     0.000 OA
ATOM     21   O  Z9H D   1      98.890 142.847 121.5670  0.00  0.00     0.000 OA
ENDBRANCH 5 16
BRANCH 1 22
ATOM     22  O4  GU1 D   2      92.285 143.501 121.0940  0.00  0.00     0.000 O
BRANCH 22 26
ATOM     23  C1  GU1 D   2      91.296 139.522 121.4950  0.00  0.00     0.000 C
ATOM     24  C2  GU1 D   2      90.651 140.448 122.5160  0.00  0.00     0.000 C
ATOM     25  C3  GU1 D   2      90.771 141.868 122.0440  0.00  0.00     0.000 C
ATOM     26  C4  GU1 D   2      92.216 142.213 121.7160  0.00  0.00     0.000 C
ATOM     27  C5  GU1 D   2      92.802 141.165 120.7650  0.00  0.00     0.000 C
ATOM     28  O5  GU1 D   2      92.668 139.859 121.3200  0.00  0.00     0.000 O
ATOM     29   O  GU1 D   2      89.272 140.156 122.7020  0.00  0.00     0.000 O
ATOM     30   C  GU1 D   2      89.006 139.323 123.8220  0.00  0.00     0.000 C
ATOM     31   C  GU1 D   2      89.010 143.261 122.9130  0.00  0.00     0.000 C
ATOM     32   O  GU1 D   2      90.321 142.732 123.0930  0.00  0.00     0.000 O
BRANCH 27 33
ATOM     33   C  GU1 D   2      94.271 141.413 120.5170  0.00  0.00     0.000 C
ATOM     34   O  GU1 D   2      95.050 141.231 121.4300  0.00  0.00     0.000 OA
ATOM     35   O  GU1 D   2      94.661 141.784 119.4210  0.00  0.00     0.000 O
ENDBRANCH 27 33
BRANCH 23 36
ATOM     36  O4  GU6 D   3      91.533 138.139 121.8240  0.00  0.00     0.000 O
BRANCH 36 40
ATOM     37  C1  GU6 D   3      93.228 134.608 122.9880  0.00  0.00     0.000 C
ATOM     38  C2  GU6 D   3      92.060 134.445 122.0230  0.00  0.00     0.000 C
ATOM     39  C3  GU6 D   3      91.688 135.788 121.4490  0.00  0.00     0.000 C
ATOM     40  C4  GU6 D   3      92.308 136.978 122.0430  0.00  0.00     0.000 C
ATOM     41  C5  GU6 D   3      92.427 136.787 123.5910  0.00  0.00     0.000 C
ATOM     42  O5  GU6 D   3      92.833 135.486 124.0310  0.00  0.00     0.000 O
BRANCH 38 43
ATOM     43   O  GU6 D   3      92.397 133.551 120.9800  0.00  0.00     0.000 O
ATOM     44   S  GU6 D   3      91.439 132.379 120.8220  0.00  0.00     0.000 S
ATOM     45   O  GU6 D   3      91.793 131.347 121.8110  0.00  0.00     0.000 OA
ATOM     46   O  GU6 D   3      90.067 132.854 121.0800  0.00  0.00     0.000 O
ATOM     47   O  GU6 D   3      91.543 131.867 119.4590  0.00  0.00     0.000 OA
ENDBRANCH 38 43
BRANCH 39 48
ATOM     48   O  GU6 D   3      90.957 135.885 120.2420  0.00  0.00     0.000 O
ATOM     49   S  GU6 D   3      91.448 136.130 118.8150  0.00  0.00     0.000 S
ATOM     50   O  GU6 D   3      92.458 135.130 118.4490  0.00  0.00     0.000 OA
ATOM     51   O  GU6 D   3      90.228 135.971 118.0120  0.00  0.00     0.000 OA
ATOM     52   O  GU6 D   3      92.028 137.489 118.7340  0.00  0.00     0.000 O
ENDBRANCH 39 48
BRANCH 41 53
ATOM     53   C  GU6 D   3      92.189 137.788 124.6900  0.00  0.00     0.000 C
ATOM     54   O  GU6 D   3      93.241 138.665 124.3800  0.00  0.00     0.000 O
ATOM     55   S  GU6 D   3      93.548 139.863 125.2880  0.00  0.00     0.000 S
ATOM     56   O  GU6 D   3      94.016 139.311 126.5810  0.00  0.00     0.000 O
ATOM     57   O  GU6 D   3      94.601 140.672 124.6570  0.00  0.00     0.000 OA
ATOM     58   O  GU6 D   3      92.287 140.620 125.4580  0.00  0.00     0.000 OA
ENDBRANCH 41 53
BRANCH 37 59
ATOM     59  O4  Z9K D   4      94.572 134.969 122.6080  0.00  0.00     0.000 O
BRANCH 59 63
ATOM     60  C1  Z9K D   4      98.223 134.439 121.2530  0.00  0.00     0.000 C
ATOM     61  C2  Z9K D   4      97.757 132.969 121.4460  0.00  0.00     0.000 C
ATOM     62  C3  Z9K D   4      96.226 133.185 121.8150  0.00  0.00     0.000 C
ATOM     63  C4  Z9K D   4      95.838 134.295 122.8650  0.00  0.00     0.000 C
ATOM     64  C5  Z9K D   4      96.817 135.471 122.9960  0.00  0.00     0.000 C
ATOM     65  O5  Z9K D   4      97.350 135.597 121.6510  0.00  0.00     0.000 O
ATOM     66   O  Z9K D   4      95.581 131.988 122.2880  0.00  0.00     0.000 O
ATOM     67   C  Z9K D   4      95.073 131.152 121.2610  0.00  0.00     0.000 C
BRANCH 61 68
ATOM     68   O  Z9K D   4      97.775 132.363 120.1820  0.00  0.00     0.000 O
ATOM     69   O  Z9K D   4      98.377 130.688 122.0220  0.00  0.00     0.000 OA
ATOM     70   S  Z9K D   4      98.903 131.515 120.9770  0.00  0.00     0.000 S
ATOM     71   O  Z9K D   4     100.105 132.289 121.0480  0.00  0.00     0.000 OA
ATOM     72   O  Z9K D   4      98.845 130.844 119.7180  0.00  0.00     0.000 OA
ENDBRANCH 61 68
BRANCH 64 73
ATOM     73   C  Z9K D   4      96.125 136.693 123.6370  0.00  0.00     0.000 C
ATOM     74   O  Z9K D   4      95.823 136.705 124.8660  0.00  0.00     0.000 O
ATOM     75   O  Z9K D   4      95.843 137.718 122.9700  0.00  0.00     0.000 OA
ENDBRANCH 64 73
BRANCH 60 76
ATOM     76  O4  Z9L D   5      99.443 135.056 121.7000  0.00  0.00     0.000 O
BRANCH 76 80
ATOM     77  C1  Z9L D   5     102.363 137.586 120.6790  0.00  0.00     0.000 C
ATOM     78  C2  Z9L D   5     101.580 138.246 121.9130  0.00  0.00     0.000 C
ATOM     79  C3  Z9L D   5     100.673 137.011 122.6280  0.00  0.00     0.000 C
ATOM     80  C4  Z9L D   5     100.086 136.238 121.2970  0.00  0.00     0.000 C
ATOM     81  C5  Z9L D   5     100.821 135.770 119.9400  0.00  0.00     0.000 C
ATOM     82  O5  Z9L D   5     101.711 136.836 119.5750  0.00  0.00     0.000 O
ATOM     83   C  Z9L D   5     104.259 136.146 120.2040  0.00  0.00     0.000 C
ATOM     84   C  Z9L D   5     104.259 136.146 120.2040  0.00  0.00     0.000 C
BRANCH 78 85
ATOM     85   O  Z9L D   5     102.524 138.707 122.8260  0.00  0.00     0.000 O
ATOM     86   O  Z9L D   5     102.880 140.561 123.2100  0.00  0.00     0.000 OA
ATOM     87   S  Z9L D   5     101.827 140.080 122.3670  0.00  0.00     0.000 S
ATOM     88   O  Z9L D   5     100.610 140.382 123.0790  0.00  0.00     0.000 OA
ATOM     89   O  Z9L D   5     102.149 140.548 121.0630  0.00  0.00     0.000 OA
ENDBRANCH 78 85
BRANCH 79 90
ATOM     90   O  Z9L D   5      99.517 137.510 123.2220  0.00  0.00     0.000 O
ATOM     91   S  Z9L D   5     100.194 136.826 124.4910  0.00  0.00     0.000 S
ATOM     92   O  Z9L D   5     101.524 137.160 124.9270  0.00  0.00     0.000 OA
ATOM     93   O  Z9L D   5      99.676 135.490 124.6460  0.00  0.00     0.000 O
ATOM     94   O  Z9L D   5      99.295 137.708 125.1630  0.00  0.00     0.000 OA
ENDBRANCH 79 90
BRANCH 81 95
ATOM     95   C  Z9L D   5      99.866 135.082 118.7460  0.00  0.00     0.000 C
ATOM     96   S  Z9L D   5      98.854 135.436 117.0670  0.00  0.00     0.000 S
ATOM     97   O  Z9L D   5      99.129 136.224 118.4030  0.00  0.00     0.000 O
ATOM     98   O  Z9L D   5      97.930 134.379 117.3930  0.00  0.00     0.000 OA
ATOM     99   O  Z9L D   5      99.991 135.199 116.2430  0.00  0.00     0.000 OA
ATOM    100   O  Z9L D   5      98.098 136.629 116.7770  0.00  0.00     0.000 O
ENDBRANCH 81 95
ENDBRANCH 76 80
ENDBRANCH 60 76
ENDBRANCH 59 63
ENDBRANCH 37 59
ENDBRANCH 36 40
ENDBRANCH 23 36
ENDBRANCH 22 26
ENDBRANCH 1 22
TORSDOF 19
ENDMDL
MODEL 85
REMARK VINA RESULT:       0.0     53.102     59.683
ROOT
ATOM      1  C1  Z9H D   1      26.814 113.624  30.1840  0.00  0.00     0.000 C
ATOM      2  C2  Z9H D   1      27.326 115.084  30.1410  0.00  0.00     0.000 C
ATOM      3  C3  Z9H D   1      25.964 115.788  29.8550  0.00  0.00     0.000 C
ATOM      4  C4  Z9H D   1      25.128 115.187  28.6500  0.00  0.00     0.000 C
ATOM      5  C5  Z9H D   1      24.869 113.639  28.4650  0.00  0.00     0.000 C
ATOM      6  O5  Z9H D   1      26.060 113.074  29.0690  0.00  0.00     0.000 O
ATOM      7   O  Z9H D   1      26.124 117.199  29.6930  0.00  0.00     0.000 O
ATOM      8   C  Z9H D   1      25.826 117.989  30.8560  0.00  0.00     0.000 C
ATOM      9   O  Z9H D   1      23.849 115.826  28.7070  0.00  0.00     0.000 O
ATOM     10   C  Z9H D   1      23.665 116.922  27.8060  0.00  0.00     0.000 C
ENDROOT
BRANCH 2 11
ATOM     11   O  Z9H D   1      27.593 115.340  31.4940  0.00  0.00     0.000 O
ATOM     12   O  Z9H D   1      29.318 115.635  32.1970  0.00  0.00     0.000 OA
ATOM     13   S  Z9H D   1      29.028 115.421  30.8190  0.00  0.00     0.000 S
ATOM     14   O  Z9H D   1      29.086 116.613  30.0220  0.00  0.00     0.000 OA
ATOM     15   O  Z9H D   1      29.496 114.119  30.4020  0.00  0.00     0.000 O
ENDBRANCH 2 11
BRANCH 5 16
ATOM     16   C  Z9H D   1      24.367 113.181  26.9350  0.00  0.00     0.000 C
ATOM     17   S  Z9H D   1      23.170 111.927  25.9200  0.00  0.00     0.000 S
ATOM     18   O  Z9H D   1      23.052 112.807  27.2680  0.00  0.00     0.000 O
ATOM     19   O  Z9H D   1      24.094 110.832  25.9940  0.00  0.00     0.000 O
ATOM     20   O  Z9H D   1      23.038 112.761  24.7770  0.00  0.00     0.000 OA
ATOM     21   O  Z9H D   1      21.852 111.544  26.3360  0.00  0.00     0.000 OA
ENDBRANCH 5 16
BRANCH 1 22
ATOM     22  O4  GU1 D   2      25.901 113.322  31.3000  0.00  0.00     0.000 O
BRANCH 22 26
ATOM     23  C1  GU1 D   2      24.747 110.459  34.0280  0.00  0.00     0.000 C
ATOM     24  C2  GU1 D   2      26.231 110.460  33.6920  0.00  0.00     0.000 C
ATOM     25  C3  GU1 D   2      26.585 111.751  33.0120  0.00  0.00     0.000 C
ATOM     26  C4  GU1 D   2      25.674 112.006  31.8200  0.00  0.00     0.000 C
ATOM     27  C5  GU1 D   2      24.208 111.879  32.2430  0.00  0.00     0.000 C
ATOM     28  O5  GU1 D   2      23.971 110.609  32.8460  0.00  0.00     0.000 O
ATOM     29   O  GU1 D   2      27.040 110.333  34.8540  0.00  0.00     0.000 O
ATOM     30   C  GU1 D   2      27.468 109.004  35.1150  0.00  0.00     0.000 C
ATOM     31   C  GU1 D   2      28.892 112.348  33.3490  0.00  0.00     0.000 C
ATOM     32   O  GU1 D   2      27.935 111.661  32.5460  0.00  0.00     0.000 O
BRANCH 27 33
ATOM     33   C  GU1 D   2      23.283 112.007  31.0560  0.00  0.00     0.000 C
ATOM     34   O  GU1 D   2      23.270 111.113  30.2350  0.00  0.00     0.000 OA
ATOM     35   O  GU1 D   2      22.565 112.986  30.9310  0.00  0.00     0.000 O
ENDBRANCH 27 33
BRANCH 23 36
ATOM     36  O4  GU6 D   3      24.108 109.241  34.4610  0.00  0.00     0.000 O
BRANCH 36 40
ATOM     37  C1  GU6 D   3      22.005 105.741  34.6040  0.00  0.00     0.000 C
ATOM     38  C2  GU6 D   3      22.051 106.489  35.9300  0.00  0.00     0.000 C
ATOM     39  C3  GU6 D   3      22.603 107.874  35.7100  0.00  0.00     0.000 C
ATOM     40  C4  GU6 D   3      23.183 108.175  34.3960  0.00  0.00     0.000 C
ATOM     41  C5  GU6 D   3      23.958 106.923  33.8670  0.00  0.00     0.000 C
ATOM     42  O5  GU6 D   3      23.324 105.658  34.0860  0.00  0.00     0.000 O
BRANCH 38 43
ATOM     43   O  GU6 D   3      20.760 106.570  36.5010  0.00  0.00     0.000 O
ATOM     44   S  GU6 D   3      20.663 106.023  37.9200  0.00  0.00     0.000 S
ATOM     45   O  GU6 D   3      20.533 104.558  37.8490  0.00  0.00     0.000 OA
ATOM     46   O  GU6 D   3      21.900 106.371  38.6430  0.00  0.00     0.000 O
ATOM     47   O  GU6 D   3      19.511 106.629  38.5800  0.00  0.00     0.000 OA
ENDBRANCH 38 43
BRANCH 39 48
ATOM     48   O  GU6 D   3      22.364 108.908  36.6450  0.00  0.00     0.000 O
ATOM     49   S  GU6 D   3      21.317 110.022  36.6280  0.00  0.00     0.000 S
ATOM     50   O  GU6 D   3      19.972 109.450  36.4960  0.00  0.00     0.000 OA
ATOM     51   O  GU6 D   3      21.495 110.665  37.9370  0.00  0.00     0.000 OA
ATOM     52   O  GU6 D   3      21.597 110.926  35.4900  0.00  0.00     0.000 O
ENDBRANCH 39 48
BRANCH 41 53
ATOM     53   C  GU6 D   3      25.276 106.861  33.1440  0.00  0.00     0.000 C
ATOM     54   O  GU6 D   3      24.880 107.520  31.9690  0.00  0.00     0.000 O
ATOM     55   S  GU6 D   3      25.846 107.645  30.7830  0.00  0.00     0.000 S
ATOM     56   O  GU6 D   3      26.075 106.274  30.2710  0.00  0.00     0.000 O
ATOM     57   O  GU6 D   3      25.218 108.487  29.7540  0.00  0.00     0.000 OA
ATOM     58   O  GU6 D   3      27.101 108.236  31.3000  0.00  0.00     0.000 OA
ENDBRANCH 41 53
BRANCH 37 59
ATOM     59  O4  Z9K D   4      21.130 106.061  33.5020  0.00  0.00     0.000 O
BRANCH 59 63
ATOM     60  C1  Z9K D   4      17.793 106.128  31.4260  0.00  0.00     0.000 C
ATOM     61  C2  Z9K D   4      17.460 105.053  32.4970  0.00  0.00     0.000 C
ATOM     62  C3  Z9K D   4      18.735 105.162  33.4400  0.00  0.00     0.000 C
ATOM     63  C4  Z9K D   4      20.169 105.229  32.7890  0.00  0.00     0.000 C
ATOM     64  C5  Z9K D   4      20.236 105.798  31.3630  0.00  0.00     0.000 C
ATOM     65  O5  Z9K D   4      19.154 106.766  31.3510  0.00  0.00     0.000 O
ATOM     66   O  Z9K D   4      18.819 104.100  34.4080  0.00  0.00     0.000 O
ATOM     67   C  Z9K D   4      18.088 104.335  35.6000  0.00  0.00     0.000 C
BRANCH 61 68
ATOM     68   O  Z9K D   4      16.377 105.537  33.2420  0.00  0.00     0.000 O
ATOM     69   O  Z9K D   4      16.291 102.988  33.0320  0.00  0.00     0.000 OA
ATOM     70   S  Z9K D   4      15.742 104.219  32.5470  0.00  0.00     0.000 S
ATOM     71   O  Z9K D   4      15.432 104.516  31.1820  0.00  0.00     0.000 OA
ATOM     72   O  Z9K D   4      14.677 104.667  33.3850  0.00  0.00     0.000 OA
ENDBRANCH 61 68
BRANCH 64 73
ATOM     73   C  Z9K D   4      21.665 106.278  31.0310  0.00  0.00     0.000 C
ATOM     74   O  Z9K D   4      22.605 105.454  30.8360  0.00  0.00     0.000 O
ATOM     75   O  Z9K D   4      21.947 107.498  30.9340  0.00  0.00     0.000 OA
ENDBRANCH 64 73
BRANCH 60 76
ATOM     76  O4  Z9L D   5      17.625 106.053  30.0000  0.00  0.00     0.000 O
BRANCH 76 80
ATOM     77  C1  Z9L D   5      16.481 108.086  26.7550  0.00  0.00     0.000 C
ATOM     78  C2  Z9L D   5      18.044 107.770  26.5840  0.00  0.00     0.000 C
ATOM     79  C3  Z9L D   5      18.416 106.547  27.6920  0.00  0.00     0.000 C
ATOM     80  C4  Z9L D   5      17.579 107.055  29.0170  0.00  0.00     0.000 C
ATOM     81  C5  Z9L D   5      16.067 107.597  29.1650  0.00  0.00     0.000 C
ATOM     82  O5  Z9L D   5      15.835 108.457  28.0390  0.00  0.00     0.000 O
ATOM     83   C  Z9L D   5      14.303 107.162  26.2110  0.00  0.00     0.000 C
ATOM     84   C  Z9L D   5      14.303 107.162  26.2110  0.00  0.00     0.000 C
BRANCH 78 85
ATOM     85   O  Z9L D   5      18.251 107.294  25.2930  0.00  0.00     0.000 O
ATOM     86   O  Z9L D   5      19.201 108.234  23.9060  0.00  0.00     0.000 OA
ATOM     87   S  Z9L D   5      19.095 108.661  25.2680  0.00  0.00     0.000 S
ATOM     88   O  Z9L D   5      20.427 108.532  25.8060  0.00  0.00     0.000 OA
ATOM     89   O  Z9L D   5      18.344 109.869  25.2240  0.00  0.00     0.000 OA
ENDBRANCH 78 85
BRANCH 79 90
ATOM     90   O  Z9L D   5      19.738 106.633  28.1180  0.00  0.00     0.000 O
ATOM     91   S  Z9L D   5      19.747 105.158  27.5180  0.00  0.00     0.000 S
ATOM     92   O  Z9L D   5      19.362 104.876  26.1600  0.00  0.00     0.000 OA
ATOM     93   O  Z9L D   5      19.487 104.211  28.5740  0.00  0.00     0.000 O
ATOM     94   O  Z9L D   5      21.152 105.411  27.5160  0.00  0.00     0.000 OA
ENDBRANCH 79 90
BRANCH 81 95
ATOM     95   C  Z9L D   5      15.583 108.119  30.6830  0.00  0.00     0.000 C
ATOM     96   S  Z9L D   5      15.366 109.709  31.8630  0.00  0.00     0.000 S
ATOM     97   O  Z9L D   5      16.404 109.253  30.7710  0.00  0.00     0.000 O
ATOM     98   O  Z9L D   5      15.598 108.888  33.0240  0.00  0.00     0.000 OA
ATOM     99   O  Z9L D   5      14.048 109.972  31.3930  0.00  0.00     0.000 OA
ATOM    100   O  Z9L D   5      16.256 110.842  31.9210  0.00  0.00     0.000 O
ENDBRANCH 81 95
ENDBRANCH 76 80
ENDBRANCH 60 76
ENDBRANCH 59 63
ENDBRANCH 37 59
ENDBRANCH 36 40
ENDBRANCH 23 36
ENDBRANCH 22 26
ENDBRANCH 1 22
TORSDOF 19
ENDMDL
MODEL 86
REMARK VINA RESULT:       0.0     74.746     84.273
ROOT
ATOM      1  C1  Z9H D   1      65.705  73.189 128.9570  0.00  0.00     0.000 C
ATOM      2  C2  Z9H D   1      65.146  73.736 127.6220  0.00  0.00     0.000 C
ATOM      3  C3  Z9H D   1      64.796  75.178 128.1020  0.00  0.00     0.000 C
ATOM      4  C4  Z9H D   1      63.939  75.261 129.4330  0.00  0.00     0.000 C
ATOM      5  C5  Z9H D   1      64.285  74.436 130.7360  0.00  0.00     0.000 C
ATOM      6  O5  Z9H D   1      64.908  73.255 130.1720  0.00  0.00     0.000 O
ATOM      7   O  Z9H D   1      64.179  75.943 127.0650  0.00  0.00     0.000 O
ATOM      8   C  Z9H D   1      65.054  76.831 126.3500  0.00  0.00     0.000 C
ATOM      9   O  Z9H D   1      63.924  76.645 129.8000  0.00  0.00     0.000 O
ATOM     10   C  Z9H D   1      62.746  77.369 129.4320  0.00  0.00     0.000 C
ENDROOT
BRANCH 2 11
ATOM     11   O  Z9H D   1      66.312  73.880 126.8540  0.00  0.00     0.000 O
ATOM     12   O  Z9H D   1      66.699  72.861 125.3140  0.00  0.00     0.000 OA
ATOM     13   S  Z9H D   1      65.499  72.759 126.0740  0.00  0.00     0.000 S
ATOM     14   O  Z9H D   1      64.363  73.377 125.4520  0.00  0.00     0.000 OA
ATOM     15   O  Z9H D   1      65.470  71.514 126.8060  0.00  0.00     0.000 O
ENDBRANCH 2 11
BRANCH 5 16
ATOM     16   C  Z9H D   1      63.041  74.317 131.8500  0.00  0.00     0.000 C
ATOM     17   S  Z9H D   1      62.610  74.278 133.8120  0.00  0.00     0.000 S
ATOM     18   O  Z9H D   1      63.612  75.112 132.8610  0.00  0.00     0.000 O
ATOM     19   O  Z9H D   1      62.929  72.886 133.9520  0.00  0.00     0.000 O
ATOM     20   O  Z9H D   1      61.281  74.762 133.6680  0.00  0.00     0.000 OA
ATOM     21   O  Z9H D   1      63.262  75.080 134.8060  0.00  0.00     0.000 OA
ENDBRANCH 5 16
BRANCH 1 22
ATOM     22  O4  GU1 D   2      66.948  73.831 129.4170  0.00  0.00     0.000 O
BRANCH 22 26
ATOM     23  C1  GU1 D   2      70.551  73.221 131.3200  0.00  0.00     0.000 C
ATOM     24  C2  GU1 D   2      70.077  72.059 130.4610  0.00  0.00     0.000 C
ATOM     25  C3  GU1 D   2      68.989  72.532 129.5410  0.00  0.00     0.000 C
ATOM     26  C4  GU1 D   2      67.880  73.224 130.3200  0.00  0.00     0.000 C
ATOM     27  C5  GU1 D   2      68.473  74.304 131.2300  0.00  0.00     0.000 C
ATOM     28  O5  GU1 D   2      69.470  73.746 132.0820  0.00  0.00     0.000 O
ATOM     29   O  GU1 D   2      71.128  71.521 129.6670  0.00  0.00     0.000 O
ATOM     30   C  GU1 D   2      71.750  70.378 130.2360  0.00  0.00     0.000 C
ATOM     31   C  GU1 D   2      68.874  71.221 127.5260  0.00  0.00     0.000 C
ATOM     32   O  GU1 D   2      68.436  71.395 128.8710  0.00  0.00     0.000 O
BRANCH 27 33
ATOM     33   C  GU1 D   2      67.411  74.926 132.1050  0.00  0.00     0.000 C
ATOM     34   O  GU1 D   2      66.923  74.252 132.9880  0.00  0.00     0.000 OA
ATOM     35   O  GU1 D   2      67.058  76.081 131.9260  0.00  0.00     0.000 O
ENDBRANCH 27 33
BRANCH 23 36
ATOM     36  O4  GU6 D   3      71.412  72.978 132.4500  0.00  0.00     0.000 O
BRANCH 36 40
ATOM     37  C1  GU6 D   3      72.881  72.330 136.2070  0.00  0.00     0.000 C
ATOM     38  C2  GU6 D   3      73.888  72.954 135.2490  0.00  0.00     0.000 C
ATOM     39  C3  GU6 D   3      73.182  73.398 133.9940  0.00  0.00     0.000 C
ATOM     40  C4  GU6 D   3      71.788  72.981 133.8120  0.00  0.00     0.000 C
ATOM     41  C5  GU6 D   3      71.606  71.521 134.3440  0.00  0.00     0.000 C
ATOM     42  O5  GU6 D   3      72.280  71.214 135.5700  0.00  0.00     0.000 O
BRANCH 38 43
ATOM     43   O  GU6 D   3      74.536  74.055 135.8550  0.00  0.00     0.000 O
ATOM     44   S  GU6 D   3      76.056  73.965 135.8620  0.00  0.00     0.000 S
ATOM     45   O  GU6 D   3      76.469  73.111 136.9890  0.00  0.00     0.000 OA
ATOM     46   O  GU6 D   3      76.497  73.352 134.5960  0.00  0.00     0.000 O
ATOM     47   O  GU6 D   3      76.607  75.311 135.9840  0.00  0.00     0.000 OA
ENDBRANCH 38 43
BRANCH 39 48
ATOM     48   O  GU6 D   3      73.759  74.369 133.1410  0.00  0.00     0.000 O
ATOM     49   S  GU6 D   3      73.499  75.872 133.0490  0.00  0.00     0.000 S
ATOM     50   O  GU6 D   3      73.698  76.501 134.3600  0.00  0.00     0.000 OA
ATOM     51   O  GU6 D   3      74.509  76.326 132.0840  0.00  0.00     0.000 OA
ATOM     52   O  GU6 D   3      72.110  76.092 132.5880  0.00  0.00     0.000 O
ENDBRANCH 39 48
BRANCH 41 53
ATOM     53   C  GU6 D   3      70.805  70.391 133.7550  0.00  0.00     0.000 C
ATOM     54   O  GU6 D   3      69.530  70.957 133.9140  0.00  0.00     0.000 O
ATOM     55   S  GU6 D   3      68.272  70.152 133.5640  0.00  0.00     0.000 S
ATOM     56   O  GU6 D   3      68.201  69.029 134.5290  0.00  0.00     0.000 O
ATOM     57   O  GU6 D   3      67.100  71.030 133.7020  0.00  0.00     0.000 OA
ATOM     58   O  GU6 D   3      68.439  69.654 132.1800  0.00  0.00     0.000 OA
ENDBRANCH 41 53
BRANCH 37 59
ATOM     59  O4  Z9K D   4      71.833  73.050 136.8910  0.00  0.00     0.000 O
BRANCH 59 63
ATOM     60  C1  Z9K D   4      70.206  75.333 139.6450  0.00  0.00     0.000 C
ATOM     61  C2  Z9K D   4      71.592  75.035 140.2810  0.00  0.00     0.000 C
ATOM     62  C3  Z9K D   4      72.312  74.269 139.0890  0.00  0.00     0.000 C
ATOM     63  C4  Z9K D   4      71.526  73.144 138.3120  0.00  0.00     0.000 C
ATOM     64  C5  Z9K D   4      69.995  73.270 138.3110  0.00  0.00     0.000 C
ATOM     65  O5  Z9K D   4      69.790  74.707 138.3420  0.00  0.00     0.000 O
ATOM     66   O  Z9K D   4      73.553  73.651 139.4760  0.00  0.00     0.000 O
ATOM     67   C  Z9K D   4      74.678  74.513 139.4210  0.00  0.00     0.000 C
BRANCH 61 68
ATOM     68   O  Z9K D   4      72.254  76.263 140.4170  0.00  0.00     0.000 O
ATOM     69   O  Z9K D   4      72.875  74.660 142.3130  0.00  0.00     0.000 OA
ATOM     70   S  Z9K D   4      72.084  75.800 141.9600  0.00  0.00     0.000 S
ATOM     71   O  Z9K D   4      70.737  76.044 142.3740  0.00  0.00     0.000 OA
ATOM     72   O  Z9K D   4      72.843  77.003 142.0810  0.00  0.00     0.000 OA
ENDBRANCH 61 68
BRANCH 64 73
ATOM     73   C  Z9K D   4      69.379  72.458 137.1520  0.00  0.00     0.000 C
ATOM     74   O  Z9K D   4      69.358  71.193 137.1770  0.00  0.00     0.000 O
ATOM     75   O  Z9K D   4      68.870  73.017 136.1490  0.00  0.00     0.000 OA
ENDBRANCH 64 73
BRANCH 60 76
ATOM     76  O4  Z9L D   5      68.904  75.222 140.2450  0.00  0.00     0.000 O
BRANCH 76 80
ATOM     77  C1  Z9L D   5      65.320  76.961 140.5680  0.00  0.00     0.000 C
ATOM     78  C2  Z9L D   5      65.095  75.556 139.8270  0.00  0.00     0.000 C
ATOM     79  C3  Z9L D   5      66.489  74.636 140.0980  0.00  0.00     0.000 C
ATOM     80  C4  Z9L D   5      67.664  75.771 139.8790  0.00  0.00     0.000 C
ATOM     81  C5  Z9L D   5      67.790  77.279 140.4360  0.00  0.00     0.000 C
ATOM     82  O5  Z9L D   5      66.480  77.858 140.3340  0.00  0.00     0.000 O
ATOM     83   C  Z9L D   5      65.330  77.937 142.7910  0.00  0.00     0.000 C
ATOM     84   C  Z9L D   5      65.330  77.937 142.7910  0.00  0.00     0.000 C
BRANCH 78 85
ATOM     85   O  Z9L D   5      64.008  74.923 140.4210  0.00  0.00     0.000 O
ATOM     86   O  Z9L D   5      62.303  74.626 139.5760  0.00  0.00     0.000 OA
ATOM     87   S  Z9L D   5      63.461  75.162 138.9290  0.00  0.00     0.000 S
ATOM     88   O  Z9L D   5      63.869  74.147 137.9910  0.00  0.00     0.000 OA
ATOM     89   O  Z9L D   5      63.114  76.499 138.5890  0.00  0.00     0.000 OA
ENDBRANCH 78 85
BRANCH 79 90
ATOM     90   O  Z9L D   5      66.724  73.751 139.0490  0.00  0.00     0.000 O
ATOM     91   S  Z9L D   5      66.626  72.716 140.2550  0.00  0.00     0.000 S
ATOM     92   O  Z9L D   5      65.476  72.645 141.1180  0.00  0.00     0.000 OA
ATOM     93   O  Z9L D   5      67.949  72.444 140.7590  0.00  0.00     0.000 O
ATOM     94   O  Z9L D   5      66.396  71.820 139.1690  0.00  0.00     0.000 OA
ENDBRANCH 79 90
BRANCH 81 95
ATOM     95   C  Z9L D   5      69.105  78.182 139.9200  0.00  0.00     0.000 C
ATOM     96   S  Z9L D   5      69.734  79.525 138.5900  0.00  0.00     0.000 S
ATOM     97   O  Z9L D   5      68.741  78.303 138.5710  0.00  0.00     0.000 O
ATOM     98   O  Z9L D   5      71.065  78.976 138.6550  0.00  0.00     0.000 OA
ATOM     99   O  Z9L D   5      69.346  80.626 139.4060  0.00  0.00     0.000 OA
ATOM    100   O  Z9L D   5      69.335  79.590 137.2060  0.00  0.00     0.000 O
ENDBRANCH 81 95
ENDBRANCH 76 80
ENDBRANCH 60 76
ENDBRANCH 59 63
ENDBRANCH 37 59
ENDBRANCH 36 40
ENDBRANCH 23 36
ENDBRANCH 22 26
ENDBRANCH 1 22
TORSDOF 19
ENDMDL
MODEL 87
REMARK VINA RESULT:       0.0      5.545      8.461
ROOT
ATOM      1  C1  Z9H D   1      30.810  56.103  68.1880  0.00  0.00     0.000 C
ATOM      2  C2  Z9H D   1      32.096  56.108  69.0480  0.00  0.00     0.000 C
ATOM      3  C3  Z9H D   1      32.793  54.866  68.4120  0.00  0.00     0.000 C
ATOM      4  C4  Z9H D   1      31.896  53.564  68.3050  0.00  0.00     0.000 C
ATOM      5  C5  Z9H D   1      30.419  53.576  67.7400  0.00  0.00     0.000 C
ATOM      6  O5  Z9H D   1      29.983  54.909  68.1060  0.00  0.00     0.000 O
ATOM      7   O  Z9H D   1      34.029  54.565  69.0620  0.00  0.00     0.000 O
ATOM      8   C  Z9H D   1      35.208  55.057  68.4020  0.00  0.00     0.000 C
ATOM      9   O  Z9H D   1      32.645  52.639  67.5100  0.00  0.00     0.000 O
ATOM     10   C  Z9H D   1      33.363  51.639  68.2380  0.00  0.00     0.000 C
ENDROOT
BRANCH 2 11
ATOM     11   O  Z9H D   1      32.787  57.217  68.5350  0.00  0.00     0.000 O
ATOM     12   O  Z9H D   1      33.104  58.806  69.5000  0.00  0.00     0.000 OA
ATOM     13   S  Z9H D   1      32.447  57.656  70.0240  0.00  0.00     0.000 S
ATOM     14   O  Z9H D   1      33.259  56.882  70.9190  0.00  0.00     0.000 OA
ATOM     15   O  Z9H D   1      31.036  57.916  70.1950  0.00  0.00     0.000 O
ENDBRANCH 2 11
BRANCH 5 16
ATOM     16   C  Z9H D   1      29.505  52.226  68.1190  0.00  0.00     0.000 C
ATOM     17   S  Z9H D   1      28.173  50.906  67.3970  0.00  0.00     0.000 S
ATOM     18   O  Z9H D   1      29.505  51.631  66.8440  0.00  0.00     0.000 O
ATOM     19   O  Z9H D   1      27.053  51.779  67.6030  0.00  0.00     0.000 O
ATOM     20   O  Z9H D   1      28.520  49.859  68.2930  0.00  0.00     0.000 OA
ATOM     21   O  Z9H D   1      28.197  50.369  66.0680  0.00  0.00     0.000 OA
ENDBRANCH 5 16
BRANCH 1 22
ATOM     22  O4  GU1 D   2      31.021  56.382  66.7570  0.00  0.00     0.000 O
BRANCH 22 26
ATOM     23  C1  GU1 D   2      29.425  58.153  63.3980  0.00  0.00     0.000 C
ATOM     24  C2  GU1 D   2      29.128  58.875  64.7040  0.00  0.00     0.000 C
ATOM     25  C3  GU1 D   2      30.056  58.372  65.7710  0.00  0.00     0.000 C
ATOM     26  C4  GU1 D   2      30.000  56.855  65.8710  0.00  0.00     0.000 C
ATOM     27  C5  GU1 D   2      30.207  56.231  64.4870  0.00  0.00     0.000 C
ATOM     28  O5  GU1 D   2      29.258  56.749  63.5590  0.00  0.00     0.000 O
ATOM     29   O  GU1 D   2      29.305  60.281  64.5870  0.00  0.00     0.000 O
ATOM     30   C  GU1 D   2      28.101  60.993  64.3360  0.00  0.00     0.000 C
ATOM     31   C  GU1 D   2      30.440  60.019  67.4840  0.00  0.00     0.000 C
ATOM     32   O  GU1 D   2      29.646  58.928  67.0250  0.00  0.00     0.000 O
BRANCH 27 33
ATOM     33   C  GU1 D   2      30.037  54.731  64.5330  0.00  0.00     0.000 C
ATOM     34   O  GU1 D   2      31.025  54.034  64.4230  0.00  0.00     0.000 OA
ATOM     35   O  GU1 D   2      28.931  54.236  64.6820  0.00  0.00     0.000 O
ENDBRANCH 27 33
BRANCH 23 36
ATOM     36  O4  GU6 D   3      28.517  58.274  62.2850  0.00  0.00     0.000 O
BRANCH 36 40
ATOM     37  C1  GU6 D   3      25.596  57.637  59.5000  0.00  0.00     0.000 C
ATOM     38  C2  GU6 D   3      26.747  58.502  59.0020  0.00  0.00     0.000 C
ATOM     39  C3  GU6 D   3      27.882  58.451  59.9910  0.00  0.00     0.000 C
ATOM     40  C4  GU6 D   3      27.626  57.814  61.2880  0.00  0.00     0.000 C
ATOM     41  C5  GU6 D   3      26.178  58.164  61.7660  0.00  0.00     0.000 C
ATOM     42  O5  GU6 D   3      25.164  58.138  60.7560  0.00  0.00     0.000 O
BRANCH 38 43
ATOM     43   O  GU6 D   3      27.191  58.058  57.7340  0.00  0.00     0.000 O
ATOM     44   S  GU6 D   3      27.189  59.132  56.6550  0.00  0.00     0.000 S
ATOM     45   O  GU6 D   3      25.821  59.258  56.1230  0.00  0.00     0.000 OA
ATOM     46   O  GU6 D   3      27.598  60.411  57.2620  0.00  0.00     0.000 O
ATOM     47   O  GU6 D   3      28.133  58.750  55.6090  0.00  0.00     0.000 OA
ENDBRANCH 38 43
BRANCH 39 48
ATOM     48   O  GU6 D   3      29.199  58.789  59.6040  0.00  0.00     0.000 O
ATOM     49   S  GU6 D   3      30.363  57.888  59.1920  0.00  0.00     0.000 S
ATOM     50   O  GU6 D   3      29.960  57.019  58.0790  0.00  0.00     0.000 OA
ATOM     51   O  GU6 D   3      31.394  58.846  58.7710  0.00  0.00     0.000 OA
ATOM     52   O  GU6 D   3      30.768  57.066  60.3540  0.00  0.00     0.000 O
ENDBRANCH 39 48
BRANCH 41 53
ATOM     53   C  GU6 D   3      25.695  58.510  63.1480  0.00  0.00     0.000 C
ATOM     54   O  GU6 D   3      25.986  57.283  63.7660  0.00  0.00     0.000 O
ATOM     55   S  GU6 D   3      25.577  57.029  65.2230  0.00  0.00     0.000 S
ATOM     56   O  GU6 D   3      24.096  57.014  65.2560  0.00  0.00     0.000 O
ATOM     57   O  GU6 D   3      26.119  55.728  65.6410  0.00  0.00     0.000 OA
ATOM     58   O  GU6 D   3      26.117  58.145  66.0310  0.00  0.00     0.000 OA
ENDBRANCH 41 53
BRANCH 37 59
ATOM     59  O4  Z9K D   4      25.623  56.198  59.5980  0.00  0.00     0.000 O
BRANCH 59 63
ATOM     60  C1  Z9K D   4      25.381  52.478  58.3510  0.00  0.00     0.000 C
ATOM     61  C2  Z9K D   4      24.779  53.242  57.1390  0.00  0.00     0.000 C
ATOM     62  C3  Z9K D   4      25.047  54.749  57.5690  0.00  0.00     0.000 C
ATOM     63  C4  Z9K D   4      24.720  55.197  59.0440  0.00  0.00     0.000 C
ATOM     64  C5  Z9K D   4      24.761  54.091  60.1100  0.00  0.00     0.000 C
ATOM     65  O5  Z9K D   4      25.789  53.198  59.6070  0.00  0.00     0.000 O
ATOM     66   O  Z9K D   4      24.374  55.708  56.7340  0.00  0.00     0.000 O
ATOM     67   C  Z9K D   4      25.083  56.061  55.5570  0.00  0.00     0.000 C
BRANCH 61 68
ATOM     68   O  Z9K D   4      25.611  52.992  56.0400  0.00  0.00     0.000 O
ATOM     69   O  Z9K D   4      23.171  53.249  55.3130  0.00  0.00     0.000 OA
ATOM     70   S  Z9K D   4      24.221  52.309  55.5690  0.00  0.00     0.000 S
ATOM     71   O  Z9K D   4      24.072  51.049  56.2320  0.00  0.00     0.000 OA
ATOM     72   O  Z9K D   4      25.049  52.144  54.4180  0.00  0.00     0.000 OA
ENDBRANCH 61 68
BRANCH 64 73
ATOM     73   C  Z9K D   4      24.927  54.694  61.5210  0.00  0.00     0.000 C
ATOM     74   O  Z9K D   4      26.019  54.593  62.1530  0.00  0.00     0.000 O
ATOM     75   O  Z9K D   4      23.994  55.310  62.0910  0.00  0.00     0.000 OA
ENDBRANCH 64 73
BRANCH 60 76
ATOM     76  O4  Z9L D   5      24.849  51.335  59.0420  0.00  0.00     0.000 O
BRANCH 76 80
ATOM     77  C1  Z9L D   5      25.794  47.859  60.7730  0.00  0.00     0.000 C
ATOM     78  C2  Z9L D   5      25.222  48.818  61.9250  0.00  0.00     0.000 C
ATOM     79  C3  Z9L D   5      24.410  50.081  61.1470  0.00  0.00     0.000 C
ATOM     80  C4  Z9L D   5      25.451  50.415  59.9150  0.00  0.00     0.000 C
ATOM     81  C5  Z9L D   5      26.219  49.436  58.8880  0.00  0.00     0.000 C
ATOM     82  O5  Z9L D   5      26.667  48.313  59.6600  0.00  0.00     0.000 O
ATOM     83   C  Z9L D   5      25.057  46.182  59.1800  0.00  0.00     0.000 C
ATOM     84   C  Z9L D   5      25.057  46.182  59.1800  0.00  0.00     0.000 C
BRANCH 78 85
ATOM     85   O  Z9L D   5      24.311  48.087  62.6820  0.00  0.00     0.000 O
ATOM     86   O  Z9L D   5      24.583  47.527  64.5040  0.00  0.00     0.000 OA
ATOM     87   S  Z9L D   5      25.460  48.383  63.7650  0.00  0.00     0.000 S
ATOM     88   O  Z9L D   5      25.344  49.674  64.3970  0.00  0.00     0.000 OA
ATOM     89   O  Z9L D   5      26.669  47.648  63.6230  0.00  0.00     0.000 OA
ENDBRANCH 78 85
BRANCH 79 90
ATOM     90   O  Z9L D   5      24.449  51.250  61.9020  0.00  0.00     0.000 O
ATOM     91   S  Z9L D   5      22.872  51.063  61.7810  0.00  0.00     0.000 S
ATOM     92   O  Z9L D   5      22.204  49.860  62.2060  0.00  0.00     0.000 OA
ATOM     93   O  Z9L D   5      22.385  51.824  60.6580  0.00  0.00     0.000 O
ATOM     94   O  Z9L D   5      22.910  51.943  62.9040  0.00  0.00     0.000 OA
ENDBRANCH 79 90
BRANCH 81 95
ATOM     95   C  Z9L D   5      27.290  50.142  57.8080  0.00  0.00     0.000 C
ATOM     96   S  Z9L D   5      29.200  50.599  57.4750  0.00  0.00     0.000 S
ATOM     97   O  Z9L D   5      28.256  50.559  58.7350  0.00  0.00     0.000 O
ATOM     98   O  Z9L D   5      28.798  51.739  56.6920  0.00  0.00     0.000 OA
ATOM     99   O  Z9L D   5      29.473  49.341  56.8660  0.00  0.00     0.000 OA
ATOM    100   O  Z9L D   5      30.145  51.040  58.4700  0.00  0.00     0.000 O
ENDBRANCH 81 95
ENDBRANCH 76 80
ENDBRANCH 60 76
ENDBRANCH 59 63
ENDBRANCH 37 59
ENDBRANCH 36 40
ENDBRANCH 23 36
ENDBRANCH 22 26
ENDBRANCH 1 22
TORSDOF 19
ENDMDL
MODEL 88
REMARK VINA RESULT:       0.0     37.807     45.020
ROOT
ATOM      1  C1  Z9H D   1      59.043  30.887  92.1420  0.00  0.00     0.000 C
ATOM      2  C2  Z9H D   1      59.307  29.365  92.2250  0.00  0.00     0.000 C
ATOM      3  C3  Z9H D   1      59.323  29.059  90.6960  0.00  0.00     0.000 C
ATOM      4  C4  Z9H D   1      58.088  29.623  89.8780  0.00  0.00     0.000 C
ATOM      5  C5  Z9H D   1      57.561  31.106  90.0220  0.00  0.00     0.000 C
ATOM      6  O5  Z9H D   1      57.901  31.398  91.4010  0.00  0.00     0.000 O
ATOM      7   O  Z9H D   1      59.492  27.663  90.4410  0.00  0.00     0.000 O
ATOM      8   C  Z9H D   1      60.833  27.253  90.1240  0.00  0.00     0.000 C
ATOM      9   O  Z9H D   1      58.413  29.423  88.4980  0.00  0.00     0.000 O
ATOM     10   C  Z9H D   1      57.823  28.272  87.8860  0.00  0.00     0.000 C
ENDROOT
BRANCH 2 11
ATOM     11   O  Z9H D   1      60.653  29.322  92.6210  0.00  0.00     0.000 O
ATOM     12   O  Z9H D   1      61.247  28.675  94.2890  0.00  0.00     0.000 OA
ATOM     13   S  Z9H D   1      59.890  28.679  93.8570  0.00  0.00     0.000 S
ATOM     14   O  Z9H D   1      59.403  27.388  93.4630  0.00  0.00     0.000 OA
ATOM     15   O  Z9H D   1      59.131  29.667  94.5890  0.00  0.00     0.000 O
ENDBRANCH 2 11
BRANCH 5 16
ATOM     16   C  Z9H D   1      56.017  31.369  89.4320  0.00  0.00     0.000 C
ATOM     17   S  Z9H D   1      54.842  32.690  88.4760  0.00  0.00     0.000 S
ATOM     18   O  Z9H D   1      56.367  32.181  88.3360  0.00  0.00     0.000 O
ATOM     19   O  Z9H D   1      54.566  33.448  89.6630  0.00  0.00     0.000 O
ATOM     20   O  Z9H D   1      53.949  31.719  87.9470  0.00  0.00     0.000 OA
ATOM     21   O  Z9H D   1      55.270  33.527  87.3930  0.00  0.00     0.000 OA
ENDBRANCH 5 16
BRANCH 1 22
ATOM     22  O4  GU1 D   2      60.131  31.671  91.5310  0.00  0.00     0.000 O
BRANCH 22 26
ATOM     23  C1  GU1 D   2      62.181  35.243  91.6380  0.00  0.00     0.000 C
ATOM     24  C2  GU1 D   2      61.723  34.728  92.9940  0.00  0.00     0.000 C
ATOM     25  C3  GU1 D   2      61.346  33.279  92.8740  0.00  0.00     0.000 C
ATOM     26  C4  GU1 D   2      60.336  33.071  91.7540  0.00  0.00     0.000 C
ATOM     27  C5  GU1 D   2      60.847  33.716  90.4620  0.00  0.00     0.000 C
ATOM     28  O5  GU1 D   2      61.144  35.093  90.6760  0.00  0.00     0.000 O
ATOM     29   O  GU1 D   2      62.743  34.841  93.9790  0.00  0.00     0.000 O
ATOM     30   C  GU1 D   2      62.636  36.005  94.7860  0.00  0.00     0.000 C
ATOM     31   C  GU1 D   2      61.607  32.101  94.9560  0.00  0.00     0.000 C
ATOM     32   O  GU1 D   2      60.752  32.863  94.1080  0.00  0.00     0.000 O
BRANCH 27 33
ATOM     33   C  GU1 D   2      59.813  33.631  89.3640  0.00  0.00     0.000 C
ATOM     34   O  GU1 D   2      58.806  34.300  89.4660  0.00  0.00     0.000 OA
ATOM     35   O  GU1 D   2      59.994  32.908  88.3960  0.00  0.00     0.000 O
ENDBRANCH 27 33
BRANCH 23 36
ATOM     36  O4  GU6 D   3      62.364  36.657  91.4280  0.00  0.00     0.000 O
BRANCH 36 40
ATOM     37  C1  GU6 D   3      61.847  40.579  90.4040  0.00  0.00     0.000 C
ATOM     38  C2  GU6 D   3      63.305  40.139  90.4520  0.00  0.00     0.000 C
ATOM     39  C3  GU6 D   3      63.376  38.638  90.5660  0.00  0.00     0.000 C
ATOM     40  C4  GU6 D   3      62.127  37.915  90.8290  0.00  0.00     0.000 C
ATOM     41  C5  GU6 D   3      61.245  38.741  91.8230  0.00  0.00     0.000 C
ATOM     42  O5  GU6 D   3      61.208  40.155  91.5980  0.00  0.00     0.000 O
BRANCH 38 43
ATOM     43   O  GU6 D   3      63.993  40.568  89.2920  0.00  0.00     0.000 O
ATOM     44   S  GU6 D   3      65.240  41.396  89.5700  0.00  0.00     0.000 S
ATOM     45   O  GU6 D   3      64.831  42.786  89.8330  0.00  0.00     0.000 OA
ATOM     46   O  GU6 D   3      65.912  40.849  90.7630  0.00  0.00     0.000 O
ATOM     47   O  GU6 D   3      66.128  41.312  88.4150  0.00  0.00     0.000 OA
ENDBRANCH 38 43
BRANCH 39 48
ATOM     48   O  GU6 D   3      64.550  37.937  90.2030  0.00  0.00     0.000 O
ATOM     49   S  GU6 D   3      64.897  37.210  88.9050  0.00  0.00     0.000 S
ATOM     50   O  GU6 D   3      64.753  38.119  87.7620  0.00  0.00     0.000 OA
ATOM     51   O  GU6 D   3      66.301  36.825  89.1030  0.00  0.00     0.000 OA
ATOM     52   O  GU6 D   3      63.990  36.051  88.7470  0.00  0.00     0.000 O
ENDBRANCH 39 48
BRANCH 41 53
ATOM     53   C  GU6 D   3      60.412  38.255  92.9780  0.00  0.00     0.000 C
ATOM     54   O  GU6 D   3      59.471  37.520  92.2400  0.00  0.00     0.000 O
ATOM     55   S  GU6 D   3      58.269  36.871  92.9390  0.00  0.00     0.000 S
ATOM     56   O  GU6 D   3      57.423  37.976  93.4480  0.00  0.00     0.000 O
ATOM     57   O  GU6 D   3      57.534  36.065  91.9530  0.00  0.00     0.000 OA
ATOM     58   O  GU6 D   3      58.798  36.050  94.0510  0.00  0.00     0.000 OA
ENDBRANCH 41 53
BRANCH 37 59
ATOM     59  O4  Z9K D   4      60.938  40.318  89.3140  0.00  0.00     0.000 O
BRANCH 59 63
ATOM     60  C1  Z9K D   4      59.249  40.831  85.8030  0.00  0.00     0.000 C
ATOM     61  C2  Z9K D   4      60.054  42.152  85.9450  0.00  0.00     0.000 C
ATOM     62  C3  Z9K D   4      60.877  41.861  87.2740  0.00  0.00     0.000 C
ATOM     63  C4  Z9K D   4      60.135  41.235  88.5160  0.00  0.00     0.000 C
ATOM     64  C5  Z9K D   4      58.889  40.393  88.2020  0.00  0.00     0.000 C
ATOM     65  O5  Z9K D   4      59.208  39.814  86.9100  0.00  0.00     0.000 O
ATOM     66   O  Z9K D   4      61.549  43.023  87.7930  0.00  0.00     0.000 O
ATOM     67   C  Z9K D   4      62.824  43.267  87.2200  0.00  0.00     0.000 C
BRANCH 61 68
ATOM     68   O  Z9K D   4      60.989  42.178  84.9010  0.00  0.00     0.000 O
ATOM     69   O  Z9K D   4      60.179  44.536  85.4780  0.00  0.00     0.000 OA
ATOM     70   S  Z9K D   4      60.056  43.454  84.5480  0.00  0.00     0.000 S
ATOM     71   O  Z9K D   4      58.837  42.992  83.9590  0.00  0.00     0.000 OA
ATOM     72   O  Z9K D   4      61.070  43.527  83.5450  0.00  0.00     0.000 OA
ENDBRANCH 61 68
BRANCH 64 73
ATOM     73   C  Z9K D   4      58.554  39.449  89.3770  0.00  0.00     0.000 C
ATOM     74   O  Z9K D   4      58.083  39.896  90.4630  0.00  0.00     0.000 O
ATOM     75   O  Z9K D   4      58.730  38.209  89.2990  0.00  0.00     0.000 OA
ENDBRANCH 64 73
BRANCH 60 76
ATOM     76  O4  Z9L D   5      57.868  40.660  85.4400  0.00  0.00     0.000 O
BRANCH 76 80
ATOM     77  C1  Z9L D   5      55.324  38.445  83.2960  0.00  0.00     0.000 C
ATOM     78  C2  Z9L D   5      54.943  38.236  84.8400  0.00  0.00     0.000 C
ATOM     79  C3  Z9L D   5      55.685  39.491  85.6970  0.00  0.00     0.000 C
ATOM     80  C4  Z9L D   5      57.163  39.539  84.9710  0.00  0.00     0.000 C
ATOM     81  C5  Z9L D   5      57.573  39.517  83.4120  0.00  0.00     0.000 C
ATOM     82  O5  Z9L D   5      56.713  38.556  82.7820  0.00  0.00     0.000 O
ATOM     83   C  Z9L D   5      54.772  39.847  81.3930  0.00  0.00     0.000 C
ATOM     84   C  Z9L D   5      54.772  39.847  81.3930  0.00  0.00     0.000 C
BRANCH 78 85
ATOM     85   O  Z9L D   5      53.562  38.353  84.9630  0.00  0.00     0.000 O
ATOM     86   O  Z9L D   5      52.363  36.909  85.3950  0.00  0.00     0.000 OA
ATOM     87   S  Z9L D   5      53.791  36.821  85.3900  0.00  0.00     0.000 S
ATOM     88   O  Z9L D   5      54.160  36.652  86.7740  0.00  0.00     0.000 OA
ATOM     89   O  Z9L D   5      54.107  35.912  84.3420  0.00  0.00     0.000 OA
ENDBRANCH 78 85
BRANCH 79 90
ATOM     90   O  Z9L D   5      55.999  39.101  86.9960  0.00  0.00     0.000 O
ATOM     91   S  Z9L D   5      55.062  40.350  87.3110  0.00  0.00     0.000 S
ATOM     92   O  Z9L D   5      53.717  40.450  86.8100  0.00  0.00     0.000 OA
ATOM     93   O  Z9L D   5      55.878  41.526  87.4860  0.00  0.00     0.000 O
ATOM     94   O  Z9L D   5      54.995  39.692  88.5760  0.00  0.00     0.000 OA
ENDBRANCH 79 90
BRANCH 81 95
ATOM     95   C  Z9L D   5      59.210  39.486  83.0470  0.00  0.00     0.000 C
ATOM     96   S  Z9L D   5      60.753  38.311  82.5940  0.00  0.00     0.000 S
ATOM     97   O  Z9L D   5      59.493  38.202  83.5330  0.00  0.00     0.000 O
ATOM     98   O  Z9L D   5      61.656  39.244  83.2180  0.00  0.00     0.000 OA
ATOM     99   O  Z9L D   5      60.481  38.365  81.1970  0.00  0.00     0.000 OA
ATOM    100   O  Z9L D   5      61.001  37.000  83.1410  0.00  0.00     0.000 O
ENDBRANCH 81 95
ENDBRANCH 76 80
ENDBRANCH 60 76
ENDBRANCH 59 63
ENDBRANCH 37 59
ENDBRANCH 36 40
ENDBRANCH 23 36
ENDBRANCH 22 26
ENDBRANCH 1 22
TORSDOF 19
ENDMDL
MODEL 89
REMARK VINA RESULT:       0.0     25.958     30.678
ROOT
ATOM      1  C1  Z9H D   1      52.997  73.180  54.5940  0.00  0.00     0.000 C
ATOM      2  C2  Z9H D   1      51.637  73.562  55.2270  0.00  0.00     0.000 C
ATOM      3  C3  Z9H D   1      51.824  72.848  56.6010  0.00  0.00     0.000 C
ATOM      4  C4  Z9H D   1      52.282  71.333  56.5220  0.00  0.00     0.000 C
ATOM      5  C5  Z9H D   1      53.469  70.836  55.6050  0.00  0.00     0.000 C
ATOM      6  O5  Z9H D   1      53.405  71.786  54.5120  0.00  0.00     0.000 O
ATOM      7   O  Z9H D   1      50.660  72.973  57.4210  0.00  0.00     0.000 O
ATOM      8   C  Z9H D   1      50.715  74.012  58.4130  0.00  0.00     0.000 C
ATOM      9   O  Z9H D   1      52.597  70.952  57.8650  0.00  0.00     0.000 O
ATOM     10   C  Z9H D   1      51.577  70.224  58.5560  0.00  0.00     0.000 C
ENDROOT
BRANCH 2 11
ATOM     11   O  Z9H D   1      51.815  74.928  55.4980  0.00  0.00     0.000 O
ATOM     12   O  Z9H D   1      50.862  76.311  54.6410  0.00  0.00     0.000 OA
ATOM     13   S  Z9H D   1      50.658  74.921  54.4100  0.00  0.00     0.000 S
ATOM     14   O  Z9H D   1      49.468  74.400  55.0200  0.00  0.00     0.000 OA
ATOM     15   O  Z9H D   1      51.154  74.548  53.1050  0.00  0.00     0.000 O
ENDBRANCH 2 11
BRANCH 5 16
ATOM     16   C  Z9H D   1      53.505  69.187  55.3230  0.00  0.00     0.000 C
ATOM     17   S  Z9H D   1      54.716  67.599  55.0890  0.00  0.00     0.000 S
ATOM     18   O  Z9H D   1      54.671  68.892  56.0540  0.00  0.00     0.000 O
ATOM     19   O  Z9H D   1      54.983  67.887  53.7090  0.00  0.00     0.000 O
ATOM     20   O  Z9H D   1      53.760  66.637  55.5130  0.00  0.00     0.000 OA
ATOM     21   O  Z9H D   1      55.920  67.377  55.8340  0.00  0.00     0.000 OA
ENDBRANCH 5 16
BRANCH 1 22
ATOM     22  O4  GU1 D   2      54.175  73.766  55.2570  0.00  0.00     0.000 O
BRANCH 22 26
ATOM     23  C1  GU1 D   2      57.939  75.334  54.6710  0.00  0.00     0.000 C
ATOM     24  C2  GU1 D   2      56.939  75.640  53.5660  0.00  0.00     0.000 C
ATOM     25  C3  GU1 D   2      55.550  75.360  54.0610  0.00  0.00     0.000 C
ATOM     26  C4  GU1 D   2      55.446  73.950  54.6230  0.00  0.00     0.000 C
ATOM     27  C5  GU1 D   2      56.558  73.710  55.6480  0.00  0.00     0.000 C
ATOM     28  O5  GU1 D   2      57.834  73.972  55.0700  0.00  0.00     0.000 O
ATOM     29   O  GU1 D   2      57.000  77.001  53.1560  0.00  0.00     0.000 O
ATOM     30   C  GU1 D   2      57.798  77.218  52.0010  0.00  0.00     0.000 C
ATOM     31   C  GU1 D   2      53.900  76.697  52.9280  0.00  0.00     0.000 C
ATOM     32   O  GU1 D   2      54.645  75.482  52.9590  0.00  0.00     0.000 O
BRANCH 27 33
ATOM     33   C  GU1 D   2      56.555  72.281  56.1340  0.00  0.00     0.000 C
ATOM     34   O  GU1 D   2      56.887  71.407  55.3600  0.00  0.00     0.000 OA
ATOM     35   O  GU1 D   2      56.229  72.015  57.2810  0.00  0.00     0.000 O
ENDBRANCH 27 33
BRANCH 23 36
ATOM     36  O4  GU6 D   3      59.349  75.284  54.3750  0.00  0.00     0.000 O
BRANCH 36 40
ATOM     37  C1  GU6 D   3      63.136  74.043  53.4760  0.00  0.00     0.000 C
ATOM     38  C2  GU6 D   3      63.082  75.364  54.2330  0.00  0.00     0.000 C
ATOM     39  C3  GU6 D   3      61.685  75.593  54.7490  0.00  0.00     0.000 C
ATOM     40  C4  GU6 D   3      60.628  74.692  54.2770  0.00  0.00     0.000 C
ATOM     41  C5  GU6 D   3      60.866  74.353  52.7680  0.00  0.00     0.000 C
ATOM     42  O5  GU6 D   3      62.225  74.105  52.3900  0.00  0.00     0.000 O
BRANCH 38 43
ATOM     43   O  GU6 D   3      63.999  75.359  55.3090  0.00  0.00     0.000 O
ATOM     44   S  GU6 D   3      64.988  76.518  55.2980  0.00  0.00     0.000 S
ATOM     45   O  GU6 D   3      66.085  76.188  54.3710  0.00  0.00     0.000 OA
ATOM     46   O  GU6 D   3      64.292  77.727  54.8230  0.00  0.00     0.000 O
ATOM     47   O  GU6 D   3      65.484  76.726  56.6550  0.00  0.00     0.000 OA
ENDBRANCH 38 43
BRANCH 39 48
ATOM     48   O  GU6 D   3      61.443  76.486  55.8200  0.00  0.00     0.000 O
ATOM     49   S  GU6 D   3      61.255  76.202  57.3090  0.00  0.00     0.000 S
ATOM     50   O  GU6 D   3      62.402  75.449  57.8300  0.00  0.00     0.000 OA
ATOM     51   O  GU6 D   3      61.192  77.547  57.8980  0.00  0.00     0.000 OA
ATOM     52   O  GU6 D   3      60.010  75.424  57.4960  0.00  0.00     0.000 O
ENDBRANCH 39 48
BRANCH 41 53
ATOM     53   C  GU6 D   3      59.861  74.233  51.6540  0.00  0.00     0.000 C
ATOM     54   O  GU6 D   3      59.173  73.108  52.1370  0.00  0.00     0.000 O
ATOM     55   S  GU6 D   3      58.064  72.456  51.3010  0.00  0.00     0.000 S
ATOM     56   O  GU6 D   3      58.714  71.890  50.0960  0.00  0.00     0.000 O
ATOM     57   O  GU6 D   3      57.438  71.394  52.1010  0.00  0.00     0.000 OA
ATOM     58   O  GU6 D   3      57.104  73.522  50.9370  0.00  0.00     0.000 OA
ENDBRANCH 41 53
BRANCH 37 59
ATOM     59  O4  Z9K D   4      63.000  72.738  54.0770  0.00  0.00     0.000 O
BRANCH 59 63
ATOM     60  C1  Z9K D   4      64.114  69.509  56.0210  0.00  0.00     0.000 C
ATOM     61  C2  Z9K D   4      65.487  70.180  55.7410  0.00  0.00     0.000 C
ATOM     62  C3  Z9K D   4      65.022  71.569  55.1210  0.00  0.00     0.000 C
ATOM     63  C4  Z9K D   4      63.884  71.581  54.0300  0.00  0.00     0.000 C
ATOM     64  C5  Z9K D   4      62.894  70.407  54.0760  0.00  0.00     0.000 C
ATOM     65  O5  Z9K D   4      62.832  70.092  55.4920  0.00  0.00     0.000 O
ATOM     66   O  Z9K D   4      66.101  72.321  54.5380  0.00  0.00     0.000 O
ATOM     67   C  Z9K D   4      66.818  73.128  55.4580  0.00  0.00     0.000 C
BRANCH 61 68
ATOM     68   O  Z9K D   4      66.061  70.477  56.9840  0.00  0.00     0.000 O
ATOM     69   O  Z9K D   4      67.852  69.883  55.2550  0.00  0.00     0.000 OA
ATOM     70   S  Z9K D   4      67.108  69.399  56.3800  0.00  0.00     0.000 S
ATOM     71   O  Z9K D   4      66.557  68.086  56.5160  0.00  0.00     0.000 OA
ATOM     72   O  Z9K D   4      67.733  69.781  57.6050  0.00  0.00     0.000 OA
ENDBRANCH 61 68
BRANCH 64 73
ATOM     73   C  Z9K D   4      61.586  70.764  53.3380  0.00  0.00     0.000 C
ATOM     74   O  Z9K D   4      61.549  70.855  52.0760  0.00  0.00     0.000 O
ATOM     75   O  Z9K D   4      60.513  70.969  53.9550  0.00  0.00     0.000 OA
ENDBRANCH 64 73
BRANCH 60 76
ATOM     76  O4  Z9L D   5      63.721  68.145  55.7900  0.00  0.00     0.000 O
BRANCH 76 80
ATOM     77  C1  Z9L D   5      61.699  65.048  57.3050  0.00  0.00     0.000 C
ATOM     78  C2  Z9L D   5      60.943  65.491  55.9610  0.00  0.00     0.000 C
ATOM     79  C3  Z9L D   5      62.023  66.463  55.0950  0.00  0.00     0.000 C
ATOM     80  C4  Z9L D   5      62.657  67.386  56.3030  0.00  0.00     0.000 C
ATOM     81  C5  Z9L D   5      63.212  66.977  57.7610  0.00  0.00     0.000 C
ATOM     82  O5  Z9L D   5      62.304  65.993  58.2780  0.00  0.00     0.000 O
ATOM     83   C  Z9L D   5      63.428  63.530  58.0810  0.00  0.00     0.000 C
ATOM     84   C  Z9L D   5      63.428  63.530  58.0810  0.00  0.00     0.000 C
BRANCH 78 85
ATOM     85   O  Z9L D   5      60.668  64.344  55.2220  0.00  0.00     0.000 O
ATOM     86   O  Z9L D   5      58.910  63.622  54.9120  0.00  0.00     0.000 OA
ATOM     87   S  Z9L D   5      59.187  64.866  55.5630  0.00  0.00     0.000 S
ATOM     88   O  Z9L D   5      58.705  65.878  54.6570  0.00  0.00     0.000 OA
ATOM     89   O  Z9L D   5      58.748  64.693  56.9050  0.00  0.00     0.000 OA
ENDBRANCH 78 85
BRANCH 79 90
ATOM     90   O  Z9L D   5      61.349  67.402  54.3190  0.00  0.00     0.000 O
ATOM     91   S  Z9L D   5      62.168  66.652  53.1780  0.00  0.00     0.000 S
ATOM     92   O  Z9L D   5      62.075  65.230  52.9710  0.00  0.00     0.000 OA
ATOM     93   O  Z9L D   5      63.400  67.358  52.9320  0.00  0.00     0.000 O
ATOM     94   O  Z9L D   5      61.163  67.263  52.3700  0.00  0.00     0.000 OA
ENDBRANCH 79 90
BRANCH 81 95
ATOM     95   C  Z9L D   5      63.703  68.221  58.7740  0.00  0.00     0.000 C
ATOM     96   S  Z9L D   5      63.146  69.425  60.2590  0.00  0.00     0.000 S
ATOM     97   O  Z9L D   5      62.445  68.801  58.9940  0.00  0.00     0.000 O
ATOM     98   O  Z9L D   5      64.040  70.446  59.7770  0.00  0.00     0.000 OA
ATOM     99   O  Z9L D   5      63.551  68.498  61.2630  0.00  0.00     0.000 OA
ATOM    100   O  Z9L D   5      61.837  70.006  60.4260  0.00  0.00     0.000 O
ENDBRANCH 81 95
ENDBRANCH 76 80
ENDBRANCH 60 76
ENDBRANCH 59 63
ENDBRANCH 37 59
ENDBRANCH 36 40
ENDBRANCH 23 36
ENDBRANCH 22 26
ENDBRANCH 1 22
TORSDOF 19
ENDMDL
MODEL 90
REMARK VINA RESULT:       0.0     52.048     58.201
ROOT
ATOM      1  C1  Z9H D   1      62.809  49.114  14.8960  0.00  0.00     0.000 C
ATOM      2  C2  Z9H D   1      61.730  48.671  13.8790  0.00  0.00     0.000 C
ATOM      3  C3  Z9H D   1      62.664  47.928  12.8740  0.00  0.00     0.000 C
ATOM      4  C4  Z9H D   1      63.936  48.744  12.4000  0.00  0.00     0.000 C
ATOM      5  C5  Z9H D   1      64.890  49.514  13.3970  0.00  0.00     0.000 C
ATOM      6  O5  Z9H D   1      63.968  49.875  14.4560  0.00  0.00     0.000 O
ATOM      7   O  Z9H D   1      61.938  47.438  11.7450  0.00  0.00     0.000 O
ATOM      8   C  Z9H D   1      61.571  46.049  11.8040  0.00  0.00     0.000 C
ATOM      9   O  Z9H D   1      64.747  47.813  11.6750  0.00  0.00     0.000 O
ATOM     10   C  Z9H D   1      64.632  47.873  10.2500  0.00  0.00     0.000 C
ENDROOT
BRANCH 2 11
ATOM     11   O  Z9H D   1      61.066  47.653  14.5820  0.00  0.00     0.000 O
ATOM     12   O  Z9H D   1      59.278  47.765  15.1700  0.00  0.00     0.000 OA
ATOM     13   S  Z9H D   1      59.948  48.769  14.4150  0.00  0.00     0.000 S
ATOM     14   O  Z9H D   1      59.558  48.814  13.0350  0.00  0.00     0.000 OA
ATOM     15   O  Z9H D   1      60.219  49.924  15.2400  0.00  0.00     0.000 O
ENDBRANCH 2 11
BRANCH 5 16
ATOM     16   C  Z9H D   1      65.887  50.655  12.6850  0.00  0.00     0.000 C
ATOM     17   S  Z9H D   1      67.718  51.482  12.7430  0.00  0.00     0.000 S
ATOM     18   O  Z9H D   1      67.112  49.993  12.8890  0.00  0.00     0.000 O
ATOM     19   O  Z9H D   1      67.385  52.375  13.8150  0.00  0.00     0.000 O
ATOM     20   O  Z9H D   1      67.732  51.874  11.3770  0.00  0.00     0.000 OA
ATOM     21   O  Z9H D   1      68.930  50.760  13.0030  0.00  0.00     0.000 OA
ENDBRANCH 5 16
BRANCH 1 22
ATOM     22  O4  GU1 D   2      63.470  48.012  15.6160  0.00  0.00     0.000 O
BRANCH 22 26
ATOM     23  C1  GU1 D   2      65.093  46.834  19.2150  0.00  0.00     0.000 C
ATOM     24  C2  GU1 D   2      63.888  47.756  19.3280  0.00  0.00     0.000 C
ATOM     25  C3  GU1 D   2      63.170  47.800  18.0100  0.00  0.00     0.000 C
ATOM     26  C4  GU1 D   2      64.126  48.158  16.8820  0.00  0.00     0.000 C
ATOM     27  C5  GU1 D   2      65.351  47.239  16.9210  0.00  0.00     0.000 C
ATOM     28  O5  GU1 D   2      65.976  47.296  18.2000  0.00  0.00     0.000 O
ATOM     29   O  GU1 D   2      62.970  47.313  20.3200  0.00  0.00     0.000 O
ATOM     30   C  GU1 D   2      63.128  47.955  21.5770  0.00  0.00     0.000 C
ATOM     31   C  GU1 D   2      60.831  48.302  18.2710  0.00  0.00     0.000 C
ATOM     32   O  GU1 D   2      62.152  48.803  18.0830  0.00  0.00     0.000 O
BRANCH 27 33
ATOM     33   C  GU1 D   2      66.374  47.648  15.8870  0.00  0.00     0.000 C
ATOM     34   O  GU1 D   2      66.975  48.690  16.0500  0.00  0.00     0.000 OA
ATOM     35   O  GU1 D   2      66.591  46.942  14.9150  0.00  0.00     0.000 O
ENDBRANCH 27 33
BRANCH 23 36
ATOM     36  O4  GU6 D   3      66.083  46.810  20.2620  0.00  0.00     0.000 O
BRANCH 36 40
ATOM     37  C1  GU6 D   3      69.419  47.449  22.5340  0.00  0.00     0.000 C
ATOM     38  C2  GU6 D   3      68.734  46.114  22.8010  0.00  0.00     0.000 C
ATOM     39  C3  GU6 D   3      67.696  45.858  21.7410  0.00  0.00     0.000 C
ATOM     40  C4  GU6 D   3      67.371  46.957  20.8250  0.00  0.00     0.000 C
ATOM     41  C5  GU6 D   3      67.380  48.311  21.6100  0.00  0.00     0.000 C
ATOM     42  O5  GU6 D   3      68.437  48.474  22.5620  0.00  0.00     0.000 O
BRANCH 38 43
ATOM     43   O  GU6 D   3      69.681  45.063  22.8140  0.00  0.00     0.000 O
ATOM     44   S  GU6 D   3      69.672  44.223  24.0840  0.00  0.00     0.000 S
ATOM     45   O  GU6 D   3      70.451  44.927  25.1170  0.00  0.00     0.000 OA
ATOM     46   O  GU6 D   3      68.278  44.073  24.5380  0.00  0.00     0.000 O
ATOM     47   O  GU6 D   3      70.245  42.914  23.7860  0.00  0.00     0.000 OA
ENDBRANCH 38 43
BRANCH 39 48
ATOM     48   O  GU6 D   3      67.224  44.548  21.4870  0.00  0.00     0.000 O
ATOM     49   S  GU6 D   3      67.640  43.548  20.4100  0.00  0.00     0.000 S
ATOM     50   O  GU6 D   3      69.087  43.315  20.4670  0.00  0.00     0.000 OA
ATOM     51   O  GU6 D   3      66.892  42.336  20.7750  0.00  0.00     0.000 OA
ATOM     52   O  GU6 D   3      67.266  44.087  19.0840  0.00  0.00     0.000 O
ENDBRANCH 39 48
BRANCH 41 53
ATOM     53   C  GU6 D   3      66.438  49.479  21.4950  0.00  0.00     0.000 C
ATOM     54   O  GU6 D   3      66.767  49.861  20.1840  0.00  0.00     0.000 O
ATOM     55   S  GU6 D   3      66.156  51.125  19.5650  0.00  0.00     0.000 S
ATOM     56   O  GU6 D   3      66.686  52.276  20.3340  0.00  0.00     0.000 O
ATOM     57   O  GU6 D   3      66.571  51.205  18.1570  0.00  0.00     0.000 OA
ATOM     58   O  GU6 D   3      64.687  51.019  19.7110  0.00  0.00     0.000 OA
ENDBRANCH 41 53
BRANCH 37 59
ATOM     59  O4  Z9K D   4      70.294  47.723  21.4190  0.00  0.00     0.000 O
BRANCH 59 63
ATOM     60  C1  Z9K D   4      73.639  47.734  19.3570  0.00  0.00     0.000 C
ATOM     61  C2  Z9K D   4      74.152  47.302  20.7590  0.00  0.00     0.000 C
ATOM     62  C3  Z9K D   4      72.778  47.121  21.5390  0.00  0.00     0.000 C
ATOM     63  C4  Z9K D   4      71.662  48.225  21.3960  0.00  0.00     0.000 C
ATOM     64  C5  Z9K D   4      71.688  49.047  20.0980  0.00  0.00     0.000 C
ATOM     65  O5  Z9K D   4      72.198  48.097  19.1260  0.00  0.00     0.000 O
ATOM     66   O  Z9K D   4      72.947  46.948  22.9570  0.00  0.00     0.000 O
ATOM     67   C  Z9K D   4      73.194  45.611  23.3590  0.00  0.00     0.000 C
BRANCH 61 68
ATOM     68   O  Z9K D   4      74.698  46.019  20.6200  0.00  0.00     0.000 O
ATOM     69   O  Z9K D   4      75.952  47.372  22.3930  0.00  0.00     0.000 OA
ATOM     70   S  Z9K D   4      75.995  46.891  21.0450  0.00  0.00     0.000 S
ATOM     71   O  Z9K D   4      76.454  47.629  19.9080  0.00  0.00     0.000 OA
ATOM     72   O  Z9K D   4      76.519  45.565  20.9950  0.00  0.00     0.000 OA
ENDBRANCH 61 68
BRANCH 64 73
ATOM     73   C  Z9K D   4      70.319  49.710  19.8400  0.00  0.00     0.000 C
ATOM     74   O  Z9K D   4      69.917  50.681  20.5460  0.00  0.00     0.000 O
ATOM     75   O  Z9K D   4      69.557  49.319  18.9230  0.00  0.00     0.000 OA
ENDBRANCH 64 73
BRANCH 60 76
ATOM     76  O4  Z9L D   5      74.155  48.761  18.4930  0.00  0.00     0.000 O
BRANCH 76 80
ATOM     77  C1  Z9L D   5      75.010  49.688  14.7010  0.00  0.00     0.000 C
ATOM     78  C2  Z9L D   5      73.839  50.676  15.1730  0.00  0.00     0.000 C
ATOM     79  C3  Z9L D   5      73.798  50.608  16.8630  0.00  0.00     0.000 C
ATOM     80  C4  Z9L D   5      73.983  48.991  17.1190  0.00  0.00     0.000 C
ATOM     81  C5  Z9L D   5      75.015  47.934  16.4730  0.00  0.00     0.000 C
ATOM     82  O5  Z9L D   5      75.102  48.254  15.0770  0.00  0.00     0.000 O
ATOM     83   C  Z9L D   5      77.432  49.557  14.5870  0.00  0.00     0.000 C
ATOM     84   C  Z9L D   5      77.432  49.557  14.5870  0.00  0.00     0.000 C
BRANCH 78 85
ATOM     85   O  Z9L D   5      74.176  51.967  14.7770  0.00  0.00     0.000 O
ATOM     86   O  Z9L D   5      73.265  52.980  13.4150  0.00  0.00     0.000 OA
ATOM     87   S  Z9L D   5      72.846  51.706  13.9140  0.00  0.00     0.000 S
ATOM     88   O  Z9L D   5      71.625  51.968  14.6340  0.00  0.00     0.000 OA
ATOM     89   O  Z9L D   5      72.971  50.814  12.8120  0.00  0.00     0.000 OA
ENDBRANCH 78 85
BRANCH 79 90
ATOM     90   O  Z9L D   5      72.515  50.846  17.3490  0.00  0.00     0.000 O
ATOM     91   S  Z9L D   5      73.303  52.014  18.0920  0.00  0.00     0.000 S
ATOM     92   O  Z9L D   5      74.081  52.993  17.3790  0.00  0.00     0.000 OA
ATOM     93   O  Z9L D   5      73.698  51.565  19.4030  0.00  0.00     0.000 O
ATOM     94   O  Z9L D   5      71.977  52.529  18.2050  0.00  0.00     0.000 OA
ENDBRANCH 79 90
BRANCH 81 95
ATOM     95   C  Z9L D   5      74.844  46.325  16.9150  0.00  0.00     0.000 C
ATOM     96   S  Z9L D   5      74.049  44.573  16.3990  0.00  0.00     0.000 S
ATOM     97   O  Z9L D   5      73.611  46.082  16.2920  0.00  0.00     0.000 O
ATOM     98   O  Z9L D   5      73.937  44.207  17.7880  0.00  0.00     0.000 OA
ATOM     99   O  Z9L D   5      75.183  44.200  15.6230  0.00  0.00     0.000 OA
ATOM    100   O  Z9L D   5      72.763  44.383  15.7740  0.00  0.00     0.000 O
ENDBRANCH 81 95
ENDBRANCH 76 80
ENDBRANCH 60 76
ENDBRANCH 59 63
ENDBRANCH 37 59
ENDBRANCH 36 40
ENDBRANCH 23 36
ENDBRANCH 22 26
ENDBRANCH 1 22
TORSDOF 19
ENDMDL
MODEL 91
REMARK VINA RESULT:       0.0     15.085     20.389
ROOT
ATOM      1  C1  Z9H D   1      40.717  47.869  74.9000  0.00  0.00     0.000 C
ATOM      2  C2  Z9H D   1      41.185  47.008  73.7020  0.00  0.00     0.000 C
ATOM      3  C3  Z9H D   1      40.512  47.830  72.5610  0.00  0.00     0.000 C
ATOM      4  C4  Z9H D   1      38.975  48.154  72.7730  0.00  0.00     0.000 C
ATOM      5  C5  Z9H D   1      38.391  48.722  74.1270  0.00  0.00     0.000 C
ATOM      6  O5  Z9H D   1      39.304  48.150  75.0970  0.00  0.00     0.000 O
ATOM      7   O  Z9H D   1      40.721  47.226  71.2830  0.00  0.00     0.000 O
ATOM      8   C  Z9H D   1      41.790  47.787  70.5040  0.00  0.00     0.000 C
ATOM      9   O  Z9H D   1      38.627  49.082  71.7400  0.00  0.00     0.000 O
ATOM     10   C  Z9H D   1      37.973  48.518  70.5990  0.00  0.00     0.000 C
ENDROOT
BRANCH 2 11
ATOM     11   O  Z9H D   1      42.550  47.329  73.6280  0.00  0.00     0.000 O
ATOM     12   O  Z9H D   1      43.946  46.110  73.9790  0.00  0.00     0.000 OA
ATOM     13   S  Z9H D   1      42.559  45.785  74.0040  0.00  0.00     0.000 S
ATOM     14   O  Z9H D   1      42.117  45.039  72.8610  0.00  0.00     0.000 OA
ATOM     15   O  Z9H D   1      42.118  45.565  75.3620  0.00  0.00     0.000 O
ENDBRANCH 2 11
BRANCH 5 16
ATOM     16   C  Z9H D   1      36.733  48.576  74.3010  0.00  0.00     0.000 C
ATOM     17   S  Z9H D   1      35.082  49.475  75.0130  0.00  0.00     0.000 S
ATOM     18   O  Z9H D   1      36.409  49.943  74.2220  0.00  0.00     0.000 O
ATOM     19   O  Z9H D   1      35.308  49.034  76.3600  0.00  0.00     0.000 O
ATOM     20   O  Z9H D   1      34.182  48.830  74.1230  0.00  0.00     0.000 OA
ATOM     21   O  Z9H D   1      34.830  50.885  74.9450  0.00  0.00     0.000 OA
ENDBRANCH 5 16
BRANCH 1 22
ATOM     22  O4  GU1 D   2      41.270  49.234  74.9340  0.00  0.00     0.000 O
BRANCH 22 26
ATOM     23  C1  GU1 D   2      42.636  52.256  77.3780  0.00  0.00     0.000 C
ATOM     24  C2  GU1 D   2      42.950  50.849  77.8640  0.00  0.00     0.000 C
ATOM     25  C3  GU1 D   2      42.754  49.878  76.7360  0.00  0.00     0.000 C
ATOM     26  C4  GU1 D   2      41.371  50.031  76.1200  0.00  0.00     0.000 C
ATOM     27  C5  GU1 D   2      41.116  51.498  75.7630  0.00  0.00     0.000 C
ATOM     28  O5  GU1 D   2      41.296  52.329  76.9070  0.00  0.00     0.000 O
ATOM     29   O  GU1 D   2      44.291  50.732  78.3240  0.00  0.00     0.000 O
ATOM     30   C  GU1 D   2      44.430  50.862  79.7310  0.00  0.00     0.000 C
ATOM     31   C  GU1 D   2      44.127  47.916  76.9820  0.00  0.00     0.000 C
ATOM     32   O  GU1 D   2      42.880  48.550  77.2550  0.00  0.00     0.000 O
BRANCH 27 33
ATOM     33   C  GU1 D   2      39.706  51.701  75.2610  0.00  0.00     0.000 C
ATOM     34   O  GU1 D   2      38.790  51.588  76.0500  0.00  0.00     0.000 OA
ATOM     35   O  GU1 D   2      39.497  51.977  74.0900  0.00  0.00     0.000 O
ENDBRANCH 27 33
BRANCH 23 36
ATOM     36  O4  GU6 D   3      42.510  53.334  78.3260  0.00  0.00     0.000 O
BRANCH 36 40
ATOM     37  C1  GU6 D   3      41.060  56.155  80.9010  0.00  0.00     0.000 C
ATOM     38  C2  GU6 D   3      42.408  56.512  80.2880  0.00  0.00     0.000 C
ATOM     39  C3  GU6 D   3      42.721  55.558  79.1660  0.00  0.00     0.000 C
ATOM     40  C4  GU6 D   3      41.854  54.384  79.0080  0.00  0.00     0.000 C
ATOM     41  C5  GU6 D   3      41.451  53.839  80.4170  0.00  0.00     0.000 C
ATOM     42  O5  GU6 D   3      41.127  54.828  81.4010  0.00  0.00     0.000 O
BRANCH 38 43
ATOM     43   O  GU6 D   3      42.398  57.841  79.8040  0.00  0.00     0.000 O
ATOM     44   S  GU6 D   3      43.507  58.723  80.3620  0.00  0.00     0.000 S
ATOM     45   O  GU6 D   3      43.093  59.212  81.6890  0.00  0.00     0.000 OA
ATOM     46   O  GU6 D   3      44.730  57.912  80.4980  0.00  0.00     0.000 O
ATOM     47   O  GU6 D   3      43.740  59.828  79.4380  0.00  0.00     0.000 OA
ENDBRANCH 38 43
BRANCH 39 48
ATOM     48   O  GU6 D   3      43.661  55.897  78.1650  0.00  0.00     0.000 O
ATOM     49   S  GU6 D   3      43.440  56.461  76.7620  0.00  0.00     0.000 S
ATOM     50   O  GU6 D   3      42.652  57.697  76.8320  0.00  0.00     0.000 OA
ATOM     51   O  GU6 D   3      44.806  56.729  76.2910  0.00  0.00     0.000 OA
ATOM     52   O  GU6 D   3      42.728  55.453  75.9460  0.00  0.00     0.000 O
ENDBRANCH 39 48
BRANCH 41 53
ATOM     53   C  GU6 D   3      41.341  52.413  80.8850  0.00  0.00     0.000 C
ATOM     54   O  GU6 D   3      40.267  52.026  80.0670  0.00  0.00     0.000 O
ATOM     55   S  GU6 D   3      39.639  50.634  80.2130  0.00  0.00     0.000 S
ATOM     56   O  GU6 D   3      39.001  50.592  81.5500  0.00  0.00     0.000 O
ATOM     57   O  GU6 D   3      38.636  50.459  79.1530  0.00  0.00     0.000 OA
ATOM     58   O  GU6 D   3      40.735  49.645  80.1150  0.00  0.00     0.000 OA
ENDBRANCH 41 53
BRANCH 37 59
ATOM     59  O4  Z9K D   4      39.784  56.302  80.2420  0.00  0.00     0.000 O
BRANCH 59 63
ATOM     60  C1  Z9K D   4      36.577  58.153  78.9250  0.00  0.00     0.000 C
ATOM     61  C2  Z9K D   4      37.172  59.224  79.8800  0.00  0.00     0.000 C
ATOM     62  C3  Z9K D   4      38.559  58.548  80.2650  0.00  0.00     0.000 C
ATOM     63  C4  Z9K D   4      38.586  57.020  80.6550  0.00  0.00     0.000 C
ATOM     64  C5  Z9K D   4      37.463  56.154  80.0650  0.00  0.00     0.000 C
ATOM     65  O5  Z9K D   4      37.202  56.791  78.7870  0.00  0.00     0.000 O
ATOM     66   O  Z9K D   4      39.238  59.216  81.3430  0.00  0.00     0.000 O
ATOM     67   C  Z9K D   4      40.042  60.312  80.9390  0.00  0.00     0.000 C
BRANCH 61 68
ATOM     68   O  Z9K D   4      37.485  60.344  79.0970  0.00  0.00     0.000 O
ATOM     69   O  Z9K D   4      36.747  61.034  81.4480  0.00  0.00     0.000 OA
ATOM     70   S  Z9K D   4      36.339  60.931  80.0790  0.00  0.00     0.000 S
ATOM     71   O  Z9K D   4      35.059  60.487  79.6190  0.00  0.00     0.000 OA
ATOM     72   O  Z9K D   4      36.733  62.088  79.3410  0.00  0.00     0.000 OA
ENDBRANCH 61 68
BRANCH 64 73
ATOM     73   C  Z9K D   4      37.855  54.661  80.0830  0.00  0.00     0.000 C
ATOM     74   O  Z9K D   4      37.903  54.009  81.1670  0.00  0.00     0.000 O
ATOM     75   O  Z9K D   4      38.132  54.037  79.0300  0.00  0.00     0.000 OA
ENDBRANCH 64 73
BRANCH 60 76
ATOM     76  O4  Z9L D   5      35.226  57.665  78.8590  0.00  0.00     0.000 O
BRANCH 76 80
ATOM     77  C1  Z9L D   5      32.283  56.580  76.3820  0.00  0.00     0.000 C
ATOM     78  C2  Z9L D   5      32.714  55.271  77.2020  0.00  0.00     0.000 C
ATOM     79  C3  Z9L D   5      33.603  55.805  78.5380  0.00  0.00     0.000 C
ATOM     80  C4  Z9L D   5      34.537  56.974  77.8490  0.00  0.00     0.000 C
ATOM     81  C5  Z9L D   5      34.154  58.167  76.8330  0.00  0.00     0.000 C
ATOM     82  O5  Z9L D   5      33.232  57.609  75.8840  0.00  0.00     0.000 O
ATOM     83   C  Z9L D   5      30.714  58.430  76.4750  0.00  0.00     0.000 C
ATOM     84   C  Z9L D   5      30.714  58.430  76.4750  0.00  0.00     0.000 C
BRANCH 78 85
ATOM     85   O  Z9L D   5      31.556  54.640  77.6470  0.00  0.00     0.000 O
ATOM     86   O  Z9L D   5      30.907  52.941  77.0130  0.00  0.00     0.000 OA
ATOM     87   S  Z9L D   5      32.159  53.533  76.6510  0.00  0.00     0.000 S
ATOM     88   O  Z9L D   5      33.161  52.690  77.2560  0.00  0.00     0.000 OA
ATOM     89   O  Z9L D   5      32.054  53.809  75.2590  0.00  0.00     0.000 OA
ENDBRANCH 78 85
BRANCH 79 90
ATOM     90   O  Z9L D   5      34.545  54.859  78.9310  0.00  0.00     0.000 O
ATOM     91   S  Z9L D   5      33.717  54.990  80.2850  0.00  0.00     0.000 S
ATOM     92   O  Z9L D   5      32.295  54.774  80.3430  0.00  0.00     0.000 OA
ATOM     93   O  Z9L D   5      34.355  55.957  81.1430  0.00  0.00     0.000 O
ATOM     94   O  Z9L D   5      34.346  53.732  80.5270  0.00  0.00     0.000 OA
ENDBRANCH 79 90
BRANCH 81 95
ATOM     95   C  Z9L D   5      35.408  59.123  76.2620  0.00  0.00     0.000 C
ATOM     96   S  Z9L D   5      36.688  59.400  74.7610  0.00  0.00     0.000 S
ATOM     97   O  Z9L D   5      36.054  58.152  75.4830  0.00  0.00     0.000 O
ATOM     98   O  Z9L D   5      37.648  59.963  75.6750  0.00  0.00     0.000 OA
ATOM     99   O  Z9L D   5      35.780  60.225  74.0380  0.00  0.00     0.000 OA
ATOM    100   O  Z9L D   5      37.336  58.357  74.0050  0.00  0.00     0.000 O
ENDBRANCH 81 95
ENDBRANCH 76 80
ENDBRANCH 60 76
ENDBRANCH 59 63
ENDBRANCH 37 59
ENDBRANCH 36 40
ENDBRANCH 23 36
ENDBRANCH 22 26
ENDBRANCH 1 22
TORSDOF 19
ENDMDL
MODEL 92
REMARK VINA RESULT:       0.0     62.761     69.337
ROOT
ATOM      1  C1  Z9H D   1      38.842  58.745 124.4160  0.00  0.00     0.000 C
ATOM      2  C2  Z9H D   1      37.332  58.905 124.1210  0.00  0.00     0.000 C
ATOM      3  C3  Z9H D   1      36.798  57.811 125.0960  0.00  0.00     0.000 C
ATOM      4  C4  Z9H D   1      37.500  56.395 124.9780  0.00  0.00     0.000 C
ATOM      5  C5  Z9H D   1      39.069  56.210 124.9280  0.00  0.00     0.000 C
ATOM      6  O5  Z9H D   1      39.484  57.446 124.2920  0.00  0.00     0.000 O
ATOM      7   O  Z9H D   1      35.379  57.671 125.0040  0.00  0.00     0.000 O
ATOM      8   C  Z9H D   1      34.625  58.363 126.0140  0.00  0.00     0.000 C
ATOM      9   O  Z9H D   1      37.020  55.629 126.0870  0.00  0.00     0.000 O
ATOM     10   C  Z9H D   1      35.957  54.717 125.7940  0.00  0.00     0.000 C
ENDROOT
BRANCH 2 11
ATOM     11   O  Z9H D   1      37.040  60.127 124.7470  0.00  0.00     0.000 O
ATOM     12   O  Z9H D   1      36.537  61.695 123.8270  0.00  0.00     0.000 OA
ATOM     13   S  Z9H D   1      36.789  60.437 123.2090  0.00  0.00     0.000 S
ATOM     14   O  Z9H D   1      35.602  59.745 122.7960  0.00  0.00     0.000 OA
ATOM     15   O  Z9H D   1      38.027  60.481 122.4650  0.00  0.00     0.000 O
ENDBRANCH 2 11
BRANCH 5 16
ATOM     16   C  Z9H D   1      39.590  54.723 124.3630  0.00  0.00     0.000 C
ATOM     17   S  Z9H D   1      40.984  53.293 124.5850  0.00  0.00     0.000 S
ATOM     18   O  Z9H D   1      40.119  54.233 125.5710  0.00  0.00     0.000 O
ATOM     19   O  Z9H D   1      41.959  53.986 123.7930  0.00  0.00     0.000 O
ATOM     20   O  Z9H D   1      40.176  52.238 124.0800  0.00  0.00     0.000 OA
ATOM     21   O  Z9H D   1      41.521  52.868 125.8450  0.00  0.00     0.000 OA
ENDBRANCH 5 16
BRANCH 1 22
ATOM     22  O4  GU1 D   2      39.248  59.115 125.7830  0.00  0.00     0.000 O
BRANCH 22 26
ATOM     23  C1  GU1 D   2      42.218  60.824 128.0710  0.00  0.00     0.000 C
ATOM     24  C2  GU1 D   2      42.039  61.439 126.6910  0.00  0.00     0.000 C
ATOM     25  C3  GU1 D   2      40.718  61.010 126.1230  0.00  0.00     0.000 C
ATOM     26  C4  GU1 D   2      40.580  59.495 126.1520  0.00  0.00     0.000 C
ATOM     27  C5  GU1 D   2      40.881  58.968 127.5580  0.00  0.00     0.000 C
ATOM     28  O5  GU1 D   2      42.167  59.404 127.9890  0.00  0.00     0.000 O
ATOM     29   O  GU1 D   2      42.063  62.861 126.7360  0.00  0.00     0.000 O
ATOM     30   C  GU1 D   2      43.330  63.425 126.4280  0.00  0.00     0.000 C
ATOM     31   C  GU1 D   2      39.846  62.610 124.5500  0.00  0.00     0.000 C
ATOM     32   O  GU1 D   2      40.646  61.449 124.7630  0.00  0.00     0.000 O
BRANCH 27 33
ATOM     33   C  GU1 D   2      40.870  57.458 127.5900  0.00  0.00     0.000 C
ATOM     34   O  GU1 D   2      41.762  56.861 127.0230  0.00  0.00     0.000 OA
ATOM     35   O  GU1 D   2      39.984  56.856 128.1770  0.00  0.00     0.000 O
ENDBRANCH 27 33
BRANCH 23 36
ATOM     36  O4  GU6 D   3      43.502  60.880 128.7240  0.00  0.00     0.000 O
BRANCH 36 40
ATOM     37  C1  GU6 D   3      47.229  60.005 130.1500  0.00  0.00     0.000 C
ATOM     38  C2  GU6 D   3      46.475  61.035 130.9810  0.00  0.00     0.000 C
ATOM     39  C3  GU6 D   3      45.036  61.084 130.5410  0.00  0.00     0.000 C
ATOM     40  C4  GU6 D   3      44.672  60.357 129.3190  0.00  0.00     0.000 C
ATOM     41  C5  GU6 D   3      45.823  60.492 128.2690  0.00  0.00     0.000 C
ATOM     42  O5  GU6 D   3      47.155  60.383 128.7840  0.00  0.00     0.000 O
BRANCH 38 43
ATOM     43   O  GU6 D   3      46.548  60.715 132.3570  0.00  0.00     0.000 O
ATOM     44   S  GU6 D   3      47.097  61.832 133.2350  0.00  0.00     0.000 S
ATOM     45   O  GU6 D   3      48.568  61.809 133.1590  0.00  0.00     0.000 OA
ATOM     46   O  GU6 D   3      46.600  63.121 132.7210  0.00  0.00     0.000 O
ATOM     47   O  GU6 D   3      46.632  61.626 134.6030  0.00  0.00     0.000 OA
ENDBRANCH 38 43
BRANCH 39 48
ATOM     48   O  GU6 D   3      44.033  61.610 131.3890  0.00  0.00     0.000 O
ATOM     49   S  GU6 D   3      43.054  60.888 132.3140  0.00  0.00     0.000 S
ATOM     50   O  GU6 D   3      43.784  60.024 133.2490  0.00  0.00     0.000 OA
ATOM     51   O  GU6 D   3      42.388  61.991 133.0210  0.00  0.00     0.000 OA
ATOM     52   O  GU6 D   3      42.127  60.077 131.4930  0.00  0.00     0.000 O
ENDBRANCH 39 48
BRANCH 41 53
ATOM     53   C  GU6 D   3      45.729  60.704 126.7820  0.00  0.00     0.000 C
ATOM     54   O  GU6 D   3      45.128  59.480 126.4510  0.00  0.00     0.000 O
ATOM     55   S  GU6 D   3      44.892  59.099 124.9840  0.00  0.00     0.000 S
ATOM     56   O  GU6 D   3      46.228  58.930 124.3660  0.00  0.00     0.000 O
ATOM     57   O  GU6 D   3      44.136  57.839 124.9420  0.00  0.00     0.000 OA
ATOM     58   O  GU6 D   3      44.152  60.216 124.3540  0.00  0.00     0.000 OA
ENDBRANCH 41 53
BRANCH 37 59
ATOM     59  O4  Z9K D   4      47.022  58.578 130.2120  0.00  0.00     0.000 O
BRANCH 59 63
ATOM     60  C1  Z9K D   4      47.365  54.924 131.6180  0.00  0.00     0.000 C
ATOM     61  C2  Z9K D   4      48.468  55.662 132.4260  0.00  0.00     0.000 C
ATOM     62  C3  Z9K D   4      48.203  57.168 131.9910  0.00  0.00     0.000 C
ATOM     63  C4  Z9K D   4      47.966  57.498 130.4680  0.00  0.00     0.000 C
ATOM     64  C5  Z9K D   4      47.399  56.356 129.6110  0.00  0.00     0.000 C
ATOM     65  O5  Z9K D   4      46.569  55.627 130.5530  0.00  0.00     0.000 O
ATOM     66   O  Z9K D   4      49.242  58.072 132.4070  0.00  0.00     0.000 O
ATOM     67   C  Z9K D   4      49.092  58.570 133.7260  0.00  0.00     0.000 C
BRANCH 61 68
ATOM     68   O  Z9K D   4      48.115  55.575 133.7790  0.00  0.00     0.000 O
ATOM     69   O  Z9K D   4      50.656  55.548 133.4820  0.00  0.00     0.000 OA
ATOM     70   S  Z9K D   4      49.503  54.740 133.7400  0.00  0.00     0.000 S
ATOM     71   O  Z9K D   4      49.251  53.442 133.1940  0.00  0.00     0.000 OA
ATOM     72   O  Z9K D   4      49.182  54.740 135.1310  0.00  0.00     0.000 OA
ENDBRANCH 61 68
BRANCH 64 73
ATOM     73   C  Z9K D   4      46.752  56.906 128.3220  0.00  0.00     0.000 C
ATOM     74   O  Z9K D   4      47.457  57.373 127.3820  0.00  0.00     0.000 O
ATOM     75   O  Z9K D   4      45.507  56.905 128.1550  0.00  0.00     0.000 OA
ENDBRANCH 64 73
BRANCH 60 76
ATOM     76  O4  Z9L D   5      47.466  53.689 130.8870  0.00  0.00     0.000 O
BRANCH 76 80
ATOM     77  C1  Z9L D   5      45.599  50.260 130.0340  0.00  0.00     0.000 C
ATOM     78  C2  Z9L D   5      45.725  51.081 128.6620  0.00  0.00     0.000 C
ATOM     79  C3  Z9L D   5      46.890  52.280 128.9180  0.00  0.00     0.000 C
ATOM     80  C4  Z9L D   5      46.481  52.801 130.4260  0.00  0.00     0.000 C
ATOM     81  C5  Z9L D   5      46.124  51.976 131.7660  0.00  0.00     0.000 C
ATOM     82  O5  Z9L D   5      45.303  50.873 131.3540  0.00  0.00     0.000 O
ATOM     83   C  Z9L D   5      46.780  48.596 131.3490  0.00  0.00     0.000 C
ATOM     84   C  Z9L D   5      46.780  48.596 131.3490  0.00  0.00     0.000 C
BRANCH 78 85
ATOM     85   O  Z9L D   5      46.178  50.208 127.6770  0.00  0.00     0.000 O
ATOM     86   O  Z9L D   5      45.136  49.596 126.1760  0.00  0.00     0.000 OA
ATOM     87   S  Z9L D   5      44.719  50.588 127.1200  0.00  0.00     0.000 S
ATOM     88   O  Z9L D   5      44.685  51.822 126.3740  0.00  0.00     0.000 OA
ATOM     89   O  Z9L D   5      43.611  50.013 127.8020  0.00  0.00     0.000 OA
ENDBRANCH 78 85
BRANCH 79 90
ATOM     90   O  Z9L D   5      46.643  53.403 128.1330  0.00  0.00     0.000 O
ATOM     91   S  Z9L D   5      48.109  53.040 127.6270  0.00  0.00     0.000 S
ATOM     92   O  Z9L D   5      48.440  51.746 127.0890  0.00  0.00     0.000 OA
ATOM     93   O  Z9L D   5      49.076  53.800 128.3790  0.00  0.00     0.000 O
ATOM     94   O  Z9L D   5      47.689  53.857 126.5340  0.00  0.00     0.000 OA
ENDBRANCH 79 90
BRANCH 81 95
ATOM     95   C  Z9L D   5      45.657  52.861 133.1120  0.00  0.00     0.000 C
ATOM     96   S  Z9L D   5      44.100  53.554 134.1430  0.00  0.00     0.000 S
ATOM     97   O  Z9L D   5      44.433  53.335 132.6190  0.00  0.00     0.000 O
ATOM     98   O  Z9L D   5      44.882  54.682 134.5800  0.00  0.00     0.000 OA
ATOM     99   O  Z9L D   5      44.000  52.372 134.9310  0.00  0.00     0.000 OA
ATOM    100   O  Z9L D   5      42.868  54.045 133.5770  0.00  0.00     0.000 O
ENDBRANCH 81 95
ENDBRANCH 76 80
ENDBRANCH 60 76
ENDBRANCH 59 63
ENDBRANCH 37 59
ENDBRANCH 36 40
ENDBRANCH 23 36
ENDBRANCH 22 26
ENDBRANCH 1 22
TORSDOF 19
ENDMDL
MODEL 93
REMARK VINA RESULT:       0.0     59.396     64.818
ROOT
ATOM      1  C1  Z9H D   1      94.451  34.011  73.6260  0.00  0.00     0.000 C
ATOM      2  C2  Z9H D   1      94.002  32.855  74.5500  0.00  0.00     0.000 C
ATOM      3  C3  Z9H D   1      93.133  33.688  75.5410  0.00  0.00     0.000 C
ATOM      4  C4  Z9H D   1      93.833  34.977  76.1400  0.00  0.00     0.000 C
ATOM      5  C5  Z9H D   1      94.614  36.027  75.2540  0.00  0.00     0.000 C
ATOM      6  O5  Z9H D   1      95.106  35.186  74.1800  0.00  0.00     0.000 O
ATOM      7   O  Z9H D   1      92.607  32.874  76.5920  0.00  0.00     0.000 O
ATOM      8   C  Z9H D   1      91.251  32.433  76.4090  0.00  0.00     0.000 C
ATOM      9   O  Z9H D   1      92.804  35.692  76.8330  0.00  0.00     0.000 O
ATOM     10   C  Z9H D   1      92.768  35.503  78.2510  0.00  0.00     0.000 C
ENDROOT
BRANCH 2 11
ATOM     11   O  Z9H D   1      93.081  32.174  73.7390  0.00  0.00     0.000 O
ATOM     12   O  Z9H D   1      93.344  30.430  73.0710  0.00  0.00     0.000 OA
ATOM     13   S  Z9H D   1      94.248  31.114  73.9330  0.00  0.00     0.000 S
ATOM     14   O  Z9H D   1      94.216  30.651  75.2920  0.00  0.00     0.000 OA
ATOM     15   O  Z9H D   1      95.441  31.495  73.2130  0.00  0.00     0.000 O
ENDBRANCH 2 11
BRANCH 5 16
ATOM     16   C  Z9H D   1      95.637  37.046  76.0990  0.00  0.00     0.000 C
ATOM     17   S  Z9H D   1      96.353  38.922  76.1980  0.00  0.00     0.000 S
ATOM     18   O  Z9H D   1      94.918  38.241  75.9090  0.00  0.00     0.000 O
ATOM     19   O  Z9H D   1      97.340  38.700  75.1800  0.00  0.00     0.000 O
ATOM     20   O  Z9H D   1      96.644  38.883  77.5880  0.00  0.00     0.000 OA
ATOM     21   O  Z9H D   1      95.579  40.103  75.9460  0.00  0.00     0.000 OA
ENDBRANCH 5 16
BRANCH 1 22
ATOM     22  O4  GU1 D   2      93.366  34.647  72.8580  0.00  0.00     0.000 O
BRANCH 22 26
ATOM     23  C1  GU1 D   2      92.356  36.396  69.2670  0.00  0.00     0.000 C
ATOM     24  C2  GU1 D   2      93.356  35.254  69.1640  0.00  0.00     0.000 C
ATOM     25  C3  GU1 D   2      93.347  34.468  70.4430  0.00  0.00     0.000 C
ATOM     26  C4  GU1 D   2      93.564  35.379  71.6420  0.00  0.00     0.000 C
ATOM     27  C5  GU1 D   2      92.577  36.550  71.5960  0.00  0.00     0.000 C
ATOM     28  O5  GU1 D   2      92.689  37.247  70.3580  0.00  0.00     0.000 O
ATOM     29   O  GU1 D   2      93.043  34.368  68.0960  0.00  0.00     0.000 O
ATOM     30   C  GU1 D   2      93.764  34.631  66.9000  0.00  0.00     0.000 C
ATOM     31   C  GU1 D   2      94.009  32.179  70.1030  0.00  0.00     0.000 C
ATOM     32   O  GU1 D   2      94.413  33.514  70.3950  0.00  0.00     0.000 O
BRANCH 27 33
ATOM     33   C  GU1 D   2      92.847  37.536  72.7070  0.00  0.00     0.000 C
ATOM     34   O  GU1 D   2      93.860  38.204  72.6540  0.00  0.00     0.000 OA
ATOM     35   O  GU1 D   2      92.060  37.659  73.6330  0.00  0.00     0.000 O
ENDBRANCH 27 33
BRANCH 23 36
ATOM     36  O4  GU6 D   3      92.349  37.439  68.2730  0.00  0.00     0.000 O
BRANCH 36 40
ATOM     37  C1  GU6 D   3      92.945  40.926  66.2280  0.00  0.00     0.000 C
ATOM     38  C2  GU6 D   3      91.677  40.182  65.8260  0.00  0.00     0.000 C
ATOM     39  C3  GU6 D   3      91.409  39.074  66.8100  0.00  0.00     0.000 C
ATOM     40  C4  GU6 D   3      92.457  38.762  67.7880  0.00  0.00     0.000 C
ATOM     41  C5  GU6 D   3      93.861  38.891  67.1090  0.00  0.00     0.000 C
ATOM     42  O5  GU6 D   3      94.027  40.007  66.2270  0.00  0.00     0.000 O
BRANCH 38 43
ATOM     43   O  GU6 D   3      90.575  41.067  65.7830  0.00  0.00     0.000 O
ATOM     44   S  GU6 D   3      89.830  41.080  64.4540  0.00  0.00     0.000 S
ATOM     45   O  GU6 D   3      90.558  41.954  63.5180  0.00  0.00     0.000 OA
ATOM     46   O  GU6 D   3      89.798  39.707  63.9190  0.00  0.00     0.000 O
ATOM     47   O  GU6 D   3      88.471  41.560  64.6810  0.00  0.00     0.000 OA
ENDBRANCH 38 43
BRANCH 39 48
ATOM     48   O  GU6 D   3      90.116  38.515  66.9400  0.00  0.00     0.000 O
ATOM     49   S  GU6 D   3      89.016  38.813  67.9590  0.00  0.00     0.000 S
ATOM     50   O  GU6 D   3      88.701  40.247  67.9580  0.00  0.00     0.000 OA
ATOM     51   O  GU6 D   3      87.882  38.020  67.4670  0.00  0.00     0.000 OA
ATOM     52   O  GU6 D   3      89.481  38.398  69.3010  0.00  0.00     0.000 O
ENDBRANCH 39 48
BRANCH 41 53
ATOM     53   C  GU6 D   3      95.072  38.012  67.2640  0.00  0.00     0.000 C
ATOM     54   O  GU6 D   3      95.337  38.289  68.6150  0.00  0.00     0.000 O
ATOM     55   S  GU6 D   3      96.588  37.717  69.2960  0.00  0.00     0.000 S
ATOM     56   O  GU6 D   3      97.757  38.354  68.6460  0.00  0.00     0.000 O
ATOM     57   O  GU6 D   3      96.539  38.056  70.7250  0.00  0.00     0.000 OA
ATOM     58   O  GU6 D   3      96.583  36.255  69.0660  0.00  0.00     0.000 OA
ENDBRANCH 41 53
BRANCH 37 59
ATOM     59  O4  Z9K D   4      93.085  41.753  67.4020  0.00  0.00     0.000 O
BRANCH 59 63
ATOM     60  C1  Z9K D   4      92.744  44.975  69.6270  0.00  0.00     0.000 C
ATOM     61  C2  Z9K D   4      92.385  45.538  68.2240  0.00  0.00     0.000 C
ATOM     62  C3  Z9K D   4      92.343  44.201  67.3640  0.00  0.00     0.000 C
ATOM     63  C4  Z9K D   4      93.500  43.143  67.5330  0.00  0.00     0.000 C
ATOM     64  C5  Z9K D   4      94.223  43.145  68.8880  0.00  0.00     0.000 C
ATOM     65  O5  Z9K D   4      93.176  43.546  69.8110  0.00  0.00     0.000 O
ATOM     66   O  Z9K D   4      92.264  44.439  65.9470  0.00  0.00     0.000 O
ATOM     67   C  Z9K D   4      90.947  44.631  65.4580  0.00  0.00     0.000 C
BRANCH 61 68
ATOM     68   O  Z9K D   4      91.064  46.002  68.2930  0.00  0.00     0.000 O
ATOM     69   O  Z9K D   4      92.464  47.426  66.6920  0.00  0.00     0.000 OA
ATOM     70   S  Z9K D   4      91.885  47.368  68.0010  0.00  0.00     0.000 S
ATOM     71   O  Z9K D   4      92.509  47.805  69.2120  0.00  0.00     0.000 OA
ATOM     72   O  Z9K D   4      90.529  47.813  67.9780  0.00  0.00     0.000 OA
ENDBRANCH 61 68
BRANCH 64 73
ATOM     73   C  Z9K D   4      94.947  41.803  69.1260  0.00  0.00     0.000 C
ATOM     74   O  Z9K D   4      95.988  41.496  68.4760  0.00  0.00     0.000 O
ATOM     75   O  Z9K D   4      94.537  40.971  69.9720  0.00  0.00     0.000 OA
ENDBRANCH 64 73
BRANCH 60 76
ATOM     76  O4  Z9L D   5      93.673  45.500  70.5900  0.00  0.00     0.000 O
BRANCH 76 80
ATOM     77  C1  Z9L D   5      94.271  46.195  74.4800  0.00  0.00     0.000 C
ATOM     78  C2  Z9L D   5      95.359  45.109  74.0240  0.00  0.00     0.000 C
ATOM     79  C3  Z9L D   5      95.416  45.158  72.3350  0.00  0.00     0.000 C
ATOM     80  C4  Z9L D   5      93.813  45.265  71.9680  0.00  0.00     0.000 C
ATOM     81  C5  Z9L D   5      92.651  46.199  72.5830  0.00  0.00     0.000 C
ATOM     82  O5  Z9L D   5      92.865  46.226  74.0030  0.00  0.00     0.000 O
ATOM     83   C  Z9L D   5      93.985  48.595  74.7060  0.00  0.00     0.000 C
ATOM     84   C  Z9L D   5      93.985  48.595  74.7060  0.00  0.00     0.000 C
BRANCH 78 85
ATOM     85   O  Z9L D   5      96.595  45.496  74.5340  0.00  0.00     0.000 O
ATOM     86   O  Z9L D   5      97.561  44.570  75.9200  0.00  0.00     0.000 OA
ATOM     87   S  Z9L D   5      96.353  44.108  75.3060  0.00  0.00     0.000 S
ATOM     88   O  Z9L D   5      96.740  42.945  74.5470  0.00  0.00     0.000 OA
ATOM     89   O  Z9L D   5      95.378  44.122  76.3420  0.00  0.00     0.000 OA
ENDBRANCH 78 85
BRANCH 79 90
ATOM     90   O  Z9L D   5      95.765  43.919  71.8030  0.00  0.00     0.000 O
ATOM     91   S  Z9L D   5      96.934  44.812  71.1920  0.00  0.00     0.000 S
ATOM     92   O  Z9L D   5      97.810  45.603  72.0150  0.00  0.00     0.000 OA
ATOM     93   O  Z9L D   5      96.557  45.252  69.8720  0.00  0.00     0.000 O
ATOM     94   O  Z9L D   5      97.535  43.525  71.0510  0.00  0.00     0.000 OA
ENDBRANCH 79 90
BRANCH 81 95
ATOM     95   C  Z9L D   5      91.092  45.961  72.0140  0.00  0.00     0.000 C
ATOM     96   S  Z9L D   5      89.359  45.041  72.3550  0.00  0.00     0.000 S
ATOM     97   O  Z9L D   5      90.880  44.684  72.5530  0.00  0.00     0.000 O
ATOM     98   O  Z9L D   5      89.101  44.986  70.9380  0.00  0.00     0.000 OA
ATOM     99   O  Z9L D   5      88.863  46.108  73.1570  0.00  0.00     0.000 OA
ATOM    100   O  Z9L D   5      89.203  43.714  72.8980  0.00  0.00     0.000 O
ENDBRANCH 81 95
ENDBRANCH 76 80
ENDBRANCH 60 76
ENDBRANCH 59 63
ENDBRANCH 37 59
ENDBRANCH 36 40
ENDBRANCH 23 36
ENDBRANCH 22 26
ENDBRANCH 1 22
TORSDOF 19
ENDMDL
MODEL 94
REMARK VINA RESULT:       0.0    123.068    128.974
ROOT
ATOM      1  C1  Z9H D   1     132.448 143.526  33.2880  0.00  0.00     0.000 C
ATOM      2  C2  Z9H D   1     133.867 142.979  33.5720  0.00  0.00     0.000 C
ATOM      3  C3  Z9H D   1     133.574 141.466  33.3340  0.00  0.00     0.000 C
ATOM      4  C4  Z9H D   1     132.315 140.889  34.1040  0.00  0.00     0.000 C
ATOM      5  C5  Z9H D   1     130.909 141.611  34.1260  0.00  0.00     0.000 C
ATOM      6  O5  Z9H D   1     131.299 143.002  34.0100  0.00  0.00     0.000 O
ATOM      7   O  Z9H D   1     134.725 140.660  33.5890  0.00  0.00     0.000 O
ATOM      8   C  Z9H D   1     135.481 140.280  32.4260  0.00  0.00     0.000 C
ATOM      9   O  Z9H D   1     132.107 139.574  33.5790  0.00  0.00     0.000 O
ATOM     10   C  Z9H D   1     132.624 138.502  34.3740  0.00  0.00     0.000 C
ENDROOT
BRANCH 2 11
ATOM     11   O  Z9H D   1     134.574 143.398  32.4340  0.00  0.00     0.000 O
ATOM     12   O  Z9H D   1     135.964 144.673  32.4600  0.00  0.00     0.000 OA
ATOM     13   S  Z9H D   1     135.271 144.204  33.6130  0.00  0.00     0.000 S
ATOM     14   O  Z9H D   1     136.027 143.278  34.4070  0.00  0.00     0.000 OA
ATOM     15   O  Z9H D   1     134.407 145.237  34.1360  0.00  0.00     0.000 O
ENDBRANCH 2 11
BRANCH 5 16
ATOM     16   C  Z9H D   1     129.866 141.096  35.3290  0.00  0.00     0.000 C
ATOM     17   S  Z9H D   1     127.941 140.716  35.7650  0.00  0.00     0.000 S
ATOM     18   O  Z9H D   1     128.917 140.464  34.5040  0.00  0.00     0.000 O
ATOM     19   O  Z9H D   1     127.627 142.092  36.0190  0.00  0.00     0.000 O
ATOM     20   O  Z9H D   1     128.219 139.776  36.7950  0.00  0.00     0.000 OA
ATOM     21   O  Z9H D   1     127.006 140.110  34.8620  0.00  0.00     0.000 OA
ENDBRANCH 5 16
BRANCH 1 22
ATOM     22  O4  GU1 D   2     131.988 143.364  31.8980  0.00  0.00     0.000 O
BRANCH 22 26
ATOM     23  C1  GU1 D   2     129.814 145.077  28.8470  0.00  0.00     0.000 C
ATOM     24  C2  GU1 D   2     130.565 146.063  29.7280  0.00  0.00     0.000 C
ATOM     25  C3  GU1 D   2     131.596 145.325  30.5330  0.00  0.00     0.000 C
ATOM     26  C4  GU1 D   2     130.968 144.165  31.2900  0.00  0.00     0.000 C
ATOM     27  C5  GU1 D   2     130.151 143.294  30.3310  0.00  0.00     0.000 C
ATOM     28  O5  GU1 D   2     129.183 144.082  29.6440  0.00  0.00     0.000 O
ATOM     29   O  GU1 D   2     131.229 147.062  28.9640  0.00  0.00     0.000 O
ATOM     30   C  GU1 D   2     130.499 148.275  28.8460  0.00  0.00     0.000 C
ATOM     31   C  GU1 D   2     133.455 146.733  31.1290  0.00  0.00     0.000 C
ATOM     32   O  GU1 D   2     132.166 146.235  31.4790  0.00  0.00     0.000 O
BRANCH 27 33
ATOM     33   C  GU1 D   2     129.417 142.203  31.0740  0.00  0.00     0.000 C
ATOM     34   O  GU1 D   2     128.495 142.517  31.7980  0.00  0.00     0.000 OA
ATOM     35   O  GU1 D   2     129.745 141.034  30.9430  0.00  0.00     0.000 O
ENDBRANCH 27 33
BRANCH 23 36
ATOM     36  O4  GU6 D   3     128.614 145.490  28.1630  0.00  0.00     0.000 O
BRANCH 36 40
ATOM     37  C1  GU6 D   3     124.726 146.174  27.1110  0.00  0.00     0.000 C
ATOM     38  C2  GU6 D   3     125.686 146.118  25.9290  0.00  0.00     0.000 C
ATOM     39  C3  GU6 D   3     127.023 145.597  26.3880  0.00  0.00     0.000 C
ATOM     40  C4  GU6 D   3     127.240 145.460  27.8330  0.00  0.00     0.000 C
ATOM     41  C5  GU6 D   3     126.560 146.655  28.5790  0.00  0.00     0.000 C
ATOM     42  O5  GU6 D   3     125.270 147.041  28.0940  0.00  0.00     0.000 O
BRANCH 38 43
ATOM     43   O  GU6 D   3     125.169 145.286  24.9070  0.00  0.00     0.000 O
ATOM     44   S  GU6 D   3     125.060 145.958  23.5450  0.00  0.00     0.000 S
ATOM     45   O  GU6 D   3     123.821 146.755  23.5130  0.00  0.00     0.000 OA
ATOM     46   O  GU6 D   3     126.220 146.849  23.3650  0.00  0.00     0.000 O
ATOM     47   O  GU6 D   3     125.056 144.927  22.5110  0.00  0.00     0.000 OA
ENDBRANCH 38 43
BRANCH 39 48
ATOM     48   O  GU6 D   3     127.942 145.043  25.4670  0.00  0.00     0.000 O
ATOM     49   S  GU6 D   3     128.218 143.582  25.1150  0.00  0.00     0.000 S
ATOM     50   O  GU6 D   3     126.976 142.919  24.7000  0.00  0.00     0.000 OA
ATOM     51   O  GU6 D   3     129.165 143.682  23.9960  0.00  0.00     0.000 OA
ATOM     52   O  GU6 D   3     128.784 142.901  26.3000  0.00  0.00     0.000 O
ENDBRANCH 39 48
BRANCH 41 53
ATOM     53   C  GU6 D   3     127.067 147.450  29.7520  0.00  0.00     0.000 C
ATOM     54   O  GU6 D   3     127.049 146.419  30.7040  0.00  0.00     0.000 O
ATOM     55   S  GU6 D   3     127.382 146.710  32.1740  0.00  0.00     0.000 S
ATOM     56   O  GU6 D   3     126.304 147.585  32.6900  0.00  0.00     0.000 O
ATOM     57   O  GU6 D   3     127.415 145.437  32.9080  0.00  0.00     0.000 OA
ATOM     58   O  GU6 D   3     128.689 147.404  32.1990  0.00  0.00     0.000 OA
ENDBRANCH 41 53
BRANCH 37 59
ATOM     59  O4  Z9K D   4     124.192 145.024  27.8000  0.00  0.00     0.000 O
BRANCH 59 63
ATOM     60  C1  Z9K D   4     121.815 141.959  28.4320  0.00  0.00     0.000 C
ATOM     61  C2  Z9K D   4     121.067 142.688  27.2820  0.00  0.00     0.000 C
ATOM     62  C3  Z9K D   4     122.120 143.818  26.9060  0.00  0.00     0.000 C
ATOM     63  C4  Z9K D   4     122.811 144.638  28.0620  0.00  0.00     0.000 C
ATOM     64  C5  Z9K D   4     122.920 143.929  29.4200  0.00  0.00     0.000 C
ATOM     65  O5  Z9K D   4     123.062 142.534  29.0450  0.00  0.00     0.000 O
ATOM     66   O  Z9K D   4     121.591 144.814  26.0120  0.00  0.00     0.000 O
ATOM     67   C  Z9K D   4     121.675 144.471  24.6390  0.00  0.00     0.000 C
BRANCH 61 68
ATOM     68   O  Z9K D   4     121.029 141.807  26.1930  0.00  0.00     0.000 O
ATOM     69   O  Z9K D   4     118.932 143.271  26.2730  0.00  0.00     0.000 OA
ATOM     70   S  Z9K D   4     119.457 141.967  26.5480  0.00  0.00     0.000 S
ATOM     71   O  Z9K D   4     119.155 141.170  27.6970  0.00  0.00     0.000 OA
ATOM     72   O  Z9K D   4     119.426 141.148  25.3800  0.00  0.00     0.000 OA
ENDBRANCH 61 68
BRANCH 64 73
ATOM     73   C  Z9K D   4     124.015 144.579  30.2930  0.00  0.00     0.000 C
ATOM     74   O  Z9K D   4     123.850 145.723  30.8080  0.00  0.00     0.000 O
ATOM     75   O  Z9K D   4     125.103 143.999  30.5290  0.00  0.00     0.000 OA
ENDBRANCH 64 73
BRANCH 60 76
ATOM     76  O4  Z9L D   5     121.286 141.479  29.6800  0.00  0.00     0.000 O
BRANCH 76 80
ATOM     77  C1  Z9L D   5     121.377 138.460  32.2980  0.00  0.00     0.000 C
ATOM     78  C2  Z9L D   5     121.968 139.749  33.0470  0.00  0.00     0.000 C
ATOM     79  C3  Z9L D   5     121.512 141.095  32.1300  0.00  0.00     0.000 C
ATOM     80  C4  Z9L D   5     121.785 140.543  30.6010  0.00  0.00     0.000 C
ATOM     81  C5  Z9L D   5     121.395 139.145  29.9000  0.00  0.00     0.000 C
ATOM     82  O5  Z9L D   5     121.640 138.121  30.8760  0.00  0.00     0.000 O
ATOM     83   C  Z9L D   5     119.282 137.291  31.9310  0.00  0.00     0.000 C
ATOM     84   C  Z9L D   5     119.282 137.291  31.9310  0.00  0.00     0.000 C
BRANCH 78 85
ATOM     85   O  Z9L D   5     121.374 139.830  34.3020  0.00  0.00     0.000 O
ATOM     86   O  Z9L D   5     122.281 139.547  35.9780  0.00  0.00     0.000 OA
ATOM     87   S  Z9L D   5     122.913 139.589  34.6940  0.00  0.00     0.000 S
ATOM     88   O  Z9L D   5     123.706 140.793  34.7070  0.00  0.00     0.000 OA
ATOM     89   O  Z9L D   5     123.422 138.277  34.4840  0.00  0.00     0.000 OA
ENDBRANCH 78 85
BRANCH 79 90
ATOM     90   O  Z9L D   5     122.439 142.127  32.2490  0.00  0.00     0.000 O
ATOM     91   S  Z9L D   5     121.132 142.882  32.7590  0.00  0.00     0.000 S
ATOM     92   O  Z9L D   5     120.338 142.391  33.8540  0.00  0.00     0.000 OA
ATOM     93   O  Z9L D   5     120.522 143.580  31.6540  0.00  0.00     0.000 O
ATOM     94   O  Z9L D   5     122.123 143.749  33.3100  0.00  0.00     0.000 OA
ENDBRANCH 79 90
BRANCH 81 95
ATOM     95   C  Z9L D   5     121.929 138.896  28.3300  0.00  0.00     0.000 C
ATOM     96   S  Z9L D   5     123.360 138.083  27.2080  0.00  0.00     0.000 S
ATOM     97   O  Z9L D   5     123.302 138.815  28.6010  0.00  0.00     0.000 O
ATOM     98   O  Z9L D   5     123.154 139.092  26.2010  0.00  0.00     0.000 OA
ATOM     99   O  Z9L D   5     122.697 136.824  27.1420  0.00  0.00     0.000 OA
ATOM    100   O  Z9L D   5     124.764 138.044  27.5340  0.00  0.00     0.000 O
ENDBRANCH 81 95
ENDBRANCH 76 80
ENDBRANCH 60 76
ENDBRANCH 59 63
ENDBRANCH 37 59
ENDBRANCH 36 40
ENDBRANCH 23 36
ENDBRANCH 22 26
ENDBRANCH 1 22
TORSDOF 19
ENDMDL
MODEL 95
REMARK VINA RESULT:       0.0    128.531    134.439
ROOT
ATOM      1  C1  Z9H D   1     137.565 140.284  31.7730  0.00  0.00     0.000 C
ATOM      2  C2  Z9H D   1     138.526 139.112  31.4580  0.00  0.00     0.000 C
ATOM      3  C3  Z9H D   1     139.263 139.054  32.8310  0.00  0.00     0.000 C
ATOM      4  C4  Z9H D   1     139.822 140.439  33.3620  0.00  0.00     0.000 C
ATOM      5  C5  Z9H D   1     138.965 141.767  33.3800  0.00  0.00     0.000 C
ATOM      6  O5  Z9H D   1     138.086 141.557  32.2460  0.00  0.00     0.000 O
ATOM      7   O  Z9H D   1     140.297 138.068  32.8330  0.00  0.00     0.000 O
ATOM      8   C  Z9H D   1     139.944 136.807  33.4270  0.00  0.00     0.000 C
ATOM      9   O  Z9H D   1     140.252 140.196  34.7050  0.00  0.00     0.000 O
ATOM     10   C  Z9H D   1     141.657 139.983  34.8740  0.00  0.00     0.000 C
ENDROOT
BRANCH 2 11
ATOM     11   O  Z9H D   1     137.656 138.011  31.4630  0.00  0.00     0.000 O
ATOM     12   O  Z9H D   1     137.226 136.994  29.9340  0.00  0.00     0.000 OA
ATOM     13   S  Z9H D   1     138.144 138.083  29.9530  0.00  0.00     0.000 S
ATOM     14   O  Z9H D   1     139.521 137.682  29.9040  0.00  0.00     0.000 OA
ATOM     15   O  Z9H D   1     137.586 139.224  29.2650  0.00  0.00     0.000 O
ENDBRANCH 2 11
BRANCH 5 16
ATOM     16   C  Z9H D   1     139.848 143.178  33.5470  0.00  0.00     0.000 C
ATOM     17   S  Z9H D   1     139.864 145.000  34.3980  0.00  0.00     0.000 S
ATOM     18   O  Z9H D   1     139.433 143.511  34.8500  0.00  0.00     0.000 O
ATOM     19   O  Z9H D   1     139.035 145.585  33.3840  0.00  0.00     0.000 O
ATOM     20   O  Z9H D   1     141.279 145.127  34.4170  0.00  0.00     0.000 OA
ATOM     21   O  Z9H D   1     139.382 145.286  35.7170  0.00  0.00     0.000 OA
ENDBRANCH 5 16
BRANCH 1 22
ATOM     22  O4  GU1 D   2     136.564 140.000  32.8160  0.00  0.00     0.000 O
BRANCH 22 26
ATOM     23  C1  GU1 D   2     132.688 140.670  34.0390  0.00  0.00     0.000 C
ATOM     24  C2  GU1 D   2     132.875 140.566  32.5330  0.00  0.00     0.000 C
ATOM     25  C3  GU1 D   2     134.213 139.953  32.2390  0.00  0.00     0.000 C
ATOM     26  C4  GU1 D   2     135.325 140.705  32.9540  0.00  0.00     0.000 C
ATOM     27  C5  GU1 D   2     134.991 140.845  34.4430  0.00  0.00     0.000 C
ATOM     28  O5  GU1 D   2     133.719 141.465  34.6120  0.00  0.00     0.000 O
ATOM     29   O  GU1 D   2     131.873 139.758  31.9270  0.00  0.00     0.000 O
ATOM     30   C  GU1 D   2     130.790 140.499  31.3800  0.00  0.00     0.000 C
ATOM     31   C  GU1 D   2     134.237 138.806  30.1220  0.00  0.00     0.000 C
ATOM     32   O  GU1 D   2     134.444 140.027  30.8280  0.00  0.00     0.000 O
BRANCH 27 33
ATOM     33   C  GU1 D   2     136.017 141.691  35.1570  0.00  0.00     0.000 C
ATOM     34   O  GU1 D   2     136.762 141.150  35.9480  0.00  0.00     0.000 OA
ATOM     35   O  GU1 D   2     136.095 142.890  34.9370  0.00  0.00     0.000 O
ENDBRANCH 27 33
BRANCH 23 36
ATOM     36  O4  GU6 D   3     131.598 141.444  34.5790  0.00  0.00     0.000 O
BRANCH 36 40
ATOM     37  C1  GU6 D   3     129.313 144.418  36.1990  0.00  0.00     0.000 C
ATOM     38  C2  GU6 D   3     128.789 143.014  36.4770  0.00  0.00     0.000 C
ATOM     39  C3  GU6 D   3     129.830 142.000  36.0810  0.00  0.00     0.000 C
ATOM     40  C4  GU6 D   3     130.997 142.477  35.3320  0.00  0.00     0.000 C
ATOM     41  C5  GU6 D   3     130.551 143.585  34.3210  0.00  0.00     0.000 C
ATOM     42  O5  GU6 D   3     129.593 144.529  34.8120  0.00  0.00     0.000 O
BRANCH 38 43
ATOM     43   O  GU6 D   3     128.466 142.866  37.8460  0.00  0.00     0.000 O
ATOM     44   S  GU6 D   3     127.038 142.406  38.1090  0.00  0.00     0.000 S
ATOM     45   O  GU6 D   3     126.147 143.577  38.0330  0.00  0.00     0.000 OA
ATOM     46   O  GU6 D   3     126.657 141.433  37.0690  0.00  0.00     0.000 O
ATOM     47   O  GU6 D   3     126.981 141.779  39.4250  0.00  0.00     0.000 OA
ENDBRANCH 38 43
BRANCH 39 48
ATOM     48   O  GU6 D   3     129.802 140.687  36.6090  0.00  0.00     0.000 O
ATOM     49   S  GU6 D   3     130.583 140.082  37.7750  0.00  0.00     0.000 S
ATOM     50   O  GU6 D   3     130.371 140.875  38.9910  0.00  0.00     0.000 OA
ATOM     51   O  GU6 D   3     129.999 138.741  37.9070  0.00  0.00     0.000 OA
ATOM     52   O  GU6 D   3     132.022 140.061  37.4290  0.00  0.00     0.000 O
ENDBRANCH 39 48
BRANCH 41 53
ATOM     53   C  GU6 D   3     131.001 143.810  32.9030  0.00  0.00     0.000 C
ATOM     54   O  GU6 D   3     132.341 144.132  33.1760  0.00  0.00     0.000 O
ATOM     55   S  GU6 D   3     133.280 144.578  32.0470  0.00  0.00     0.000 S
ATOM     56   O  GU6 D   3     132.773 145.882  31.5600  0.00  0.00     0.000 O
ATOM     57   O  GU6 D   3     134.637 144.719  32.5960  0.00  0.00     0.000 OA
ATOM     58   O  GU6 D   3     133.210 143.549  30.9860  0.00  0.00     0.000 OA
ENDBRANCH 41 53
BRANCH 37 59
ATOM     59  O4  Z9K D   4     130.397 145.053  36.9090  0.00  0.00     0.000 O
BRANCH 59 63
ATOM     60  C1  Z9K D   4     132.167 147.007  39.8230  0.00  0.00     0.000 C
ATOM     61  C2  Z9K D   4     130.671 147.212  40.1890  0.00  0.00     0.000 C
ATOM     62  C3  Z9K D   4     129.968 146.270  39.1180  0.00  0.00     0.000 C
ATOM     63  C4  Z9K D   4     130.442 146.327  37.6160  0.00  0.00     0.000 C
ATOM     64  C5  Z9K D   4     131.891 146.780  37.3830  0.00  0.00     0.000 C
ATOM     65  O5  Z9K D   4     132.576 146.290  38.5660  0.00  0.00     0.000 O
ATOM     66   O  Z9K D   4     128.540 146.441  39.0610  0.00  0.00     0.000 O
ATOM     67   C  Z9K D   4     127.819 145.671  40.0090  0.00  0.00     0.000 C
BRANCH 61 68
ATOM     68   O  Z9K D   4     130.467 146.609  41.4380  0.00  0.00     0.000 O
ATOM     69   O  Z9K D   4     128.986 148.677  41.1540  0.00  0.00     0.000 OA
ATOM     70   S  Z9K D   4     130.176 148.168  41.7670  0.00  0.00     0.000 S
ATOM     71   O  Z9K D   4     131.423 148.862  41.8750  0.00  0.00     0.000 OA
ATOM     72   O  Z9K D   4     129.878 147.531  43.0090  0.00  0.00     0.000 OA
ENDBRANCH 61 68
BRANCH 64 73
ATOM     73   C  Z9K D   4     132.392 146.328  35.9950  0.00  0.00     0.000 C
ATOM     74   O  Z9K D   4     131.964 146.871  34.9350  0.00  0.00     0.000 O
ATOM     75   O  Z9K D   4     133.242 145.415  35.8640  0.00  0.00     0.000 OA
ENDBRANCH 64 73
BRANCH 60 76
ATOM     76  O4  Z9L D   5     133.210 147.994  39.7350  0.00  0.00     0.000 O
BRANCH 76 80
ATOM     77  C1  Z9L D   5     137.044 148.747  40.5750  0.00  0.00     0.000 C
ATOM     78  C2  Z9L D   5     136.901 148.762  38.9780  0.00  0.00     0.000 C
ATOM     79  C3  Z9L D   5     135.250 148.906  38.6390  0.00  0.00     0.000 C
ATOM     80  C4  Z9L D   5     134.609 147.869  39.7470  0.00  0.00     0.000 C
ATOM     81  C5  Z9L D   5     134.913 147.687  41.3210  0.00  0.00     0.000 C
ATOM     82  O5  Z9L D   5     136.336 147.798  41.4720  0.00  0.00     0.000 O
ATOM     83   C  Z9L D   5     136.952 150.238  42.4890  0.00  0.00     0.000 C
ATOM     84   C  Z9L D   5     136.952 150.238  42.4890  0.00  0.00     0.000 C
BRANCH 78 85
ATOM     85   O  Z9L D   5     137.565 149.886  38.4960  0.00  0.00     0.000 O
ATOM     86   O  Z9L D   5     139.192 149.852  37.4650  0.00  0.00     0.000 OA
ATOM     87   S  Z9L D   5     138.439 148.699  37.8550  0.00  0.00     0.000 S
ATOM     88   O  Z9L D   5     137.895 148.175  36.6260  0.00  0.00     0.000 OA
ATOM     89   O  Z9L D   5     139.286 147.983  38.7460  0.00  0.00     0.000 OA
ENDBRANCH 78 85
BRANCH 79 90
ATOM     90   O  Z9L D   5     134.925 148.296  37.4310  0.00  0.00     0.000 O
ATOM     91   S  Z9L D   5     134.428 149.778  37.1240  0.00  0.00     0.000 S
ATOM     92   O  Z9L D   5     135.297 150.920  37.2340  0.00  0.00     0.000 OA
ATOM     93   O  Z9L D   5     133.023 149.883  37.4290  0.00  0.00     0.000 O
ATOM     94   O  Z9L D   5     134.534 149.294  35.7860  0.00  0.00     0.000 OA
ENDBRANCH 79 90
BRANCH 81 95
ATOM     95   C  Z9L D   5     134.118 146.445  42.1190  0.00  0.00     0.000 C
ATOM     96   S  Z9L D   5     134.261 144.558  42.7400  0.00  0.00     0.000 S
ATOM     97   O  Z9L D   5     134.751 145.368  41.4820  0.00  0.00     0.000 O
ATOM     98   O  Z9L D   5     132.837 144.396  42.6000  0.00  0.00     0.000 OA
ATOM     99   O  Z9L D   5     134.846 144.932  43.9840  0.00  0.00     0.000 OA
ATOM    100   O  Z9L D   5     134.913 143.485  42.0300  0.00  0.00     0.000 O
ENDBRANCH 81 95
ENDBRANCH 76 80
ENDBRANCH 60 76
ENDBRANCH 59 63
ENDBRANCH 37 59
ENDBRANCH 36 40
ENDBRANCH 23 36
ENDBRANCH 22 26
ENDBRANCH 1 22
TORSDOF 19
ENDMDL
MODEL 96
REMARK VINA RESULT:       0.0    121.789    127.997
ROOT
ATOM      1  C1  Z9H D   1     114.692 120.362 133.4240  0.00  0.00     0.000 C
ATOM      2  C2  Z9H D   1     113.546 119.324 133.4740  0.00  0.00     0.000 C
ATOM      3  C3  Z9H D   1     112.672 119.901 132.3180  0.00  0.00     0.000 C
ATOM      4  C4  Z9H D   1     112.363 121.452 132.4100  0.00  0.00     0.000 C
ATOM      5  C5  Z9H D   1     113.472 122.539 132.7060  0.00  0.00     0.000 C
ATOM      6  O5  Z9H D   1     114.402 121.784 133.5230  0.00  0.00     0.000 O
ATOM      7   O  Z9H D   1     111.461 119.161 132.1540  0.00  0.00     0.000 O
ATOM      8   C  Z9H D   1     111.477 118.178 131.1060  0.00  0.00     0.000 C
ATOM      9   O  Z9H D   1     111.751 121.801 131.1640  0.00  0.00     0.000 O
ATOM     10   C  Z9H D   1     110.323 121.889 131.1800  0.00  0.00     0.000 C
ENDROOT
BRANCH 2 11
ATOM     11   O  Z9H D   1     114.161 118.184 132.9330  0.00  0.00     0.000 O
ATOM     12   O  Z9H D   1     114.527 116.613 133.9110  0.00  0.00     0.000 OA
ATOM     13   S  Z9H D   1     113.861 117.758 134.4340  0.00  0.00     0.000 S
ATOM     14   O  Z9H D   1     112.444 117.588 134.5800  0.00  0.00     0.000 OA
ATOM     15   O  Z9H D   1     114.716 118.455 135.3680  0.00  0.00     0.000 O
ENDBRANCH 2 11
BRANCH 5 16
ATOM     16   C  Z9H D   1     112.891 124.029 133.1990  0.00  0.00     0.000 C
ATOM     17   S  Z9H D   1     113.169 126.014 133.0570  0.00  0.00     0.000 S
ATOM     18   O  Z9H D   1     113.231 124.759 132.0450  0.00  0.00     0.000 O
ATOM     19   O  Z9H D   1     114.202 126.037 134.0530  0.00  0.00     0.000 O
ATOM     20   O  Z9H D   1     111.817 126.360 133.3280  0.00  0.00     0.000 OA
ATOM     21   O  Z9H D   1     113.564 126.698 131.8600  0.00  0.00     0.000 OA
ENDBRANCH 5 16
BRANCH 1 22
ATOM     22  O4  GU1 D   2     115.495 120.338 132.1890  0.00  0.00     0.000 O
BRANCH 22 26
ATOM     23  C1  GU1 D   2     119.275 120.803 130.6180  0.00  0.00     0.000 C
ATOM     24  C2  GU1 D   2     119.230 120.172 132.0010  0.00  0.00     0.000 C
ATOM     25  C3  GU1 D   2     117.832 119.710 132.2920  0.00  0.00     0.000 C
ATOM     26  C4  GU1 D   2     116.833 120.841 132.0910  0.00  0.00     0.000 C
ATOM     27  C5  GU1 D   2     117.031 121.475 130.7110  0.00  0.00     0.000 C
ATOM     28  O5  GU1 D   2     118.379 121.907 130.5490  0.00  0.00     0.000 O
ATOM     29   O  GU1 D   2     120.099 119.049 132.1010  0.00  0.00     0.000 O
ATOM     30   C  GU1 D   2     121.364 119.350 132.6730  0.00  0.00     0.000 C
ATOM     31   C  GU1 D   2     117.790 117.871 133.8440  0.00  0.00     0.000 C
ATOM     32   O  GU1 D   2     117.771 119.284 133.6570  0.00  0.00     0.000 O
BRANCH 27 33
ATOM     33   C  GU1 D   2     116.135 122.678 130.5290  0.00  0.00     0.000 C
ATOM     34   O  GU1 D   2     115.215 122.598 129.7410  0.00  0.00     0.000 OA
ATOM     35   O  GU1 D   2     116.334 123.702 131.1640  0.00  0.00     0.000 O
ENDBRANCH 27 33
BRANCH 23 36
ATOM     36  O4  GU6 D   3     120.440 121.542 130.2000  0.00  0.00     0.000 O
BRANCH 36 40
ATOM     37  C1  GU6 D   3     123.115 124.510 129.3480  0.00  0.00     0.000 C
ATOM     38  C2  GU6 D   3     123.301 123.251 128.5100  0.00  0.00     0.000 C
ATOM     39  C3  GU6 D   3     122.118 122.339 128.7020  0.00  0.00     0.000 C
ATOM     40  C4  GU6 D   3     121.162 122.676 129.7630  0.00  0.00     0.000 C
ATOM     41  C5  GU6 D   3     121.934 123.238 131.0020  0.00  0.00     0.000 C
ATOM     42  O5  GU6 D   3     123.012 124.135 130.7130  0.00  0.00     0.000 O
BRANCH 38 43
ATOM     43   O  GU6 D   3     123.440 123.580 127.1420  0.00  0.00     0.000 O
ATOM     44   S  GU6 D   3     124.704 123.036 126.4890  0.00  0.00     0.000 S
ATOM     45   O  GU6 D   3     125.823 123.937 126.8120  0.00  0.00     0.000 OA
ATOM     46   O  GU6 D   3     124.978 121.696 127.0400  0.00  0.00     0.000 O
ATOM     47   O  GU6 D   3     124.489 122.950 125.0480  0.00  0.00     0.000 OA
ENDBRANCH 38 43
BRANCH 39 48
ATOM     48   O  GU6 D   3     121.814 121.335 127.7530  0.00  0.00     0.000 O
ATOM     49   S  GU6 D   3     120.804 121.343 126.6060  0.00  0.00     0.000 S
ATOM     50   O  GU6 D   3     121.049 122.492 125.7260  0.00  0.00     0.000 OA
ATOM     51   O  GU6 D   3     121.077 120.076 125.9130  0.00  0.00     0.000 OA
ATOM     52   O  GU6 D   3     119.438 121.418 127.1690  0.00  0.00     0.000 O
ENDBRANCH 39 48
BRANCH 41 53
ATOM     53   C  GU6 D   3     121.693 122.979 132.4650  0.00  0.00     0.000 C
ATOM     54   O  GU6 D   3     120.430 123.587 132.5600  0.00  0.00     0.000 O
ATOM     55   S  GU6 D   3     119.729 123.717 133.9200  0.00  0.00     0.000 S
ATOM     56   O  GU6 D   3     120.548 124.644 134.7350  0.00  0.00     0.000 O
ATOM     57   O  GU6 D   3     118.383 124.265 133.7020  0.00  0.00     0.000 OA
ATOM     58   O  GU6 D   3     119.692 122.367 134.5250  0.00  0.00     0.000 OA
ENDBRANCH 41 53
BRANCH 37 59
ATOM     59  O4  Z9K D   4     122.121 125.528 129.1060  0.00  0.00     0.000 O
BRANCH 59 63
ATOM     60  C1  Z9K D   4     120.501 128.685 127.4150  0.00  0.00     0.000 C
ATOM     61  C2  Z9K D   4     121.960 128.774 126.8860  0.00  0.00     0.000 C
ATOM     62  C3  Z9K D   4     122.559 127.402 127.4200  0.00  0.00     0.000 C
ATOM     63  C4  Z9K D   4     122.269 126.964 128.9060  0.00  0.00     0.000 C
ATOM     64  C5  Z9K D   4     120.981 127.518 129.5340  0.00  0.00     0.000 C
ATOM     65  O5  Z9K D   4     120.086 127.621 128.3950  0.00  0.00     0.000 O
ATOM     66   O  Z9K D   4     123.988 127.313 127.2810  0.00  0.00     0.000 O
ATOM     67   C  Z9K D   4     124.426 126.852 126.0130  0.00  0.00     0.000 C
BRANCH 61 68
ATOM     68   O  Z9K D   4     121.899 128.661 125.4910  0.00  0.00     0.000 O
ATOM     69   O  Z9K D   4     123.804 130.210 126.2110  0.00  0.00     0.000 OA
ATOM     70   S  Z9K D   4     122.475 130.163 125.6800  0.00  0.00     0.000 S
ATOM     71   O  Z9K D   4     121.398 131.033 126.0420  0.00  0.00     0.000 OA
ATOM     72   O  Z9K D   4     122.499 130.001 124.2620  0.00  0.00     0.000 OA
ENDBRANCH 61 68
BRANCH 64 73
ATOM     73   C  Z9K D   4     120.547 126.662 130.7430  0.00  0.00     0.000 C
ATOM     74   O  Z9K D   4     121.189 126.693 131.8320  0.00  0.00     0.000 O
ATOM     75   O  Z9K D   4     119.542 125.911 130.6950  0.00  0.00     0.000 OA
ENDBRANCH 64 73
BRANCH 60 76
ATOM     76  O4  Z9L D   5     119.706 129.716 128.0230  0.00  0.00     0.000 O
BRANCH 76 80
ATOM     77  C1  Z9L D   5     116.050 131.323 128.1860  0.00  0.00     0.000 C
ATOM     78  C2  Z9L D   5     116.360 130.713 129.6360  0.00  0.00     0.000 C
ATOM     79  C3  Z9L D   5     118.030 130.457 129.7090  0.00  0.00     0.000 C
ATOM     80  C4  Z9L D   5     118.319 129.827 128.2140  0.00  0.00     0.000 C
ATOM     81  C5  Z9L D   5     117.819 130.302 126.7560  0.00  0.00     0.000 C
ATOM     82  O5  Z9L D   5     116.444 130.684 126.9040  0.00  0.00     0.000 O
ATOM     83   C  Z9L D   5     116.252 133.391 126.9290  0.00  0.00     0.000 C
ATOM     84   C  Z9L D   5     116.252 133.391 126.9290  0.00  0.00     0.000 C
BRANCH 78 85
ATOM     85   O  Z9L D   5     116.001 131.662 130.5890  0.00  0.00     0.000 O
ATOM     86   O  Z9L D   5     114.522 131.499 131.8120  0.00  0.00     0.000 OA
ATOM     87   S  Z9L D   5     114.969 130.474 130.9180  0.00  0.00     0.000 S
ATOM     88   O  Z9L D   5     115.517 129.448 131.7690  0.00  0.00     0.000 OA
ATOM     89   O  Z9L D   5     113.902 130.289 129.9960  0.00  0.00     0.000 OA
ENDBRANCH 78 85
BRANCH 79 90
ATOM     90   O  Z9L D   5     118.344 129.394 130.5510  0.00  0.00     0.000 O
ATOM     91   S  Z9L D   5     119.171 130.553 131.2640  0.00  0.00     0.000 S
ATOM     92   O  Z9L D   5     118.555 131.774 131.7150  0.00  0.00     0.000 OA
ATOM     93   O  Z9L D   5     120.527 130.544 130.7740  0.00  0.00     0.000 O
ATOM     94   O  Z9L D   5     119.107 129.624 132.3450  0.00  0.00     0.000 OA
ENDBRANCH 79 90
BRANCH 81 95
ATOM     95   C  Z9L D   5     118.246 129.343 125.4470  0.00  0.00     0.000 C
ATOM     96   S  Z9L D   5     117.645 127.875 124.2430  0.00  0.00     0.000 S
ATOM     97   O  Z9L D   5     117.473 128.218 125.7700  0.00  0.00     0.000 O
ATOM     98   O  Z9L D   5     119.011 127.453 124.0640  0.00  0.00     0.000 OA
ATOM     99   O  Z9L D   5     117.022 128.775 123.3320  0.00  0.00     0.000 OA
ATOM    100   O  Z9L D   5     116.862 126.729 124.6370  0.00  0.00     0.000 O
ENDBRANCH 81 95
ENDBRANCH 76 80
ENDBRANCH 60 76
ENDBRANCH 59 63
ENDBRANCH 37 59
ENDBRANCH 36 40
ENDBRANCH 23 36
ENDBRANCH 22 26
ENDBRANCH 1 22
TORSDOF 19
ENDMDL
MODEL 97
REMARK VINA RESULT:       0.0     65.335     71.682
ROOT
ATOM      1  C1  Z9H D   1      52.424  58.103 126.8010  0.00  0.00     0.000 C
ATOM      2  C2  Z9H D   1      52.184  56.582 126.9540  0.00  0.00     0.000 C
ATOM      3  C3  Z9H D   1      52.049  56.533 128.5070  0.00  0.00     0.000 C
ATOM      4  C4  Z9H D   1      53.208  57.253 129.3120  0.00  0.00     0.000 C
ATOM      5  C5  Z9H D   1      53.730  58.704 128.9630  0.00  0.00     0.000 C
ATOM      6  O5  Z9H D   1      53.499  58.756 127.5330  0.00  0.00     0.000 O
ATOM      7   O  Z9H D   1      51.874  55.195 128.9780  0.00  0.00     0.000 O
ATOM      8   C  Z9H D   1      50.516  54.812 129.2540  0.00  0.00     0.000 C
ATOM      9   O  Z9H D   1      52.777  57.277 130.6770  0.00  0.00     0.000 O
ATOM     10   C  Z9H D   1      53.328  56.257 131.5160  0.00  0.00     0.000 C
ENDROOT
BRANCH 2 11
ATOM     11   O  Z9H D   1      50.874  56.443 126.4690  0.00  0.00     0.000 O
ATOM     12   O  Z9H D   1      50.424  55.534 124.8780  0.00  0.00     0.000 OA
ATOM     13   S  Z9H D   1      51.742  55.641 125.4070  0.00  0.00     0.000 S
ATOM     14   O  Z9H D   1      52.217  54.438 126.0290  0.00  0.00     0.000 OA
ATOM     15   O  Z9H D   1      52.541  56.527 124.5920  0.00  0.00     0.000 O
ENDBRANCH 2 11
BRANCH 5 16
ATOM     16   C  Z9H D   1      55.219  59.098 129.6190  0.00  0.00     0.000 C
ATOM     17   S  Z9H D   1      56.293  60.579 130.4500  0.00  0.00     0.000 S
ATOM     18   O  Z9H D   1      54.771  60.050 130.5530  0.00  0.00     0.000 O
ATOM     19   O  Z9H D   1      56.644  61.163 129.1870  0.00  0.00     0.000 O
ATOM     20   O  Z9H D   1      57.160  59.723 131.1810  0.00  0.00     0.000 OA
ATOM     21   O  Z9H D   1      55.767  61.552 131.3620  0.00  0.00     0.000 OA
ENDBRANCH 5 16
BRANCH 1 22
ATOM     22  O4  GU1 D   2      51.283  58.951 127.1880  0.00  0.00     0.000 O
BRANCH 22 26
ATOM     23  C1  GU1 D   2      49.222  62.417 126.3440  0.00  0.00     0.000 C
ATOM     24  C2  GU1 D   2      49.791  61.699 125.1290  0.00  0.00     0.000 C
ATOM     25  C3  GU1 D   2      50.168  60.297 125.5120  0.00  0.00     0.000 C
ATOM     26  C4  GU1 D   2      51.086  60.293 126.7250  0.00  0.00     0.000 C
ATOM     27  C5  GU1 D   2      50.469  61.127 127.8520  0.00  0.00     0.000 C
ATOM     28  O5  GU1 D   2      50.180  62.445 127.3950  0.00  0.00     0.000 O
ATOM     29   O  GU1 D   2      48.852  61.631 124.0630  0.00  0.00     0.000 O
ATOM     30   C  GU1 D   2      49.014  62.652 123.0880  0.00  0.00     0.000 C
ATOM     31   C  GU1 D   2      50.082  58.793 123.6340  0.00  0.00     0.000 C
ATOM     32   O  GU1 D   2      50.861  59.700 124.4110  0.00  0.00     0.000 O
BRANCH 27 33
ATOM     33   C  GU1 D   2      51.412  61.241 129.0260  0.00  0.00     0.000 C
ATOM     34   O  GU1 D   2      51.124  60.666 130.0560  0.00  0.00     0.000 OA
ATOM     35   O  GU1 D   2      52.440  61.893 128.9360  0.00  0.00     0.000 O
ENDBRANCH 27 33
BRANCH 23 36
ATOM     36  O4  GU6 D   3      49.013  63.842 126.3060  0.00  0.00     0.000 O
BRANCH 36 40
ATOM     37  C1  GU6 D   3      49.415  67.887 126.7200  0.00  0.00     0.000 C
ATOM     38  C2  GU6 D   3      47.969  67.415 126.6300  0.00  0.00     0.000 C
ATOM     39  C3  GU6 D   3      47.919  65.915 126.7550  0.00  0.00     0.000 C
ATOM     40  C4  GU6 D   3      49.191  65.185 126.7110  0.00  0.00     0.000 C
ATOM     41  C5  GU6 D   3      50.144  65.858 125.6690  0.00  0.00     0.000 C
ATOM     42  O5  GU6 D   3      50.152  67.290 125.6640  0.00  0.00     0.000 O
BRANCH 38 43
ATOM     43   O  GU6 D   3      47.187  68.011 127.6470  0.00  0.00     0.000 O
ATOM     44   S  GU6 D   3      45.960  68.758 127.1420  0.00  0.00     0.000 S
ATOM     45   O  GU6 D   3      46.380  70.096 126.6910  0.00  0.00     0.000 OA
ATOM     46   O  GU6 D   3      45.391  68.014 126.0040  0.00  0.00     0.000 O
ATOM     47   O  GU6 D   3      44.983  68.843 128.2230  0.00  0.00     0.000 OA
ENDBRANCH 38 43
BRANCH 39 48
ATOM     48   O  GU6 D   3      46.725  65.257 127.1330  0.00  0.00     0.000 O
ATOM     49   S  GU6 D   3      46.279  64.744 128.5010  0.00  0.00     0.000 S
ATOM     50   O  GU6 D   3      46.322  65.829 129.4880  0.00  0.00     0.000 OA
ATOM     51   O  GU6 D   3      44.899  64.302 128.2580  0.00  0.00     0.000 OA
ATOM     52   O  GU6 D   3      47.179  63.645 128.9180  0.00  0.00     0.000 O
ENDBRANCH 39 48
BRANCH 41 53
ATOM     53   C  GU6 D   3      51.071  65.210 124.6760  0.00  0.00     0.000 C
ATOM     54   O  GU6 D   3      51.948  64.613 125.5950  0.00  0.00     0.000 O
ATOM     55   S  GU6 D   3      53.206  63.881 125.1080  0.00  0.00     0.000 S
ATOM     56   O  GU6 D   3      54.089  64.905 124.5030  0.00  0.00     0.000 O
ATOM     57   O  GU6 D   3      53.858  63.250 126.2640  0.00  0.00     0.000 OA
ATOM     58   O  GU6 D   3      52.773  62.889 124.0990  0.00  0.00     0.000 OA
ENDBRANCH 41 53
BRANCH 37 59
ATOM     59  O4  Z9K D   4      50.235  67.824 127.9060  0.00  0.00     0.000 O
BRANCH 59 63
ATOM     60  C1  Z9K D   4      51.638  68.928 131.4070  0.00  0.00     0.000 C
ATOM     61  C2  Z9K D   4      50.836  70.192 130.9920  0.00  0.00     0.000 C
ATOM     62  C3  Z9K D   4      50.123  69.675 129.6680  0.00  0.00     0.000 C
ATOM     63  C4  Z9K D   4      50.966  68.873 128.6050  0.00  0.00     0.000 C
ATOM     64  C5  Z9K D   4      52.190  68.118 129.1450  0.00  0.00     0.000 C
ATOM     65  O5  Z9K D   4      51.774  67.747 130.4850  0.00  0.00     0.000 O
ATOM     66   O  Z9K D   4      49.485  70.725 128.9180  0.00  0.00     0.000 O
ATOM     67   C  Z9K D   4      48.167  71.032 129.3440  0.00  0.00     0.000 C
BRANCH 61 68
ATOM     68   O  Z9K D   4      49.821  70.366 131.9430  0.00  0.00     0.000 O
ATOM     69   O  Z9K D   4      50.665  72.618 131.0650  0.00  0.00     0.000 OA
ATOM     70   S  Z9K D   4      50.718  71.698 132.1620  0.00  0.00     0.000 S
ATOM     71   O  Z9K D   4      51.889  71.353 132.9080  0.00  0.00     0.000 OA
ATOM     72   O  Z9K D   4      49.628  71.910 133.0580  0.00  0.00     0.000 OA
ENDBRANCH 61 68
BRANCH 64 73
ATOM     73   C  Z9K D   4      52.623  67.005 128.1670  0.00  0.00     0.000 C
ATOM     74   O  Z9K D   4      53.175  67.281 127.0630  0.00  0.00     0.000 O
ATOM     75   O  Z9K D   4      52.453  65.790 128.4310  0.00  0.00     0.000 OA
ENDBRANCH 64 73
BRANCH 60 76
ATOM     76  O4  Z9L D   5      52.987  68.845 131.8980  0.00  0.00     0.000 O
BRANCH 76 80
ATOM     77  C1  Z9L D   5      55.371  67.044 134.5510  0.00  0.00     0.000 C
ATOM     78  C2  Z9L D   5      55.879  66.610 133.0920  0.00  0.00     0.000 C
ATOM     79  C3  Z9L D   5      55.196  67.701 131.9960  0.00  0.00     0.000 C
ATOM     80  C4  Z9L D   5      53.663  67.826 132.5880  0.00  0.00     0.000 C
ATOM     81  C5  Z9L D   5      53.128  68.034 134.0950  0.00  0.00     0.000 C
ATOM     82  O5  Z9L D   5      53.944  67.200 134.9310  0.00  0.00     0.000 O
ATOM     83   C  Z9L D   5      55.752  68.732 136.2520  0.00  0.00     0.000 C
ATOM     84   C  Z9L D   5      55.752  68.732 136.2520  0.00  0.00     0.000 C
BRANCH 78 85
ATOM     85   O  Z9L D   5      57.264  66.738 133.0610  0.00  0.00     0.000 O
ATOM     86   O  Z9L D   5      58.510  65.273 132.9630  0.00  0.00     0.000 OA
ATOM     87   S  Z9L D   5      57.087  65.153 132.8690  0.00  0.00     0.000 S
ATOM     88   O  Z9L D   5      56.834  64.757 131.5060  0.00  0.00     0.000 OA
ATOM     89   O  Z9L D   5      56.696  64.415 134.0210  0.00  0.00     0.000 OA
ENDBRANCH 78 85
BRANCH 79 90
ATOM     90   O  Z9L D   5      54.992  67.110 130.7520  0.00  0.00     0.000 O
ATOM     91   S  Z9L D   5      55.941  68.316 130.3230  0.00  0.00     0.000 S
ATOM     92   O  Z9L D   5      57.240  68.519 130.9080  0.00  0.00     0.000 OA
ATOM     93   O  Z9L D   5      55.133  69.434 129.9050  0.00  0.00     0.000 O
ATOM     94   O  Z9L D   5      56.117  67.474 129.1840  0.00  0.00     0.000 OA
ENDBRANCH 79 90
BRANCH 81 95
ATOM     95   C  Z9L D   5      51.468  68.021 134.3300  0.00  0.00     0.000 C
ATOM     96   S  Z9L D   5      49.905  66.892 134.8280  0.00  0.00     0.000 S
ATOM     97   O  Z9L D   5      51.237  66.674 134.0170  0.00  0.00     0.000 O
ATOM     98   O  Z9L D   5      49.046  67.704 134.0050  0.00  0.00     0.000 OA
ATOM     99   O  Z9L D   5      50.062  67.153 136.2190  0.00  0.00     0.000 OA
ATOM    100   O  Z9L D   5      49.713  65.510 134.4610  0.00  0.00     0.000 O
ENDBRANCH 81 95
ENDBRANCH 76 80
ENDBRANCH 60 76
ENDBRANCH 59 63
ENDBRANCH 37 59
ENDBRANCH 36 40
ENDBRANCH 23 36
ENDBRANCH 22 26
ENDBRANCH 1 22
TORSDOF 19
ENDMDL
MODEL 98
REMARK VINA RESULT:       0.0     70.901     76.950
ROOT
ATOM      1  C1  Z9H D   1      41.750  12.224 120.2060  0.00  0.00     0.000 C
ATOM      2  C2  Z9H D   1      41.977  11.152 119.1140  0.00  0.00     0.000 C
ATOM      3  C3  Z9H D   1      40.546  10.531 119.1130  0.00  0.00     0.000 C
ATOM      4  C4  Z9H D   1      39.980  10.128 120.5370  0.00  0.00     0.000 C
ATOM      5  C5  Z9H D   1      40.041  11.084 121.7940  0.00  0.00     0.000 C
ATOM      6  O5  Z9H D   1      41.243  11.846 121.5160  0.00  0.00     0.000 O
ATOM      7   O  Z9H D   1      40.453   9.427 118.2100  0.00  0.00     0.000 O
ATOM      8   C  Z9H D   1      39.883   9.728 116.9260  0.00  0.00     0.000 C
ATOM      9   O  Z9H D   1      38.604   9.793 120.3270  0.00  0.00     0.000 O
ATOM     10   C  Z9H D   1      38.317   8.395 120.2250  0.00  0.00     0.000 C
ENDROOT
BRANCH 2 11
ATOM     11   O  Z9H D   1      42.038  11.931 117.9480  0.00  0.00     0.000 O
ATOM     12   O  Z9H D   1      43.587  12.139 116.8930  0.00  0.00     0.000 OA
ATOM     13   S  Z9H D   1      43.498  11.314 118.0500  0.00  0.00     0.000 S
ATOM     14   O  Z9H D   1      43.416   9.912 117.7580  0.00  0.00     0.000 OA
ATOM     15   O  Z9H D   1      44.248  11.894 119.1410  0.00  0.00     0.000 O
ENDBRANCH 2 11
BRANCH 5 16
ATOM     16   C  Z9H D   1      39.809  10.331 123.2700  0.00  0.00     0.000 C
ATOM     17   S  Z9H D   1      38.992  10.537 125.0950  0.00  0.00     0.000 S
ATOM     18   O  Z9H D   1      38.560  10.900 123.5820  0.00  0.00     0.000 O
ATOM     19   O  Z9H D   1      40.094  11.301 125.6060  0.00  0.00     0.000 O
ATOM     20   O  Z9H D   1      38.833   9.145 125.3300  0.00  0.00     0.000 OA
ATOM     21   O  Z9H D   1      37.733  11.172 125.3560  0.00  0.00     0.000 OA
ENDBRANCH 5 16
BRANCH 1 22
ATOM     22  O4  GU1 D   2      40.792  13.284 119.8440  0.00  0.00     0.000 O
BRANCH 22 26
ATOM     23  C1  GU1 D   2      39.906  17.291 120.2020  0.00  0.00     0.000 C
ATOM     24  C2  GU1 D   2      41.391  16.969 120.1160  0.00  0.00     0.000 C
ATOM     25  C3  GU1 D   2      41.567  15.566 119.6110  0.00  0.00     0.000 C
ATOM     26  C4  GU1 D   2      40.763  14.582 120.4490  0.00  0.00     0.000 C
ATOM     27  C5  GU1 D   2      39.310  15.052 120.5590  0.00  0.00     0.000 C
ATOM     28  O5  GU1 D   2      39.253  16.379 121.0770  0.00  0.00     0.000 O
ATOM     29   O  GU1 D   2      42.075  17.849 119.2310  0.00  0.00     0.000 O
ATOM     30   C  GU1 D   2      42.716  18.936 119.8840  0.00  0.00     0.000 C
ATOM     31   C  GU1 D   2      43.667  15.271 118.4730  0.00  0.00     0.000 C
ATOM     32   O  GU1 D   2      42.953  15.223 119.7060  0.00  0.00     0.000 O
BRANCH 27 33
ATOM     33   C  GU1 D   2      38.516  14.161 121.4840  0.00  0.00     0.000 C
ATOM     34   O  GU1 D   2      38.764  14.193 122.6720  0.00  0.00     0.000 OA
ATOM     35   O  GU1 D   2      37.643  13.429 121.0430  0.00  0.00     0.000 O
ENDBRANCH 27 33
BRANCH 23 36
ATOM     36  O4  GU6 D   3      39.465  18.481 120.8860  0.00  0.00     0.000 O
BRANCH 36 40
ATOM     37  C1  GU6 D   3      38.063  21.126 123.6660  0.00  0.00     0.000 C
ATOM     38  C2  GU6 D   3      37.818  21.556 122.2250  0.00  0.00     0.000 C
ATOM     39  C3  GU6 D   3      38.118  20.407 121.2980  0.00  0.00     0.000 C
ATOM     40  C4  GU6 D   3      38.773  19.224 121.8680  0.00  0.00     0.000 C
ATOM     41  C5  GU6 D   3      39.826  19.673 122.9350  0.00  0.00     0.000 C
ATOM     42  O5  GU6 D   3      39.423  20.742 123.7990  0.00  0.00     0.000 O
BRANCH 38 43
ATOM     43   O  GU6 D   3      36.479  21.978 122.0530  0.00  0.00     0.000 O
ATOM     44   S  GU6 D   3      36.331  23.381 121.4770  0.00  0.00     0.000 S
ATOM     45   O  GU6 D   3      36.490  24.355 122.5710  0.00  0.00     0.000 OA
ATOM     46   O  GU6 D   3      37.391  23.593 120.4750  0.00  0.00     0.000 O
ATOM     47   O  GU6 D   3      35.018  23.495 120.8500  0.00  0.00     0.000 OA
ENDBRANCH 38 43
BRANCH 39 48
ATOM     48   O  GU6 D   3      37.584  20.372 119.9890  0.00  0.00     0.000 O
ATOM     49   S  GU6 D   3      36.354  19.642 119.4510  0.00  0.00     0.000 S
ATOM     50   O  GU6 D   3      35.165  20.016 120.2250  0.00  0.00     0.000 OA
ATOM     51   O  GU6 D   3      36.259  20.125 118.0660  0.00  0.00     0.000 OA
ATOM     52   O  GU6 D   3      36.582  18.183 119.5460  0.00  0.00     0.000 O
ENDBRANCH 39 48
BRANCH 41 53
ATOM     53   C  GU6 D   3      41.204  19.126 123.1940  0.00  0.00     0.000 C
ATOM     54   O  GU6 D   3      40.823  17.847 123.6290  0.00  0.00     0.000 O
ATOM     55   S  GU6 D   3      41.874  16.858 124.1510  0.00  0.00     0.000 S
ATOM     56   O  GU6 D   3      42.414  17.430 125.4060  0.00  0.00     0.000 O
ATOM     57   O  GU6 D   3      41.216  15.568 124.4090  0.00  0.00     0.000 OA
ATOM     58   O  GU6 D   3      42.928  16.752 123.1180  0.00  0.00     0.000 OA
ENDBRANCH 41 53
BRANCH 37 59
ATOM     59  O4  Z9K D   4      37.271  20.160 124.3890  0.00  0.00     0.000 O
BRANCH 59 63
ATOM     60  C1  Z9K D   4      34.235  18.800 126.4820  0.00  0.00     0.000 C
ATOM     61  C2  Z9K D   4      33.995  20.333 126.5630  0.00  0.00     0.000 C
ATOM     62  C3  Z9K D   4      35.113  20.867 125.5670  0.00  0.00     0.000 C
ATOM     63  C4  Z9K D   4      36.571  20.277 125.6620  0.00  0.00     0.000 C
ATOM     64  C5  Z9K D   4      36.688  18.855 126.2330  0.00  0.00     0.000 C
ATOM     65  O5  Z9K D   4      35.450  18.232 125.8000  0.00  0.00     0.000 O
ATOM     66   O  Z9K D   4      35.288  22.295 125.6200  0.00  0.00     0.000 O
ATOM     67   C  Z9K D   4      34.397  23.026 124.7940  0.00  0.00     0.000 C
BRANCH 61 68
ATOM     68   O  Z9K D   4      32.763  20.590 125.9460  0.00  0.00     0.000 O
ATOM     69   O  Z9K D   4      33.186  22.214 127.8780  0.00  0.00     0.000 OA
ATOM     70   S  Z9K D   4      32.472  21.040 127.4750  0.00  0.00     0.000 S
ATOM     71   O  Z9K D   4      32.265  19.871 128.2730  0.00  0.00     0.000 OA
ATOM     72   O  Z9K D   4      31.254  21.386 126.8150  0.00  0.00     0.000 OA
ENDBRANCH 61 68
BRANCH 64 73
ATOM     73   C  Z9K D   4      38.027  18.207 125.8230  0.00  0.00     0.000 C
ATOM     74   O  Z9K D   4      39.122  18.589 126.3280  0.00  0.00     0.000 O
ATOM     75   O  Z9K D   4      38.081  17.276 124.9830  0.00  0.00     0.000 OA
ENDBRANCH 64 73
BRANCH 60 76
ATOM     76  O4  Z9L D   5      34.244  17.839 127.5510  0.00  0.00     0.000 O
BRANCH 76 80
ATOM     77  C1  Z9L D   5      33.104  14.159 128.6150  0.00  0.00     0.000 C
ATOM     78  C2  Z9L D   5      34.708  14.173 128.6180  0.00  0.00     0.000 C
ATOM     79  C3  Z9L D   5      35.179  15.798 128.6260  0.00  0.00     0.000 C
ATOM     80  C4  Z9L D   5      34.118  16.440 127.5410  0.00  0.00     0.000 C
ATOM     81  C5  Z9L D   5      32.525  16.250 127.3860  0.00  0.00     0.000 C
ATOM     82  O5  Z9L D   5      32.260  14.858 127.6130  0.00  0.00     0.000 O
ATOM     83   C  Z9L D   5      31.215  14.526 130.0950  0.00  0.00     0.000 C
ATOM     84   C  Z9L D   5      31.215  14.526 130.0950  0.00  0.00     0.000 C
BRANCH 78 85
ATOM     85   O  Z9L D   5      35.143  13.566 129.7920  0.00  0.00     0.000 O
ATOM     86   O  Z9L D   5      36.047  11.868 129.8900  0.00  0.00     0.000 OA
ATOM     87   S  Z9L D   5      35.710  12.553 128.6800  0.00  0.00     0.000 S
ATOM     88   O  Z9L D   5      36.974  12.959 128.1150  0.00  0.00     0.000 OA
ATOM     89   O  Z9L D   5      34.754  11.723 128.0330  0.00  0.00     0.000 OA
ENDBRANCH 78 85
BRANCH 79 90
ATOM     90   O  Z9L D   5      36.405  15.973 127.9910  0.00  0.00     0.000 O
ATOM     91   S  Z9L D   5      36.761  16.566 129.4250  0.00  0.00     0.000 S
ATOM     92   O  Z9L D   5      36.590  15.808 130.6360  0.00  0.00     0.000 OA
ATOM     93   O  Z9L D   5      36.569  17.995 129.4120  0.00  0.00     0.000 O
ATOM     94   O  Z9L D   5      38.083  16.314 128.9510  0.00  0.00     0.000 OA
ENDBRANCH 79 90
BRANCH 81 95
ATOM     95   C  Z9L D   5      31.784  17.002 126.0830  0.00  0.00     0.000 C
ATOM     96   S  Z9L D   5      31.139  16.757 124.2150  0.00  0.00     0.000 S
ATOM     97   O  Z9L D   5      32.360  16.234 125.0610  0.00  0.00     0.000 O
ATOM     98   O  Z9L D   5      31.392  18.147 123.9370  0.00  0.00     0.000 OA
ATOM     99   O  Z9L D   5      29.855  16.307 124.6370  0.00  0.00     0.000 OA
ATOM    100   O  Z9L D   5      31.785  15.964 123.1980  0.00  0.00     0.000 O
ENDBRANCH 81 95
ENDBRANCH 76 80
ENDBRANCH 60 76
ENDBRANCH 59 63
ENDBRANCH 37 59
ENDBRANCH 36 40
ENDBRANCH 23 36
ENDBRANCH 22 26
ENDBRANCH 1 22
TORSDOF 19
ENDMDL
MODEL 99
REMARK VINA RESULT:       0.0     63.656     68.804
ROOT
ATOM      1  C1  Z9H D   1      88.106  33.720  43.1600  0.00  0.00     0.000 C
ATOM      2  C2  Z9H D   1      87.477  33.523  44.5600  0.00  0.00     0.000 C
ATOM      3  C3  Z9H D   1      88.790  33.251  45.3570  0.00  0.00     0.000 C
ATOM      4  C4  Z9H D   1      89.745  32.149  44.7370  0.00  0.00     0.000 C
ATOM      5  C5  Z9H D   1      90.145  32.114  43.2080  0.00  0.00     0.000 C
ATOM      6  O5  Z9H D   1      88.970  32.699  42.5900  0.00  0.00     0.000 O
ATOM      7   O  Z9H D   1      88.521  32.960  46.7300  0.00  0.00     0.000 O
ATOM      8   C  Z9H D   1      88.680  34.064  47.6360  0.00  0.00     0.000 C
ATOM      9   O  Z9H D   1      90.960  32.220  45.4900  0.00  0.00     0.000 O
ATOM     10   C  Z9H D   1      91.106  31.238  46.5210  0.00  0.00     0.000 C
ENDROOT
BRANCH 2 11
ATOM     11   O  Z9H D   1      87.107  34.833  44.9020  0.00  0.00     0.000 O
ATOM     12   O  Z9H D   1      85.322  35.418  45.0810  0.00  0.00     0.000 OA
ATOM     13   S  Z9H D   1      85.713  34.081  44.7820  0.00  0.00     0.000 S
ATOM     14   O  Z9H D   1      85.590  33.179  45.8920  0.00  0.00     0.000 OA
ATOM     15   O  Z9H D   1      85.396  33.758  43.4100  0.00  0.00     0.000 O
ENDBRANCH 2 11
BRANCH 5 16
ATOM     16   C  Z9H D   1      90.775  30.659  42.6740  0.00  0.00     0.000 C
ATOM     17   S  Z9H D   1      92.162  29.822  41.4830  0.00  0.00     0.000 S
ATOM     18   O  Z9H D   1      92.106  31.080  42.4930  0.00  0.00     0.000 O
ATOM     19   O  Z9H D   1      91.369  29.966  40.2970  0.00  0.00     0.000 O
ATOM     20   O  Z9H D   1      92.255  28.609  42.2170  0.00  0.00     0.000 OA
ATOM     21   O  Z9H D   1      93.492  30.328  41.3030  0.00  0.00     0.000 OA
ENDBRANCH 5 16
BRANCH 1 22
ATOM     22  O4  GU1 D   2      88.971  34.906  43.0320  0.00  0.00     0.000 O
BRANCH 22 26
ATOM     23  C1  GU1 D   2      90.211  37.919  40.5110  0.00  0.00     0.000 C
ATOM     24  C2  GU1 D   2      88.754  37.510  40.3510  0.00  0.00     0.000 C
ATOM     25  C3  GU1 D   2      88.329  36.707  41.5470  0.00  0.00     0.000 C
ATOM     26  C4  GU1 D   2      89.281  35.545  41.7880  0.00  0.00     0.000 C
ATOM     27  C5  GU1 D   2      90.726  36.050  41.8290  0.00  0.00     0.000 C
ATOM     28  O5  GU1 D   2      91.037  36.768  40.6380  0.00  0.00     0.000 O
ATOM     29   O  GU1 D   2      87.893  38.637  40.2440  0.00  0.00     0.000 O
ATOM     30   C  GU1 D   2      87.569  38.987  38.9060  0.00  0.00     0.000 C
ATOM     31   C  GU1 D   2      85.963  36.877  41.9550  0.00  0.00     0.000 C
ATOM     32   O  GU1 D   2      87.021  36.184  41.2980  0.00  0.00     0.000 O
BRANCH 27 33
ATOM     33   C  GU1 D   2      91.703  34.904  41.9460  0.00  0.00     0.000 C
ATOM     34   O  GU1 D   2      92.308  34.765  42.9890  0.00  0.00     0.000 OA
ATOM     35   O  GU1 D   2      91.873  34.135  41.0130  0.00  0.00     0.000 O
ENDBRANCH 27 33
BRANCH 23 36
ATOM     36  O4  GU6 D   3      90.927  38.484  39.3960  0.00  0.00     0.000 O
BRANCH 36 40
ATOM     37  C1  GU6 D   3      93.306  39.019  36.1170  0.00  0.00     0.000 C
ATOM     38  C2  GU6 D   3      93.123  40.275  36.9600  0.00  0.00     0.000 C
ATOM     39  C3  GU6 D   3      92.469  39.914  38.2680  0.00  0.00     0.000 C
ATOM     40  C4  GU6 D   3      91.941  38.553  38.4130  0.00  0.00     0.000 C
ATOM     41  C5  GU6 D   3      91.305  38.092  37.0610  0.00  0.00     0.000 C
ATOM     42  O5  GU6 D   3      92.030  38.445  35.8770  0.00  0.00     0.000 O
BRANCH 38 43
ATOM     43   O  GU6 D   3      94.369  40.900  37.1990  0.00  0.00     0.000 O
ATOM     44   S  GU6 D   3      94.433  42.361  36.7720  0.00  0.00     0.000 S
ATOM     45   O  GU6 D   3      94.692  42.414  35.3230  0.00  0.00     0.000 OA
ATOM     46   O  GU6 D   3      93.133  42.992  37.0610  0.00  0.00     0.000 O
ATOM     47   O  GU6 D   3      95.491  43.025  37.5260  0.00  0.00     0.000 OA
ENDBRANCH 38 43
BRANCH 39 48
ATOM     48   O  GU6 D   3      92.568  40.770  39.3900  0.00  0.00     0.000 O
ATOM     49   S  GU6 D   3      93.517  40.714  40.5870  0.00  0.00     0.000 S
ATOM     50   O  GU6 D   3      94.911  40.698  40.1260  0.00  0.00     0.000 OA
ATOM     51   O  GU6 D   3      93.212  41.954  41.3120  0.00  0.00     0.000 OA
ATOM     52   O  GU6 D   3      93.228  39.493  41.3710  0.00  0.00     0.000 O
ENDBRANCH 39 48
BRANCH 41 53
ATOM     53   C  GU6 D   3      90.039  37.313  36.8260  0.00  0.00     0.000 C
ATOM     54   O  GU6 D   3      90.439  36.112  37.4340  0.00  0.00     0.000 O
ATOM     55   S  GU6 D   3      89.533  34.875  37.3850  0.00  0.00     0.000 S
ATOM     56   O  GU6 D   3      89.456  34.457  35.9660  0.00  0.00     0.000 O
ATOM     57   O  GU6 D   3      90.139  33.817  38.2070  0.00  0.00     0.000 OA
ATOM     58   O  GU6 D   3      88.204  35.284  37.8920  0.00  0.00     0.000 OA
ENDBRANCH 41 53
BRANCH 37 59
ATOM     59  O4  Z9K D   4      94.212  37.939  36.4260  0.00  0.00     0.000 O
BRANCH 59 63
ATOM     60  C1  Z9K D   4      97.636  36.019  36.6140  0.00  0.00     0.000 C
ATOM     61  C2  Z9K D   4      97.997  37.186  35.6520  0.00  0.00     0.000 C
ATOM     62  C3  Z9K D   4      96.670  38.058  35.7250  0.00  0.00     0.000 C
ATOM     63  C4  Z9K D   4      95.271  37.338  35.6250  0.00  0.00     0.000 C
ATOM     64  C5  Z9K D   4      95.234  35.871  36.0790  0.00  0.00     0.000 C
ATOM     65  O5  Z9K D   4      96.236  35.832  37.1290  0.00  0.00     0.000 O
ATOM     66   O  Z9K D   4      96.620  39.101  34.7360  0.00  0.00     0.000 O
ATOM     67   C  Z9K D   4      97.267  40.304  35.1190  0.00  0.00     0.000 C
BRANCH 61 68
ATOM     68   O  Z9K D   4      98.999  37.940  36.2780  0.00  0.00     0.000 O
ATOM     69   O  Z9K D   4      99.303  37.925  33.7370  0.00  0.00     0.000 OA
ATOM     70   S  Z9K D   4      99.772  37.374  34.9730  0.00  0.00     0.000 S
ATOM     71   O  Z9K D   4     100.126  36.006  35.1970  0.00  0.00     0.000 OA
ATOM     72   O  Z9K D   4     100.754  38.222  35.5680  0.00  0.00     0.000 OA
ENDBRANCH 61 68
BRANCH 64 73
ATOM     73   C  Z9K D   4      93.791  35.436  36.4140  0.00  0.00     0.000 C
ATOM     74   O  Z9K D   4      92.933  35.253  35.5020  0.00  0.00     0.000 O
ATOM     75   O  Z9K D   4      93.417  35.241  37.5960  0.00  0.00     0.000 OA
ENDBRANCH 64 73
BRANCH 60 76
ATOM     76  O4  Z9L D   5      97.885  34.613  36.4460  0.00  0.00     0.000 O
BRANCH 76 80
ATOM     77  C1  Z9L D   5      99.010  31.269  38.3220  0.00  0.00     0.000 C
ATOM     78  C2  Z9L D   5      97.491  31.056  37.8540  0.00  0.00     0.000 C
ATOM     79  C3  Z9L D   5      97.172  32.240  36.6890  0.00  0.00     0.000 C
ATOM     80  C4  Z9L D   5      97.893  33.556  37.3710  0.00  0.00     0.000 C
ATOM     81  C5  Z9L D   5      99.342  33.726  38.0580  0.00  0.00     0.000 C
ATOM     82  O5  Z9L D   5      99.556  32.546  38.8470  0.00  0.00     0.000 O
ATOM     83   C  Z9L D   5     101.285  30.896  37.5630  0.00  0.00     0.000 C
ATOM     84   C  Z9L D   5     101.285  30.896  37.5630  0.00  0.00     0.000 C
BRANCH 78 85
ATOM     85   O  Z9L D   5      97.393  29.799  37.2650  0.00  0.00     0.000 O
ATOM     86   O  Z9L D   5      96.442  28.299  38.0100  0.00  0.00     0.000 OA
ATOM     87   S  Z9L D   5      96.441  29.625  38.5480  0.00  0.00     0.000 S
ATOM     88   O  Z9L D   5      95.098  30.110  38.3450  0.00  0.00     0.000 OA
ATOM     89   O  Z9L D   5      97.091  29.518  39.8090  0.00  0.00     0.000 OA
ENDBRANCH 78 85
BRANCH 79 90
ATOM     90   O  Z9L D   5      95.827  32.600  36.6870  0.00  0.00     0.000 O
ATOM     91   S  Z9L D   5      95.976  32.115  35.1770  0.00  0.00     0.000 S
ATOM     92   O  Z9L D   5      96.452  30.801  34.8330  0.00  0.00     0.000 OA
ATOM     93   O  Z9L D   5      96.264  33.251  34.3370  0.00  0.00     0.000 O
ATOM     94   O  Z9L D   5      94.557  32.032  35.3020  0.00  0.00     0.000 OA
ENDBRANCH 79 90
BRANCH 81 95
ATOM     95   C  Z9L D   5      99.701  35.217  38.7360  0.00  0.00     0.000 C
ATOM     96   S  Z9L D   5      99.717  36.275  40.4230  0.00  0.00     0.000 S
ATOM     97   O  Z9L D   5      98.780  35.178  39.7920  0.00  0.00     0.000 O
ATOM     98   O  Z9L D   5      99.500  37.487  39.6750  0.00  0.00     0.000 OA
ATOM     99   O  Z9L D   5     101.029  35.843  40.7700  0.00  0.00     0.000 OA
ATOM    100   O  Z9L D   5      98.728  36.204  41.4710  0.00  0.00     0.000 O
ENDBRANCH 81 95
ENDBRANCH 76 80
ENDBRANCH 60 76
ENDBRANCH 59 63
ENDBRANCH 37 59
ENDBRANCH 36 40
ENDBRANCH 23 36
ENDBRANCH 22 26
ENDBRANCH 1 22
TORSDOF 19
ENDMDL
MODEL 100
REMARK VINA RESULT:       0.0     94.809    101.963
ROOT
ATOM      1  C1  Z9H D   1      93.157 140.123  22.0950  0.00  0.00     0.000 C
ATOM      2  C2  Z9H D   1      94.227 140.059  20.9790  0.00  0.00     0.000 C
ATOM      3  C3  Z9H D   1      94.488 138.522  21.0100  0.00  0.00     0.000 C
ATOM      4  C4  Z9H D   1      94.777 137.911  22.4430  0.00  0.00     0.000 C
ATOM      5  C5  Z9H D   1      93.893 138.231  23.7130  0.00  0.00     0.000 C
ATOM      6  O5  Z9H D   1      93.434 139.573  23.4130  0.00  0.00     0.000 O
ATOM      7   O  Z9H D   1      95.516 138.144  20.0920  0.00  0.00     0.000 O
ATOM      8   C  Z9H D   1      95.057 137.630  18.8300  0.00  0.00     0.000 C
ATOM      9   O  Z9H D   1      94.768 136.490  22.2690  0.00  0.00     0.000 O
ATOM     10   C  Z9H D   1      96.054 135.874  22.1520  0.00  0.00     0.000 C
ENDROOT
BRANCH 2 11
ATOM     11   O  Z9H D   1      93.458 140.276  19.8250  0.00  0.00     0.000 O
ATOM     12   O  Z9H D   1      93.591 141.810  18.7360  0.00  0.00     0.000 OA
ATOM     13   S  Z9H D   1      94.398 141.555  19.8810  0.00  0.00     0.000 S
ATOM     14   O  Z9H D   1      95.737 141.146  19.5680  0.00  0.00     0.000 OA
ATOM     15   O  Z9H D   1      94.030 142.440  20.9630  0.00  0.00     0.000 O
ENDBRANCH 2 11
BRANCH 5 16
ATOM     16   C  Z9H D   1      94.603 137.862  25.1830  0.00  0.00     0.000 C
ATOM     17   S  Z9H D   1      94.253 137.148  27.0290  0.00  0.00     0.000 S
ATOM     18   O  Z9H D   1      93.772 136.781  25.5320  0.00  0.00     0.000 O
ATOM     19   O  Z9H D   1      93.769 138.404  27.5260  0.00  0.00     0.000 O
ATOM     20   O  Z9H D   1      95.578 136.682  27.2470  0.00  0.00     0.000 OA
ATOM     21   O  Z9H D   1      93.355 136.071  27.3280  0.00  0.00     0.000 OA
ENDBRANCH 5 16
BRANCH 1 22
ATOM     22  O4  GU1 D   2      91.891 139.439  21.7800  0.00  0.00     0.000 O
BRANCH 22 26
ATOM     23  C1  GU1 D   2      87.799 139.544  22.2370  0.00  0.00     0.000 C
ATOM     24  C2  GU1 D   2      88.462 140.905  22.1000  0.00  0.00     0.000 C
ATOM     25  C3  GU1 D   2      89.854 140.729  21.5650  0.00  0.00     0.000 C
ATOM     26  C4  GU1 D   2      90.639 139.735  22.4080  0.00  0.00     0.000 C
ATOM     27  C5  GU1 D   2      89.839 138.439  22.5710  0.00  0.00     0.000 C
ATOM     28  O5  GU1 D   2      88.551 138.713  23.1140  0.00  0.00     0.000 O
ATOM     29   O  GU1 D   2      87.749 141.758  21.2120  0.00  0.00     0.000 O
ATOM     30   C  GU1 D   2      86.862 142.655  21.8650  0.00  0.00     0.000 C
ATOM     31   C  GU1 D   2      90.612 142.669  20.3590  0.00  0.00     0.000 C
ATOM     32   O  GU1 D   2      90.519 141.995  21.6120  0.00  0.00     0.000 O
BRANCH 27 33
ATOM     33   C  GU1 D   2      90.539 137.478  23.5020  0.00  0.00     0.000 C
ATOM     34   O  GU1 D   2      91.018 136.466  23.0350  0.00  0.00     0.000 OA
ATOM     35   O  GU1 D   2      90.623 137.721  24.6960  0.00  0.00     0.000 O
ENDBRANCH 27 33
BRANCH 23 36
ATOM     36  O4  GU6 D   3      86.556 139.416  22.9550  0.00  0.00     0.000 O
BRANCH 36 40
ATOM     37  C1  GU6 D   3      83.725 138.756  25.8270  0.00  0.00     0.000 C
ATOM     38  C2  GU6 D   3      83.211 138.589  24.4020  0.00  0.00     0.000 C
ATOM     39  C3  GU6 D   3      84.374 138.583  23.4440  0.00  0.00     0.000 C
ATOM     40  C4  GU6 D   3      85.693 138.946  23.9720  0.00  0.00     0.000 C
ATOM     41  C5  GU6 D   3      85.539 140.099  25.0170  0.00  0.00     0.000 C
ATOM     42  O5  GU6 D   3      84.428 139.986  25.9130  0.00  0.00     0.000 O
BRANCH 38 43
ATOM     43   O  GU6 D   3      82.475 137.388  24.2760  0.00  0.00     0.000 O
ATOM     44   S  GU6 D   3      81.062 137.569  23.7360  0.00  0.00     0.000 S
ATOM     45   O  GU6 D   3      80.186 137.981  24.8460  0.00  0.00     0.000 OA
ATOM     46   O  GU6 D   3      81.083 138.627  22.7090  0.00  0.00     0.000 O
ATOM     47   O  GU6 D   3      80.619 136.309  23.1470  0.00  0.00     0.000 OA
ENDBRANCH 38 43
BRANCH 39 48
ATOM     48   O  GU6 D   3      84.245 138.026  22.1490  0.00  0.00     0.000 O
ATOM     49   S  GU6 D   3      84.643 136.644  21.6320  0.00  0.00     0.000 S
ATOM     50   O  GU6 D   3      84.013 135.599  22.4480  0.00  0.00     0.000 OA
ATOM     51   O  GU6 D   3      84.115 136.637  20.2610  0.00  0.00     0.000 OA
ATOM     52   O  GU6 D   3      86.116 136.514  21.6920  0.00  0.00     0.000 O
ENDBRANCH 39 48
BRANCH 41 53
ATOM     53   C  GU6 D   3      86.407 141.311  25.2250  0.00  0.00     0.000 C
ATOM     54   O  GU6 D   3      87.571 140.643  25.6410  0.00  0.00     0.000 O
ATOM     55   S  GU6 D   3      88.798 141.436  26.1110  0.00  0.00     0.000 S
ATOM     56   O  GU6 D   3      88.408 142.123  27.3640  0.00  0.00     0.000 O
ATOM     57   O  GU6 D   3      89.899 140.493  26.3560  0.00  0.00     0.000 OA
ATOM     58   O  GU6 D   3      89.123 142.412  25.0470  0.00  0.00     0.000 OA
ENDBRANCH 41 53
BRANCH 37 59
ATOM     59  O4  Z9K D   4      84.491 137.771  26.5520  0.00  0.00     0.000 O
BRANCH 59 63
ATOM     60  C1  Z9K D   4      85.137 134.548  28.7050  0.00  0.00     0.000 C
ATOM     61  C2  Z9K D   4      83.594 134.685  28.8250  0.00  0.00     0.000 C
ATOM     62  C3  Z9K D   4      83.318 135.875  27.8070  0.00  0.00     0.000 C
ATOM     63  C4  Z9K D   4      84.244 137.150  27.8470  0.00  0.00     0.000 C
ATOM     64  C5  Z9K D   4      85.666 136.935  28.3850  0.00  0.00     0.000 C
ATOM     65  O5  Z9K D   4      85.962 135.573  27.9770  0.00  0.00     0.000 O
ATOM     66   O  Z9K D   4      81.976 136.390  27.8840  0.00  0.00     0.000 O
ATOM     67   C  Z9K D   4      81.031 135.682  27.0990  0.00  0.00     0.000 C
BRANCH 61 68
ATOM     68   O  Z9K D   4      83.033 133.537  28.2500  0.00  0.00     0.000 O
ATOM     69   O  Z9K D   4      81.616 134.378  30.2080  0.00  0.00     0.000 OA
ATOM     70   S  Z9K D   4      82.573 133.396  29.7960  0.00  0.00     0.000 S
ATOM     71   O  Z9K D   4      83.683 132.933  30.5720  0.00  0.00     0.000 OA
ATOM     72   O  Z9K D   4      81.927 132.282  29.1800  0.00  0.00     0.000 OA
ENDBRANCH 61 68
BRANCH 64 73
ATOM     73   C  Z9K D   4      86.606 138.068  27.9230  0.00  0.00     0.000 C
ATOM     74   O  Z9K D   4      86.511 139.235  28.4040  0.00  0.00     0.000 O
ATOM     75   O  Z9K D   4      87.500 137.877  27.0630  0.00  0.00     0.000 OA
ENDBRANCH 64 73
BRANCH 60 76
ATOM     76  O4  Z9L D   5      86.101 134.350  29.7540  0.00  0.00     0.000 O
BRANCH 76 80
ATOM     77  C1  Z9L D   5      89.431 132.390  30.7720  0.00  0.00     0.000 C
ATOM     78  C2  Z9L D   5      89.798 133.951  30.7340  0.00  0.00     0.000 C
ATOM     79  C3  Z9L D   5      88.332 134.795  30.7630  0.00  0.00     0.000 C
ATOM     80  C4  Z9L D   5      87.429 133.896  29.7190  0.00  0.00     0.000 C
ATOM     81  C5  Z9L D   5      87.232 132.299  29.6010  0.00  0.00     0.000 C
ATOM     82  O5  Z9L D   5      88.527 131.716  29.8060  0.00  0.00     0.000 O
ATOM     83   C  Z9L D   5      88.666 130.672  32.3070  0.00  0.00     0.000 C
ATOM     84   C  Z9L D   5      88.666 130.672  32.3070  0.00  0.00     0.000 C
BRANCH 78 85
ATOM     85   O  Z9L D   5      90.521 134.253  31.8840  0.00  0.00     0.000 O
ATOM     86   O  Z9L D   5      92.390 134.720  31.9260  0.00  0.00     0.000 OA
ATOM     87   S  Z9L D   5      91.613 134.532  30.7380  0.00  0.00     0.000 S
ATOM     88   O  Z9L D   5      91.511 135.843  30.1460  0.00  0.00     0.000 OA
ATOM     89   O  Z9L D   5      92.171 133.389  30.1030  0.00  0.00     0.000 OA
ENDBRANCH 78 85
BRANCH 79 90
ATOM     90   O  Z9L D   5      88.436 136.014  30.1010  0.00  0.00     0.000 O
ATOM     91   S  Z9L D   5      87.986 136.529  31.5390  0.00  0.00     0.000 S
ATOM     92   O  Z9L D   5      88.716 136.206  32.7360  0.00  0.00     0.000 OA
ATOM     93   O  Z9L D   5      86.553 136.684  31.5630  0.00  0.00     0.000 O
ATOM     94   O  Z9L D   5      88.533 137.744  31.0250  0.00  0.00     0.000 OA
ENDBRANCH 79 90
BRANCH 81 95
ATOM     95   C  Z9L D   5      86.292 131.733  28.3320  0.00  0.00     0.000 C
ATOM     96   S  Z9L D   5      86.329 131.015  26.4750  0.00  0.00     0.000 S
ATOM     97   O  Z9L D   5      87.146 132.095  27.2800  0.00  0.00     0.000 O
ATOM     98   O  Z9L D   5      85.030 131.582  26.2220  0.00  0.00     0.000 OA
ATOM     99   O  Z9L D   5      86.478 129.670  26.9160  0.00  0.00     0.000 OA
ATOM    100   O  Z9L D   5      87.224 131.440  25.4260  0.00  0.00     0.000 O
ENDBRANCH 81 95
ENDBRANCH 76 80
ENDBRANCH 60 76
ENDBRANCH 59 63
ENDBRANCH 37 59
ENDBRANCH 36 40
ENDBRANCH 23 36
ENDBRANCH 22 26
ENDBRANCH 1 22
TORSDOF 19
ENDMDL
