MODEL 1
REMARK VINA RESULT:       0.0      0.000      0.000
ROOT
ATOM      1  C1  IDS C   1      96.457 113.549  72.4650  0.00  0.00     0.000 C
ATOM      2  C2  IDS C   1      95.797 114.834  72.9320  0.00  0.00     0.000 C
ATOM      3  C3  IDS C   1      94.541 115.122  72.1190  0.00  0.00     0.000 C
ATOM      4  C4  IDS C   1      93.616 113.906  72.0800  0.00  0.00     0.000 C
ATOM      5  C5  IDS C   1      94.411 112.644  71.6870  0.00  0.00     0.000 C
ATOM      6  O5  IDS C   1      95.529 112.469  72.5510  0.00  0.00     0.000 O
ATOM      7   O  IDS C   1      94.910 115.512  70.7950  0.00  0.00     0.000 O
ATOM      9  HD  IDS C   1      94.123 115.180  70.6500  0.00  0.00     0.000 HD
ATOM      9   O  IDS C   1      93.038 113.717  73.3810  0.00  0.00     0.000 O
ATOM     11  HD  IDS C   1      92.251 113.386  73.2370  0.00  0.00     0.000 HD
ENDROOT
BRANCH 2 11
ATOM     11   O  IDS C   1      95.396 114.715  74.3520  0.00  0.00     0.000 O
ATOM     12   S  IDS C   1      96.100 115.609  75.4740  0.00  0.00     0.000 S
ATOM     13   O  IDS C   1      95.014 115.853  76.3970  0.00  0.00     0.000 OA
ATOM     14   O  IDS C   1      96.611 116.817  74.8720  0.00  0.00     0.000 OA
ATOM     15   O  IDS C   1      97.134 114.763  76.0150  0.00  0.00     0.000 OA
ENDBRANCH 2 11
BRANCH 5 16
ATOM     16   C  IDS C   1      93.583 111.373  71.7390  0.00  0.00     0.000 C
ATOM     17   O  IDS C   1      94.115 110.317  71.4720  0.00  0.00     0.000 OA
ATOM     18   O  IDS C   1      92.417 111.409  72.0240  0.00  0.00     0.000 OA
ENDBRANCH 5 16
BRANCH 1 19
ATOM     19  O4  SGN C   2      97.225 113.574  71.3710  0.00  0.00     0.000 O
BRANCH 19 23
ATOM     20  C1  SGN C   2     100.557 111.916  69.4830  0.00  0.00     0.000 C
ATOM     21  C2  SGN C   2      99.304 111.036  69.5570  0.00  0.00     0.000 C
ATOM     22  C3  SGN C   2      98.084 111.901  69.8610  0.00  0.00     0.000 C
ATOM     23  C4  SGN C   2      98.314 112.676  71.1530  0.00  0.00     0.000 C
ATOM     24  C5  SGN C   2      99.621 113.468  71.0590  0.00  0.00     0.000 C
ATOM     25  O5  SGN C   2     100.705 112.582  70.7260  0.00  0.00     0.000 O
ATOM     26   O  SGN C   2      96.913 111.097  69.9490  0.00  0.00     0.000 O
ATOM     28  HD  SGN C   2      96.243 110.549  69.9180  0.00  0.00     0.000 HD
BRANCH 21 30
ATOM     28   N  SGN C   2      99.778 110.332  68.3580  0.00  0.00     0.000 N
ATOM     30  HD  SGN C   2      99.196 110.124  67.7520  0.00  0.00     0.000 HD
ATOM     30   S  SGN C   2      99.730 108.736  68.2590  0.00  0.00     0.000 S
ATOM     31   O  SGN C   2      98.381 108.382  68.5470  0.00  0.00     0.000 OA
ATOM     32   O  SGN C   2     100.318 108.343  67.0330  0.00  0.00     0.000 OA
ATOM     33   O  SGN C   2     100.688 108.255  69.4020  0.00  0.00     0.000 OA
ENDBRANCH 21 30
BRANCH 24 34
ATOM     34   C  SGN C   2     100.010 114.153  72.3480  0.00  0.00     0.000 C
ATOM     35   O  SGN C   2      99.662 115.546  72.2600  0.00  0.00     0.000 O
ATOM     36   S  SGN C   2     100.388 116.540  73.2770  0.00  0.00     0.000 S
ATOM     37   O  SGN C   2     101.804 116.293  73.0860  0.00  0.00     0.000 OA
ATOM     38   O  SGN C   2      99.979 117.866  72.8830  0.00  0.00     0.000 OA
ATOM     39   O  SGN C   2      99.893 116.138  74.5710  0.00  0.00     0.000 OA
ENDBRANCH 24 34
BRANCH 20 40
ATOM     40  O4  IDS C   3     100.626 112.808  68.4970  0.00  0.00     0.000 O
BRANCH 40 44
ATOM     41  C1  IDS C   3     100.941 114.934  65.7030  0.00  0.00     0.000 C
ATOM     42  C2  IDS C   3     100.645 113.445  65.5440  0.00  0.00     0.000 C
ATOM     43  C3  IDS C   3     101.661 112.615  66.3250  0.00  0.00     0.000 C
ATOM     44  C4  IDS C   3     101.810 113.109  67.7560  0.00  0.00     0.000 C
ATOM     45  C5  IDS C   3     102.055 114.632  67.7630  0.00  0.00     0.000 C
ATOM     46  O5  IDS C   3     100.984 115.290  67.0820  0.00  0.00     0.000 O
ATOM     47   O  IDS C   3     102.921 112.662  65.6610  0.00  0.00     0.000 O
ATOM     49  HD  IDS C   3     102.104 112.385  65.7390  0.00  0.00     0.000 HD
BRANCH 42 49
ATOM     49   O  IDS C   3      99.289 113.138  66.0550  0.00  0.00     0.000 O
ATOM     50   S  IDS C   3      98.323 112.176  65.2130  0.00  0.00     0.000 S
ATOM     51   O  IDS C   3      98.920 110.870  65.3850  0.00  0.00     0.000 OA
ATOM     52   O  IDS C   3      98.307 112.603  63.8230  0.00  0.00     0.000 OA
ATOM     53   O  IDS C   3      97.018 112.284  65.8300  0.00  0.00     0.000 OA
ENDBRANCH 42 49
BRANCH 45 54
ATOM     54   C  IDS C   3     102.177 115.216  69.1620  0.00  0.00     0.000 C
ATOM     55   O  IDS C   3     102.995 114.771  69.9250  0.00  0.00     0.000 OA
ATOM     56   O  IDS C   3     101.438 116.117  69.5100  0.00  0.00     0.000 OA
ENDBRANCH 45 54
BRANCH 41 57
ATOM     57  O4  SGN C   4     101.956 115.222  64.8790  0.00  0.00     0.000 O
BRANCH 57 61
ATOM     58  C1  SGN C   4     103.965 118.610  63.4610  0.00  0.00     0.000 C
ATOM     59  C2  SGN C   4     104.075 118.321  64.9660  0.00  0.00     0.000 C
ATOM     60  C3  SGN C   4     103.664 116.877  65.2850  0.00  0.00     0.000 C
ATOM     61  C4  SGN C   4     102.280 116.606  64.7190  0.00  0.00     0.000 C
ATOM     62  C5  SGN C   4     102.236 116.942  63.2290  0.00  0.00     0.000 C
ATOM     63  O5  SGN C   4     102.656 118.301  63.0030  0.00  0.00     0.000 O
BRANCH 59 66
ATOM     64   N  SGN C   4     105.438 118.713  65.3410  0.00  0.00     0.000 N
ATOM     66  HD  SGN C   4     104.646 118.361  65.3330  0.00  0.00     0.000 HD
ATOM     66   O  SGN C   4     107.072 119.974  66.6340  0.00  0.00     0.000 OA
ATOM     67   O  SGN C   4     105.007 121.066  65.8660  0.00  0.00     0.000 OA
ATOM     68   S  SGN C   4     105.666 119.794  66.5040  0.00  0.00     0.000 S
ATOM     69   O  SGN C   4     104.907 119.400  67.6360  0.00  0.00     0.000 OA
ENDBRANCH 59 66
BRANCH 62 70
ATOM     70   C  SGN C   4     100.840 116.810  62.6720  0.00  0.00     0.000 C
ATOM     71   S  SGN C   4      98.378 117.347  63.1430  0.00  0.00     0.000 S
ATOM     72   O  SGN C   4      98.233 117.812  61.7770  0.00  0.00     0.000 OA
ATOM     73   O  SGN C   4      98.112 115.931  63.2990  0.00  0.00     0.000 OA
ATOM     74   O  SGN C   4      97.700 118.178  64.1110  0.00  0.00     0.000 OA
ATOM     75   O  SGN C   4      99.917 117.551  63.4790  0.00  0.00     0.000 O
ENDBRANCH 62 70
ENDBRANCH 57 61
ENDBRANCH 41 57
ENDBRANCH 40 44
ENDBRANCH 20 40
ENDBRANCH 19 23
ENDBRANCH 1 19
TORSDOF 14
ENDMDL
MODEL 2
REMARK VINA RESULT:       0.0    105.936    110.059
ROOT
ATOM      1  C1  IDS C   1      18.378  56.515 116.7190  0.00  0.00     0.000 C
ATOM      2  C2  IDS C   1      18.442  55.015 116.4930  0.00  0.00     0.000 C
ATOM      3  C3  IDS C   1      19.613  54.654 115.5870  0.00  0.00     0.000 C
ATOM      4  C4  IDS C   1      20.913  55.281 116.0890  0.00  0.00     0.000 C
ATOM      5  C5  IDS C   1      20.707  56.783 116.3740  0.00  0.00     0.000 C
ATOM      6  O5  IDS C   1      19.613  56.975 117.2650  0.00  0.00     0.000 O
ATOM      7   O  IDS C   1      19.332  55.084 114.2530  0.00  0.00     0.000 O
ATOM      9  HD  IDS C   1      20.198  55.104 114.2490  0.00  0.00     0.000 HD
ATOM      9   O  IDS C   1      21.315  54.618 117.2970  0.00  0.00     0.000 O
ATOM     11  HD  IDS C   1      22.181  54.638 117.2930  0.00  0.00     0.000 HD
ENDROOT
BRANCH 2 11
ATOM     11   O  IDS C   1      18.638  54.312 117.7810  0.00  0.00     0.000 O
ATOM     12   S  IDS C   1      17.477  53.404 118.3970  0.00  0.00     0.000 S
ATOM     13   O  IDS C   1      18.224  52.346 119.0400  0.00  0.00     0.000 OA
ATOM     14   O  IDS C   1      16.626  52.928 117.3330  0.00  0.00     0.000 OA
ATOM     15   O  IDS C   1      16.793  54.270 119.3260  0.00  0.00     0.000 OA
ENDBRANCH 2 11
BRANCH 5 16
ATOM     16   C  IDS C   1      21.925  57.450 116.9850  0.00  0.00     0.000 C
ATOM     17   O  IDS C   1      22.929  56.791 117.1560  0.00  0.00     0.000 OA
ATOM     18   O  IDS C   1      21.895  58.605 117.3110  0.00  0.00     0.000 OA
ENDBRANCH 5 16
BRANCH 1 19
ATOM     19  O4  SGN C   2      17.831  57.290 115.7780  0.00  0.00     0.000 O
BRANCH 19 23
ATOM     20  C1  SGN C   2      15.719  60.813 115.0350  0.00  0.00     0.000 C
ATOM     21  C2  SGN C   2      17.172  60.971 115.4980  0.00  0.00     0.000 C
ATOM     22  C3  SGN C   2      17.920  59.654 115.3060  0.00  0.00     0.000 C
ATOM     23  C4  SGN C   2      17.199  58.540 116.0580  0.00  0.00     0.000 C
ATOM     24  C5  SGN C   2      15.733  58.484 115.6220  0.00  0.00     0.000 C
ATOM     25  O5  SGN C   2      15.122  59.775 115.7960  0.00  0.00     0.000 O
ATOM     26   O  SGN C   2      19.268  59.778 115.7460  0.00  0.00     0.000 O
ATOM     28  HD  SGN C   2      20.085  59.956 115.9690  0.00  0.00     0.000 HD
BRANCH 21 30
ATOM     28   N  SGN C   2      17.134  62.287 114.8480  0.00  0.00     0.000 N
ATOM     30  HD  SGN C   2      17.798  62.508 114.3390  0.00  0.00     0.000 HD
ATOM     30   S  SGN C   2      17.847  63.559 115.5070  0.00  0.00     0.000 S
ATOM     31   O  SGN C   2      19.193  63.155 115.7430  0.00  0.00     0.000 OA
ATOM     32   O  SGN C   2      17.580  64.692 114.7020  0.00  0.00     0.000 OA
ATOM     33   O  SGN C   2      17.083  63.766 116.8590  0.00  0.00     0.000 OA
ENDBRANCH 21 30
BRANCH 24 34
ATOM     34   C  SGN C   2      14.900  57.507 116.4190  0.00  0.00     0.000 C
ATOM     35   O  SGN C   2      14.709  56.313 115.6410  0.00  0.00     0.000 O
ATOM     36   S  SGN C   2      13.499  55.359 116.0620  0.00  0.00     0.000 S
ATOM     37   O  SGN C   2      12.335  56.223 116.0760  0.00  0.00     0.000 OA
ATOM     38   O  SGN C   2      13.441  54.334 115.0490  0.00  0.00     0.000 OA
ATOM     39   O  SGN C   2      13.880  54.869 117.3650  0.00  0.00     0.000 OA
ENDBRANCH 24 34
BRANCH 20 40
ATOM     40  O4  IDS C   3      15.506  60.586 113.7410  0.00  0.00     0.000 O
BRANCH 40 44
ATOM     41  C1  IDS C   3      14.977  60.368 110.2630  0.00  0.00     0.000 C
ATOM     42  C2  IDS C   3      15.792  61.503 110.8770  0.00  0.00     0.000 C
ATOM     43  C3  IDS C   3      15.004  62.177 111.9970  0.00  0.00     0.000 C
ATOM     44  C4  IDS C   3      14.442  61.162 112.9800  0.00  0.00     0.000 C
ATOM     45  C5  IDS C   3      13.689  60.053 112.2160  0.00  0.00     0.000 C
ATOM     46  O5  IDS C   3      14.569  59.444 111.2690  0.00  0.00     0.000 O
ATOM     47   O  IDS C   3      13.944  62.946 111.4340  0.00  0.00     0.000 O
ATOM     49  HD  IDS C   3      14.779  62.811 111.6210  0.00  0.00     0.000 HD
BRANCH 42 49
ATOM     49   O  IDS C   3      17.057  60.975 111.4380  0.00  0.00     0.000 O
ATOM     50   S  IDS C   3      18.430  61.757 111.1730  0.00  0.00     0.000 S
ATOM     51   O  IDS C   3      18.304  62.940 111.9970  0.00  0.00     0.000 OA
ATOM     52   O  IDS C   3      18.542  62.072 109.7590  0.00  0.00     0.000 OA
ATOM     53   O  IDS C   3      19.485  60.871 111.6180  0.00  0.00     0.000 OA
ENDBRANCH 42 49
BRANCH 45 54
ATOM     54   C  IDS C   3      13.126  58.971 113.1250  0.00  0.00     0.000 C
ATOM     55   O  IDS C   3      13.447  57.823 112.9550  0.00  0.00     0.000 OA
ATOM     56   O  IDS C   3      12.344  59.266 114.0070  0.00  0.00     0.000 OA
ENDBRANCH 45 54
BRANCH 41 57
ATOM     57  O4  SGN C   4      14.088  60.929 109.4330  0.00  0.00     0.000 O
BRANCH 57 61
ATOM     58  C1  SGN C   4      11.413  59.726 106.4450  0.00  0.00     0.000 C
ATOM     59  C2  SGN C   4      11.174  59.163 107.8550  0.00  0.00     0.000 C
ATOM     60  C3  SGN C   4      11.934  59.974 108.9130  0.00  0.00     0.000 C
ATOM     61  C4  SGN C   4      13.404  60.049 108.5350  0.00  0.00     0.000 C
ATOM     62  C5  SGN C   4      13.565  60.589 107.1150  0.00  0.00     0.000 C
ATOM     63  O5  SGN C   4      12.807  59.796 106.1820  0.00  0.00     0.000 O
BRANCH 59 66
ATOM     64   N  SGN C   4       9.713  59.081 107.9630  0.00  0.00     0.000 N
ATOM     66  HD  SGN C   4      10.559  59.133 108.1440  0.00  0.00     0.000 HD
ATOM     66   O  SGN C   4       7.617  57.934 108.4360  0.00  0.00     0.000 OA
ATOM     67   O  SGN C   4       9.426  56.751 107.2640  0.00  0.00     0.000 OA
ATOM     68   S  SGN C   4       9.023  57.712 108.4360  0.00  0.00     0.000 S
ATOM     69   O  SGN C   4       9.659  57.279 109.6280  0.00  0.00     0.000 OA
ENDBRANCH 59 66
BRANCH 62 70
ATOM     70   C  SGN C   4      15.005  60.547 106.6670  0.00  0.00     0.000 C
ATOM     71   S  SGN C   4      17.056  59.022 106.4730  0.00  0.00     0.000 S
ATOM     72   O  SGN C   4      17.277  59.514 105.1270  0.00  0.00     0.000 OA
ATOM     73   O  SGN C   4      17.724  59.811 107.4890  0.00  0.00     0.000 OA
ATOM     74   O  SGN C   4      17.265  57.599 106.6100  0.00  0.00     0.000 OA
ATOM     75   O  SGN C   4      15.498  59.203 106.7200  0.00  0.00     0.000 O
ENDBRANCH 62 70
ENDBRANCH 57 61
ENDBRANCH 41 57
ENDBRANCH 40 44
ENDBRANCH 20 40
ENDBRANCH 19 23
ENDBRANCH 1 19
TORSDOF 14
ENDMDL
MODEL 3
REMARK VINA RESULT:       0.0     97.024    102.005
ROOT
ATOM      1  C1  IDS C   1      98.589  35.867   9.0220  0.00  0.00     0.000 C
ATOM      2  C2  IDS C   1      99.340  35.802   7.7040  0.00  0.00     0.000 C
ATOM      3  C3  IDS C   1      98.370  35.686   6.5350  0.00  0.00     0.000 C
ATOM      4  C4  IDS C   1      97.291  36.767   6.6030  0.00  0.00     0.000 C
ATOM      5  C5  IDS C   1      96.663  36.806   8.0110  0.00  0.00     0.000 C
ATOM      6  O5  IDS C   1      97.672  36.960   9.0020  0.00  0.00     0.000 O
ATOM      7   O  IDS C   1      97.777  34.386   6.5350  0.00  0.00     0.000 O
ATOM      9  HD  IDS C   1      97.157  34.845   6.1400  0.00  0.00     0.000 HD
ATOM      9   O  IDS C   1      97.887  38.040   6.3120  0.00  0.00     0.000 O
ATOM     11  HD  IDS C   1      97.268  38.499   5.9170  0.00  0.00     0.000 HD
ENDROOT
BRANCH 2 11
ATOM     11   O  IDS C   1     100.135  37.035   7.5080  0.00  0.00     0.000 O
ATOM     12   S  IDS C   1     101.722  36.960   7.3370  0.00  0.00     0.000 S
ATOM     13   O  IDS C   1     101.982  38.039   6.4090  0.00  0.00     0.000 OA
ATOM     14   O  IDS C   1     102.087  35.666   6.8130  0.00  0.00     0.000 OA
ATOM     15   O  IDS C   1     102.242  37.204   8.6590  0.00  0.00     0.000 OA
ENDBRANCH 2 11
BRANCH 5 16
ATOM     16   C  IDS C   1      95.662  37.932   8.1900  0.00  0.00     0.000 C
ATOM     17   O  IDS C   1      95.113  38.388   7.2090  0.00  0.00     0.000 OA
ATOM     18   O  IDS C   1      95.426  38.379   9.2790  0.00  0.00     0.000 OA
ENDBRANCH 5 16
BRANCH 1 19
ATOM     19  O4  SGN C   2      98.136  34.735   9.5670  0.00  0.00     0.000 O
BRANCH 19 23
ATOM     20  C1  SGN C   2      97.549  32.644  13.1320  0.00  0.00     0.000 C
ATOM     21  C2  SGN C   2      96.596  33.813  12.8600  0.00  0.00     0.000 C
ATOM     22  C3  SGN C   2      96.642  34.182  11.3790  0.00  0.00     0.000 C
ATOM     23  C4  SGN C   2      98.076  34.509  10.9770  0.00  0.00     0.000 C
ATOM     24  C5  SGN C   2      98.998  33.345  11.3500  0.00  0.00     0.000 C
ATOM     25  O5  SGN C   2      98.856  33.039  12.7490  0.00  0.00     0.000 O
ATOM     26   O  SGN C   2      95.774  35.277  11.1110  0.00  0.00     0.000 O
ATOM     28  HD  SGN C   2      95.175  35.896  11.0210  0.00  0.00     0.000 HD
BRANCH 21 30
ATOM     28   N  SGN C   2      95.534  33.170  13.6450  0.00  0.00     0.000 N
ATOM     30  HD  SGN C   2      94.715  33.279  13.3860  0.00  0.00     0.000 HD
ATOM     30   S  SGN C   2      94.761  33.963  14.8010  0.00  0.00     0.000 S
ATOM     31   O  SGN C   2      94.278  35.152  14.1830  0.00  0.00     0.000 OA
ATOM     32   O  SGN C   2      93.856  33.073  15.4280  0.00  0.00     0.000 OA
ATOM     33   O  SGN C   2      95.879  34.293  15.8480  0.00  0.00     0.000 OA
ENDBRANCH 21 30
BRANCH 24 34
ATOM     34   C  SGN C   2     100.463  33.636  11.1240  0.00  0.00     0.000 C
ATOM     35   O  SGN C   2     100.900  32.944   9.9420  0.00  0.00     0.000 O
ATOM     36   S  SGN C   2     102.472  32.716   9.7740  0.00  0.00     0.000 S
ATOM     37   O  SGN C   2     102.883  32.064  11.0010  0.00  0.00     0.000 OA
ATOM     38   O  SGN C   2     102.621  31.884   8.6040  0.00  0.00     0.000 OA
ATOM     39   O  SGN C   2     103.001  34.048   9.6120  0.00  0.00     0.000 OA
ENDBRANCH 24 34
BRANCH 20 40
ATOM     40  O4  IDS C   3      97.263  31.473  12.5690  0.00  0.00     0.000 O
BRANCH 40 44
ATOM     41  C1  IDS C   3      96.260  28.312  11.3720  0.00  0.00     0.000 C
ATOM     42  C2  IDS C   3      95.335  29.171  12.2300  0.00  0.00     0.000 C
ATOM     43  C3  IDS C   3      96.049  29.608  13.5070  0.00  0.00     0.000 C
ATOM     44  C4  IDS C   3      97.417  30.204  13.2110  0.00  0.00     0.000 C
ATOM     45  C5  IDS C   3      98.218  29.253  12.2980  0.00  0.00     0.000 C
ATOM     46  O5  IDS C   3      97.477  29.004  11.1020  0.00  0.00     0.000 O
ATOM     47   O  IDS C   3      96.185  28.490  14.3800  0.00  0.00     0.000 O
ATOM     49  HD  IDS C   3      95.722  29.116  14.0020  0.00  0.00     0.000 HD
BRANCH 42 49
ATOM     49   O  IDS C   3      94.921  30.379  11.4800  0.00  0.00     0.000 O
ATOM     50   S  IDS C   3      93.379  30.810  11.4580  0.00  0.00     0.000 S
ATOM     51   O  IDS C   3      93.150  31.299  12.8000  0.00  0.00     0.000 OA
ATOM     52   O  IDS C   3      92.559  29.653  11.1380  0.00  0.00     0.000 OA
ATOM     53   O  IDS C   3      93.270  31.847  10.4550  0.00  0.00     0.000 OA
ENDBRANCH 42 49
BRANCH 45 54
ATOM     54   C  IDS C   3      99.588  29.793  11.9190  0.00  0.00     0.000 C
ATOM     55   O  IDS C   3     100.365  30.107  12.7840  0.00  0.00     0.000 OA
ATOM     56   O  IDS C   3      99.887  29.922  10.7480  0.00  0.00     0.000 OA
ENDBRANCH 45 54
BRANCH 41 57
ATOM     57  O4  SGN C   4      96.263  27.085  11.9070  0.00  0.00     0.000 O
BRANCH 57 61
ATOM     58  C1  SGN C   4      97.758  23.283  10.9930  0.00  0.00     0.000 C
ATOM     59  C2  SGN C   4      98.791  24.408  11.1640  0.00  0.00     0.000 C
ATOM     60  C3  SGN C   4      98.178  25.617  11.8850  0.00  0.00     0.000 C
ATOM     61  C4  SGN C   4      96.920  26.059  11.1570  0.00  0.00     0.000 C
ATOM     62  C5  SGN C   4      95.954  24.885  10.9960  0.00  0.00     0.000 C
ATOM     63  O5  SGN C   4      96.602  23.782  10.3360  0.00  0.00     0.000 O
BRANCH 59 66
ATOM     64   N  SGN C   4      99.943  23.744  11.7830  0.00  0.00     0.000 N
ATOM     66  HD  SGN C   4      99.366  24.334  11.5200  0.00  0.00     0.000 HD
ATOM     66   O  SGN C   4     102.303  23.167  11.9480  0.00  0.00     0.000 OA
ATOM     67   O  SGN C   4     101.211  23.246   9.7470  0.00  0.00     0.000 OA
ATOM     68   S  SGN C   4     101.405  23.926  11.1470  0.00  0.00     0.000 S
ATOM     69   O  SGN C   4     101.641  25.312  10.9580  0.00  0.00     0.000 OA
ENDBRANCH 59 66
BRANCH 62 70
ATOM     70   C  SGN C   4      94.757  25.263  10.1600  0.00  0.00     0.000 C
ATOM     71   S  SGN C   4      94.053  26.373   7.9590  0.00  0.00     0.000 S
ATOM     72   O  SGN C   4      93.120  25.288   7.7270  0.00  0.00     0.000 OA
ATOM     73   O  SGN C   4      93.481  27.472   8.7100  0.00  0.00     0.000 OA
ATOM     74   O  SGN C   4      94.765  26.786   6.7710  0.00  0.00     0.000 OA
ATOM     75   O  SGN C   4      95.184  25.744   8.8800  0.00  0.00     0.000 O
ENDBRANCH 62 70
ENDBRANCH 57 61
ENDBRANCH 41 57
ENDBRANCH 40 44
ENDBRANCH 20 40
ENDBRANCH 19 23
ENDBRANCH 1 19
TORSDOF 14
ENDMDL
MODEL 4
REMARK VINA RESULT:       0.0     51.141     55.873
ROOT
ATOM      1  C1  IDS C   1     100.533  64.750  92.8440  0.00  0.00     0.000 C
ATOM      2  C2  IDS C   1     101.449  65.718  93.5740  0.00  0.00     0.000 C
ATOM      3  C3  IDS C   1     101.786  65.198  94.9660  0.00  0.00     0.000 C
ATOM      4  C4  IDS C   1     102.293  63.758  94.9100  0.00  0.00     0.000 C
ATOM      5  C5  IDS C   1     101.337  62.888  94.0680  0.00  0.00     0.000 C
ATOM      6  O5  IDS C   1     101.144  63.463  92.7800  0.00  0.00     0.000 O
ATOM      7   O  IDS C   1     100.630  65.289  95.8010  0.00  0.00     0.000 O
ATOM      9  HD  IDS C   1     101.049  64.634  96.1800  0.00  0.00     0.000 HD
ATOM      9   O  IDS C   1     103.599  63.745  94.3120  0.00  0.00     0.000 O
ATOM     11  HD  IDS C   1     104.018  63.090  94.6910  0.00  0.00     0.000 HD
ENDROOT
BRANCH 2 11
ATOM     11   O  IDS C   1     102.720  65.875  92.8330  0.00  0.00     0.000 O
ATOM     12   S  IDS C   1     103.160  67.302  92.2640  0.00  0.00     0.000 S
ATOM     13   O  IDS C   1     104.599  67.259  92.4060  0.00  0.00     0.000 OA
ATOM     14   O  IDS C   1     102.547  68.342  93.0550  0.00  0.00     0.000 OA
ATOM     15   O  IDS C   1     102.718  67.298  90.8920  0.00  0.00     0.000 OA
ENDBRANCH 2 11
BRANCH 5 16
ATOM     16   C  IDS C   1     101.836  61.468  93.8710  0.00  0.00     0.000 C
ATOM     17   O  IDS C   1     101.406  60.822  92.9390  0.00  0.00     0.000 OA
ATOM     18   O  IDS C   1     102.629  60.983  94.6300  0.00  0.00     0.000 OA
ENDBRANCH 5 16
BRANCH 1 19
ATOM     19  O4  SGN C   2      99.225  64.764  93.1180  0.00  0.00     0.000 O
BRANCH 19 23
ATOM     20  C1  SGN C   2      95.388  64.393  91.5180  0.00  0.00     0.000 C
ATOM     21  C2  SGN C   2      96.197  63.099  91.6640  0.00  0.00     0.000 C
ATOM     22  C3  SGN C   2      97.354  63.320  92.6340  0.00  0.00     0.000 C
ATOM     23  C4  SGN C   2      98.216  64.480  92.1480  0.00  0.00     0.000 C
ATOM     24  C5  SGN C   2      97.345  65.721  91.9360  0.00  0.00     0.000 C
ATOM     25  O5  SGN C   2      96.258  65.408  91.0460  0.00  0.00     0.000 O
ATOM     26   O  SGN C   2      98.125  62.132  92.7690  0.00  0.00     0.000 O
ATOM     28  HD  SGN C   2      98.498  61.354  92.8480  0.00  0.00     0.000 HD
BRANCH 21 30
ATOM     28   N  SGN C   2      94.928  62.364  91.7470  0.00  0.00     0.000 N
ATOM     30  HD  SGN C   2      94.869  61.720  92.3230  0.00  0.00     0.000 HD
ATOM     30   S  SGN C   2      94.701  61.005  90.9330  0.00  0.00     0.000 S
ATOM     31   O  SGN C   2      95.792  60.164  91.2940  0.00  0.00     0.000 OA
ATOM     32   O  SGN C   2      93.371  60.569  91.1480  0.00  0.00     0.000 OA
ATOM     33   O  SGN C   2      94.805  61.440  89.4320  0.00  0.00     0.000 OA
ENDBRANCH 21 30
BRANCH 24 34
ATOM     34   C  SGN C   2      98.084  66.882  91.3130  0.00  0.00     0.000 C
ATOM     35   O  SGN C   2      98.366  67.858  92.3320  0.00  0.00     0.000 O
ATOM     36   S  SGN C   2      98.703  69.340  91.8440  0.00  0.00     0.000 S
ATOM     37   O  SGN C   2      97.590  69.710  90.9930  0.00  0.00     0.000 OA
ATOM     38   O  SGN C   2      98.795  70.134  93.0460  0.00  0.00     0.000 OA
ATOM     39   O  SGN C   2      99.955  69.199  91.1430  0.00  0.00     0.000 OA
ENDBRANCH 24 34
BRANCH 20 40
ATOM     40  O4  IDS C   3      94.739  64.837  92.5920  0.00  0.00     0.000 O
BRANCH 40 44
ATOM     41  C1  IDS C   3      92.721  65.723  95.3440  0.00  0.00     0.000 C
ATOM     42  C2  IDS C   3      92.645  64.336  94.7120  0.00  0.00     0.000 C
ATOM     43  C3  IDS C   3      92.436  64.450  93.2040  0.00  0.00     0.000 C
ATOM     44  C4  IDS C   3      93.429  65.411  92.5690  0.00  0.00     0.000 C
ATOM     45  C5  IDS C   3      93.433  66.748  93.3390  0.00  0.00     0.000 C
ATOM     46  O5  IDS C   3      93.734  66.504  94.7150  0.00  0.00     0.000 O
ATOM     47   O  IDS C   3      91.104  64.886  92.9420  0.00  0.00     0.000 O
ATOM     49  HD  IDS C   3      91.683  64.286  93.1740  0.00  0.00     0.000 HD
BRANCH 42 49
ATOM     49   O  IDS C   3      93.902  63.593  94.9610  0.00  0.00     0.000 O
ATOM     50   S  IDS C   3      93.838  62.081  95.4860  0.00  0.00     0.000 S
ATOM     51   O  IDS C   3      93.377  61.345  94.3300  0.00  0.00     0.000 OA
ATOM     52   O  IDS C   3      92.915  61.996  96.6060  0.00  0.00     0.000 OA
ATOM     53   O  IDS C   3      95.191  61.736  95.8710  0.00  0.00     0.000 OA
ENDBRANCH 42 49
BRANCH 45 54
ATOM     54   C  IDS C   3      94.432  67.755  92.7920  0.00  0.00     0.000 C
ATOM     55   O  IDS C   3      95.288  68.198  93.5130  0.00  0.00     0.000 OA
ATOM     56   O  IDS C   3      94.352  68.122  91.6360  0.00  0.00     0.000 OA
ENDBRANCH 45 54
BRANCH 41 57
ATOM     57  O4  SGN C   4      91.466  66.173  95.4540  0.00  0.00     0.000 O
BRANCH 57 61
ATOM     58  C1  SGN C   4      89.442  69.390  97.2110  0.00  0.00     0.000 C
ATOM     59  C2  SGN C   4      90.407  69.725  96.0630  0.00  0.00     0.000 C
ATOM     60  C3  SGN C   4      90.758  68.471  95.2500  0.00  0.00     0.000 C
ATOM     61  C4  SGN C   4      91.281  67.391  96.1820  0.00  0.00     0.000 C
ATOM     62  C5  SGN C   4      90.287  67.132  97.3130  0.00  0.00     0.000 C
ATOM     63  O5  SGN C   4      89.987  68.353  98.0150  0.00  0.00     0.000 O
BRANCH 59 66
ATOM     64   N  SGN C   4      89.760  70.841  95.3650  0.00  0.00     0.000 N
ATOM     66  HD  SGN C   4      90.252  70.155  95.5590  0.00  0.00     0.000 HD
ATOM     66   O  SGN C   4      89.706  73.074  94.3930  0.00  0.00     0.000 OA
ATOM     67   O  SGN C   4      90.882  72.688  96.5170  0.00  0.00     0.000 OA
ATOM     68   S  SGN C   4      90.589  72.181  95.0630  0.00  0.00     0.000 S
ATOM     69   O  SGN C   4      91.814  71.819  94.4450  0.00  0.00     0.000 OA
ENDBRANCH 59 66
BRANCH 62 70
ATOM     70   C  SGN C   4      90.841  66.161  98.3260  0.00  0.00     0.000 C
ATOM     71   S  SGN C   4      92.926  65.596  99.7060  0.00  0.00     0.000 S
ATOM     72   O  SGN C   4      92.085  65.403 100.8710  0.00  0.00     0.000 OA
ATOM     73   O  SGN C   4      93.105  64.391  98.9210  0.00  0.00     0.000 OA
ATOM     74   O  SGN C   4      94.159  66.293  99.9930  0.00  0.00     0.000 OA
ATOM     75   O  SGN C   4      92.121  66.611  98.7890  0.00  0.00     0.000 O
ENDBRANCH 62 70
ENDBRANCH 57 61
ENDBRANCH 41 57
ENDBRANCH 40 44
ENDBRANCH 20 40
ENDBRANCH 19 23
ENDBRANCH 1 19
TORSDOF 14
ENDMDL
MODEL 5
REMARK VINA RESULT:       0.0     44.176     50.011
ROOT
ATOM      1  C1  IDS C   1      53.475  90.664  70.8820  0.00  0.00     0.000 C
ATOM      2  C2  IDS C   1      53.085  91.993  71.5030  0.00  0.00     0.000 C
ATOM      3  C3  IDS C   1      51.688  92.408  71.0600  0.00  0.00     0.000 C
ATOM      4  C4  IDS C   1      50.681  91.279  71.2800  0.00  0.00     0.000 C
ATOM      5  C5  IDS C   1      51.221  89.960  70.6920  0.00  0.00     0.000 C
ATOM      6  O5  IDS C   1      52.510  89.670  71.2210  0.00  0.00     0.000 O
ATOM      7   O  IDS C   1      51.719  92.789  69.6830  0.00  0.00     0.000 O
ATOM      9  HD  IDS C   1      50.896  92.532  69.7590  0.00  0.00     0.000 HD
ATOM      9   O  IDS C   1      50.461  91.118  72.6900  0.00  0.00     0.000 O
ATOM     11  HD  IDS C   1      49.638  90.860  72.7660  0.00  0.00     0.000 HD
ENDROOT
BRANCH 2 11
ATOM     11   O  IDS C   1      53.074  91.882  72.9790  0.00  0.00     0.000 O
ATOM     12   S  IDS C   1      54.084  92.746  73.8680  0.00  0.00     0.000 S
ATOM     13   O  IDS C   1      53.293  93.025  75.0460  0.00  0.00     0.000 OA
ATOM     14   O  IDS C   1      54.458  93.938  73.1450  0.00  0.00     0.000 OA
ATOM     15   O  IDS C   1      55.195  91.861  74.1170  0.00  0.00     0.000 OA
ENDBRANCH 2 11
BRANCH 5 16
ATOM     16   C  IDS C   1      50.326  88.767  70.9730  0.00  0.00     0.000 C
ATOM     17   O  IDS C   1      49.286  88.945  71.5720  0.00  0.00     0.000 OA
ATOM     18   O  IDS C   1      50.644  87.663  70.6260  0.00  0.00     0.000 OA
ENDBRANCH 5 16
BRANCH 1 19
ATOM     19  O4  SGN C   2      53.917  90.642  69.6200  0.00  0.00     0.000 O
BRANCH 19 23
ATOM     20  C1  SGN C   2      56.466  88.753  66.9080  0.00  0.00     0.000 C
ATOM     21  C2  SGN C   2      55.265  87.937  67.4010  0.00  0.00     0.000 C
ATOM     22  C3  SGN C   2      54.223  88.871  68.0120  0.00  0.00     0.000 C
ATOM     23  C4  SGN C   2      54.859  89.686  69.1330  0.00  0.00     0.000 C
ATOM     24  C5  SGN C   2      56.102  90.410  68.6080  0.00  0.00     0.000 C
ATOM     25  O5  SGN C   2      57.005  89.461  68.0120  0.00  0.00     0.000 O
ATOM     26   O  SGN C   2      53.108  88.128  68.4900  0.00  0.00     0.000 O
ATOM     28  HD  SGN C   2      52.442  87.612  68.6900  0.00  0.00     0.000 HD
BRANCH 21 30
ATOM     28   N  SGN C   2      55.442  87.151  66.1730  0.00  0.00     0.000 N
ATOM     30  HD  SGN C   2      54.743  86.997  65.6860  0.00  0.00     0.000 HD
ATOM     30   S  SGN C   2      55.202  85.569  66.1590  0.00  0.00     0.000 S
ATOM     31   O  SGN C   2      53.893  85.383  66.6880  0.00  0.00     0.000 OA
ATOM     32   O  SGN C   2      55.520  85.079  64.8690  0.00  0.00     0.000 OA
ATOM     33   O  SGN C   2      56.287  85.011  67.1420  0.00  0.00     0.000 OA
ENDBRANCH 21 30
BRANCH 24 34
ATOM     34   C  SGN C   2      56.885  91.127  69.6830  0.00  0.00     0.000 C
ATOM     35   O  SGN C   2      56.582  92.532  69.6230  0.00  0.00     0.000 O
ATOM     36   S  SGN C   2      57.618  93.527  70.3200  0.00  0.00     0.000 S
ATOM     37   O  SGN C   2      58.901  93.194  69.7330  0.00  0.00     0.000 OA
ATOM     38   O  SGN C   2      57.163  94.856  69.9900  0.00  0.00     0.000 OA
ATOM     39   O  SGN C   2      57.516  93.209  71.7230  0.00  0.00     0.000 OA
ENDBRANCH 24 34
BRANCH 20 40
ATOM     40  O4  IDS C   3      56.262  89.600  65.9020  0.00  0.00     0.000 O
BRANCH 40 44
ATOM     41  C1  IDS C   3      55.770  91.556  63.0100  0.00  0.00     0.000 C
ATOM     42  C2  IDS C   3      55.410  90.073  63.0420  0.00  0.00     0.000 C
ATOM     43  C3  IDS C   3      56.596  89.249  63.5370  0.00  0.00     0.000 C
ATOM     44  C4  IDS C   3      57.177  89.815  64.8240  0.00  0.00     0.000 C
ATOM     45  C5  IDS C   3      57.443  91.326  64.6600  0.00  0.00     0.000 C
ATOM     46  O5  IDS C   3      56.231  91.986  64.2880  0.00  0.00     0.000 O
ATOM     47   O  IDS C   3      57.601  89.211  62.5270  0.00  0.00     0.000 O
ATOM     49  HD  IDS C   3      56.839  88.970  62.8610  0.00  0.00     0.000 HD
BRANCH 42 49
ATOM     49   O  IDS C   3      54.263  89.846  63.9510  0.00  0.00     0.000 O
ATOM     50   S  IDS C   3      53.080  88.861  63.5060  0.00  0.00     0.000 S
ATOM     51   O  IDS C   3      53.687  87.551  63.5930  0.00  0.00     0.000 OA
ATOM     52   O  IDS C   3      52.658  89.193  62.1560  0.00  0.00     0.000 OA
ATOM     53   O  IDS C   3      52.018  89.055  64.4710  0.00  0.00     0.000 OA
ENDBRANCH 42 49
BRANCH 45 54
ATOM     54   C  IDS C   3      57.989  91.981  65.9190  0.00  0.00     0.000 C
ATOM     55   O  IDS C   3      57.405  92.913  66.4080  0.00  0.00     0.000 OA
ATOM     56   O  IDS C   3      59.021  91.574  66.4160  0.00  0.00     0.000 OA
ENDBRANCH 45 54
BRANCH 41 57
ATOM     57  O4  SGN C   4      56.497  91.759  61.9050  0.00  0.00     0.000 O
BRANCH 57 61
ATOM     58  C1  SGN C   4      58.001  94.987  59.7030  0.00  0.00     0.000 C
ATOM     59  C2  SGN C   4      58.514  94.834  61.1450  0.00  0.00     0.000 C
ATOM     60  C3  SGN C   4      58.225  93.429  61.6900  0.00  0.00     0.000 C
ATOM     61  C4  SGN C   4      56.745  93.120  61.5400  0.00  0.00     0.000 C
ATOM     62  C5  SGN C   4      56.299  93.321  60.0930  0.00  0.00     0.000 C
ATOM     63  O5  SGN C   4      56.623  94.650  59.6420  0.00  0.00     0.000 O
BRANCH 59 66
ATOM     64   N  SGN C   4      59.921  95.246  61.1040  0.00  0.00     0.000 N
ATOM     66  HD  SGN C   4      59.162  94.903  61.3400  0.00  0.00     0.000 HD
ATOM     66   O  SGN C   4      61.821  96.604  61.7950  0.00  0.00     0.000 OA
ATOM     67   O  SGN C   4      59.610  97.641  61.5120  0.00  0.00     0.000 OA
ATOM     68   S  SGN C   4      60.434  96.426  62.0620  0.00  0.00     0.000 S
ATOM     69   O  SGN C   4      60.012  96.143  63.3860  0.00  0.00     0.000 OA
ENDBRANCH 59 66
BRANCH 62 70
ATOM     70   C  SGN C   4      54.808  93.151  59.9440  0.00  0.00     0.000 C
ATOM     71   S  SGN C   4      52.551  93.798  60.9730  0.00  0.00     0.000 S
ATOM     72   O  SGN C   4      52.046  94.091  59.6460  0.00  0.00     0.000 OA
ATOM     73   O  SGN C   4      52.351  92.419  61.3720  0.00  0.00     0.000 OA
ATOM     74   O  SGN C   4      52.142  94.759  61.9720  0.00  0.00     0.000 OA
ATOM     75   O  SGN C   4      54.121  94.008  60.8640  0.00  0.00     0.000 O
ENDBRANCH 62 70
ENDBRANCH 57 61
ENDBRANCH 41 57
ENDBRANCH 40 44
ENDBRANCH 20 40
ENDBRANCH 19 23
ENDBRANCH 1 19
TORSDOF 14
ENDMDL
MODEL 6
REMARK VINA RESULT:       0.0     94.977    100.001
ROOT
ATOM      1  C1  IDS C   1      29.732  44.646  92.7900  0.00  0.00     0.000 C
ATOM      2  C2  IDS C   1      29.624  44.373  94.2790  0.00  0.00     0.000 C
ATOM      3  C3  IDS C   1      30.360  45.440  95.0800  0.00  0.00     0.000 C
ATOM      4  C4  IDS C   1      29.929  46.844  94.6550  0.00  0.00     0.000 C
ATOM      5  C5  IDS C   1      29.988  46.978  93.1200  0.00  0.00     0.000 C
ATOM      6  O5  IDS C   1      29.226  45.948  92.5000  0.00  0.00     0.000 O
ATOM      7   O  IDS C   1      31.769  45.276  94.9100  0.00  0.00     0.000 O
ATOM      9  HD  IDS C   1      31.726  46.124  95.0800  0.00  0.00     0.000 HD
ATOM      9   O  IDS C   1      28.584  47.075  95.1010  0.00  0.00     0.000 O
ATOM     11  HD  IDS C   1      28.541  47.923  95.2720  0.00  0.00     0.000 HD
ENDROOT
BRANCH 2 11
ATOM     11   O  IDS C   1      28.205  44.393  94.7000  0.00  0.00     0.000 O
ATOM     12   S  IDS C   1      27.541  43.112  95.3870  0.00  0.00     0.000 S
ATOM     13   O  IDS C   1      26.618  43.710  96.3250  0.00  0.00     0.000 OA
ATOM     14   O  IDS C   1      28.568  42.327  96.0290  0.00  0.00     0.000 OA
ATOM     15   O  IDS C   1      26.890  42.417  94.3040  0.00  0.00     0.000 OA
ENDBRANCH 2 11
BRANCH 5 16
ATOM     16   C  IDS C   1      29.465  48.310  92.6140  0.00  0.00     0.000 C
ATOM     17   O  IDS C   1      29.463  49.262  93.3660  0.00  0.00     0.000 OA
ATOM     18   O  IDS C   1      29.043  48.421  91.4960  0.00  0.00     0.000 OA
ENDBRANCH 5 16
BRANCH 1 19
ATOM     19  O4  SGN C   2      30.849  44.297  92.1450  0.00  0.00     0.000 O
BRANCH 19 23
ATOM     20  C1  SGN C   2      32.418  42.714  88.6150  0.00  0.00     0.000 C
ATOM     21  C2  SGN C   2      31.884  44.150  88.5440  0.00  0.00     0.000 C
ATOM     22  C3  SGN C   2      31.760  44.724  89.9530  0.00  0.00     0.000 C
ATOM     23  C4  SGN C   2      30.866  43.824  90.7970  0.00  0.00     0.000 C
ATOM     24  C5  SGN C   2      31.394  42.387  90.7630  0.00  0.00     0.000 C
ATOM     25  O5  SGN C   2      31.519  41.946  89.3990  0.00  0.00     0.000 O
ATOM     26   O  SGN C   2      31.251  46.052  89.9070  0.00  0.00     0.000 O
ATOM     28  HD  SGN C   2      31.004  46.874  89.7870  0.00  0.00     0.000 HD
BRANCH 21 30
ATOM     28   N  SGN C   2      32.801  44.384  87.4210  0.00  0.00     0.000 N
ATOM     30  HD  SGN C   2      33.226  45.138  87.3940  0.00  0.00     0.000 HD
ATOM     30   S  SGN C   2      32.323  45.163  86.1080  0.00  0.00     0.000 S
ATOM     31   O  SGN C   2      31.781  46.394  86.5770  0.00  0.00     0.000 OA
ATOM     32   O  SGN C   2      33.388  45.169  85.1760  0.00  0.00     0.000 OA
ATOM     33   O  SGN C   2      31.198  44.250  85.5120  0.00  0.00     0.000 OA
ENDBRANCH 21 30
BRANCH 24 34
ATOM     34   C  SGN C   2      30.489  41.392  91.4520  0.00  0.00     0.000 C
ATOM     35   O  SGN C   2      31.036  41.080  92.7450  0.00  0.00     0.000 O
ATOM     36   S  SGN C   2      30.532  39.733  93.4390  0.00  0.00     0.000 S
ATOM     37   O  SGN C   2      30.771  38.698  92.4530  0.00  0.00     0.000 OA
ATOM     38   O  SGN C   2      31.333  39.587  94.6310  0.00  0.00     0.000 OA
ATOM     39   O  SGN C   2      29.136  39.980  93.7030  0.00  0.00     0.000 OA
ENDBRANCH 24 34
BRANCH 20 40
ATOM     40  O4  IDS C   3      33.656  42.540  89.0710  0.00  0.00     0.000 O
BRANCH 40 44
ATOM     41  C1  IDS C   3      37.062  42.178  89.9050  0.00  0.00     0.000 C
ATOM     42  C2  IDS C   3      36.610  43.101  88.7770  0.00  0.00     0.000 C
ATOM     43  C3  IDS C   3      35.703  42.349  87.8060  0.00  0.00     0.000 C
ATOM     44  C4  IDS C   3      34.594  41.605  88.5340  0.00  0.00     0.000 C
ATOM     45  C5  IDS C   3      35.193  40.754  89.6740  0.00  0.00     0.000 C
ATOM     46  O5  IDS C   3      35.936  41.597  90.5570  0.00  0.00     0.000 O
ATOM     47   O  IDS C   3      36.484  41.433  87.0430  0.00  0.00     0.000 O
ATOM     49  HD  IDS C   3      36.209  42.231  87.2370  0.00  0.00     0.000 HD
BRANCH 42 49
ATOM     49   O  IDS C   3      35.860  44.253  89.3310  0.00  0.00     0.000 O
ATOM     50   S  IDS C   3      36.192  45.735  88.8210  0.00  0.00     0.000 S
ATOM     51   O  IDS C   3      35.656  45.753  87.4780  0.00  0.00     0.000 OA
ATOM     52   O  IDS C   3      37.630  45.946  88.8500  0.00  0.00     0.000 OA
ATOM     53   O  IDS C   3      35.493  46.630  89.7180  0.00  0.00     0.000 OA
ENDBRANCH 42 49
BRANCH 45 54
ATOM     54   C  IDS C   3      34.144  40.005  90.4800  0.00  0.00     0.000 C
ATOM     55   O  IDS C   3      33.378  39.264  89.9200  0.00  0.00     0.000 OA
ATOM     56   O  IDS C   3      34.071  40.169  91.6820  0.00  0.00     0.000 OA
ENDBRANCH 45 54
BRANCH 41 57
ATOM     57  O4  SGN C   4      38.050  41.419  89.4180  0.00  0.00     0.000 O
BRANCH 57 61
ATOM     58  C1  SGN C   4      40.860  38.657  90.8350  0.00  0.00     0.000 C
ATOM     59  C2  SGN C   4      39.379  38.264  90.9620  0.00  0.00     0.000 C
ATOM     60  C3  SGN C   4      38.494  39.136  90.0600  0.00  0.00     0.000 C
ATOM     61  C4  SGN C   4      38.757  40.603  90.3570  0.00  0.00     0.000 C
ATOM     62  C5  SGN C   4      40.248  40.915  90.2420  0.00  0.00     0.000 C
ATOM     63  O5  SGN C   4      41.016  40.044  91.0940  0.00  0.00     0.000 O
BRANCH 59 66
ATOM     64   N  SGN C   4      39.352  36.816  90.7290  0.00  0.00     0.000 N
ATOM     66  HD  SGN C   4      39.130  37.649  90.8110  0.00  0.00     0.000 HD
ATOM     66   O  SGN C   4      38.809  34.517  91.3220  0.00  0.00     0.000 OA
ATOM     67   O  SGN C   4      39.619  36.070  93.0470  0.00  0.00     0.000 OA
ATOM     68   S  SGN C   4      38.676  35.846  91.8140  0.00  0.00     0.000 S
ATOM     69   O  SGN C   4      37.386  36.349  92.1220  0.00  0.00     0.000 OA
ENDBRANCH 59 66
BRANCH 62 70
ATOM     70   C  SGN C   4      40.552  42.331  90.6620  0.00  0.00     0.000 C
ATOM     71   S  SGN C   4      40.207  44.037  92.5430  0.00  0.00     0.000 S
ATOM     72   O  SGN C   4      41.608  44.400  92.4510  0.00  0.00     0.000 OA
ATOM     73   O  SGN C   4      39.355  44.814  91.6670  0.00  0.00     0.000 OA
ATOM     74   O  SGN C   4      39.721  43.949  93.9010  0.00  0.00     0.000 OA
ATOM     75   O  SGN C   4      40.142  42.540  92.0180  0.00  0.00     0.000 O
ENDBRANCH 62 70
ENDBRANCH 57 61
ENDBRANCH 41 57
ENDBRANCH 40 44
ENDBRANCH 20 40
ENDBRANCH 19 23
ENDBRANCH 1 19
TORSDOF 14
ENDMDL
MODEL 7
REMARK VINA RESULT:       0.0     66.161     71.172
ROOT
ATOM      1  C1  IDS C   1      40.973  72.415  69.8750  0.00  0.00     0.000 C
ATOM      2  C2  IDS C   1      40.052  71.220  70.0410  0.00  0.00     0.000 C
ATOM      3  C3  IDS C   1      40.853  69.957  70.3360  0.00  0.00     0.000 C
ATOM      4  C4  IDS C   1      41.827  70.179  71.4930  0.00  0.00     0.000 C
ATOM      5  C5  IDS C   1      42.642  71.468  71.2650  0.00  0.00     0.000 C
ATOM      6  O5  IDS C   1      41.774  72.574  71.0450  0.00  0.00     0.000 O
ATOM      7   O  IDS C   1      41.556  69.554  69.1600  0.00  0.00     0.000 O
ATOM      9  HD  IDS C   1      42.069  69.222  69.7750  0.00  0.00     0.000 HD
ATOM      9   O  IDS C   1      41.081  70.298  72.7150  0.00  0.00     0.000 O
ATOM     11  HD  IDS C   1      41.594  69.966  73.3290  0.00  0.00     0.000 HD
ENDROOT
BRANCH 2 11
ATOM     11   O  IDS C   1      39.128  71.441  71.1760  0.00  0.00     0.000 O
ATOM     12   S  IDS C   1      37.545  71.406  70.9540  0.00  0.00     0.000 S
ATOM     13   O  IDS C   1      37.075  70.834  72.1970  0.00  0.00     0.000 OA
ATOM     14   O  IDS C   1      37.241  70.587  69.8060  0.00  0.00     0.000 OA
ATOM     15   O  IDS C   1      37.172  72.788  70.7810  0.00  0.00     0.000 OA
ENDBRANCH 2 11
BRANCH 5 16
ATOM     16   C  IDS C   1      43.552  71.817  72.4290  0.00  0.00     0.000 C
ATOM     17   O  IDS C   1      43.074  72.363  73.4000  0.00  0.00     0.000 OA
ATOM     18   O  IDS C   1      44.726  71.573  72.3870  0.00  0.00     0.000 OA
ENDBRANCH 5 16
BRANCH 1 19
ATOM     19  O4  SGN C   2      41.601  72.593  68.7090  0.00  0.00     0.000 O
BRANCH 19 23
ATOM     20  C1  SGN C   2      42.835  75.401  65.8770  0.00  0.00     0.000 C
ATOM     21  C2  SGN C   2      43.629  75.357  67.1880  0.00  0.00     0.000 C
ATOM     22  C3  SGN C   2      43.359  74.039  67.9100  0.00  0.00     0.000 C
ATOM     23  C4  SGN C   2      41.861  73.879  68.1440  0.00  0.00     0.000 C
ATOM     24  C5  SGN C   2      41.111  74.018  66.8170  0.00  0.00     0.000 C
ATOM     25  O5  SGN C   2      41.458  75.265  66.1870  0.00  0.00     0.000 O
ATOM     26   O  SGN C   2      44.076  73.988  69.1380  0.00  0.00     0.000 O
ATOM     28  HD  SGN C   2      44.596  74.008  69.8310  0.00  0.00     0.000 HD
BRANCH 21 30
ATOM     28   N  SGN C   2      44.753  75.934  66.4390  0.00  0.00     0.000 N
ATOM     30  HD  SGN C   2      45.541  75.598  66.5660  0.00  0.00     0.000 HD
ATOM     30   S  SGN C   2      45.671  77.080  67.0730  0.00  0.00     0.000 S
ATOM     31   O  SGN C   2      46.117  76.558  68.3210  0.00  0.00     0.000 OA
ATOM     32   O  SGN C   2      46.615  77.489  66.1000  0.00  0.00     0.000 OA
ATOM     33   O  SGN C   2      44.687  78.280  67.2890  0.00  0.00     0.000 OA
ENDBRANCH 21 30
BRANCH 24 34
ATOM     34   C  SGN C   2      39.607  74.022  66.9670  0.00  0.00     0.000 C
ATOM     35   O  SGN C   2      39.094  72.740  66.5620  0.00  0.00     0.000 O
ATOM     36   S  SGN C   2      37.544  72.665  66.1880  0.00  0.00     0.000 S
ATOM     37   O  SGN C   2      37.355  73.698  65.1880  0.00  0.00     0.000 OA
ATOM     38   O  SGN C   2      37.330  71.331  65.6820  0.00  0.00     0.000 OA
ATOM     39   O  SGN C   2      36.872  72.930  67.4360  0.00  0.00     0.000 OA
ENDBRANCH 24 34
BRANCH 20 40
ATOM     40  O4  IDS C   3      43.160  74.521  64.9320  0.00  0.00     0.000 O
BRANCH 40 44
ATOM     41  C1  IDS C   3      44.288  72.431  62.3270  0.00  0.00     0.000 C
ATOM     42  C2  IDS C   3      45.233  73.386  63.0500  0.00  0.00     0.000 C
ATOM     43  C3  IDS C   3      44.656  74.799  63.0580  0.00  0.00     0.000 C
ATOM     44  C4  IDS C   3      43.212  74.815  63.5340  0.00  0.00     0.000 C
ATOM     45  C5  IDS C   3      42.390  73.769  62.7510  0.00  0.00     0.000 C
ATOM     46  O5  IDS C   3      42.987  72.480  62.9070  0.00  0.00     0.000 O
ATOM     47   O  IDS C   3      44.743  75.353  61.7480  0.00  0.00     0.000 O
ATOM     49  HD  IDS C   3      45.091  75.109  62.5020  0.00  0.00     0.000 HD
BRANCH 42 49
ATOM     49   O  IDS C   3      45.429  72.946  64.4510  0.00  0.00     0.000 O
ATOM     50   S  IDS C   3      46.901  72.941  65.0830  0.00  0.00     0.000 S
ATOM     51   O  IDS C   3      47.195  74.346  65.2550  0.00  0.00     0.000 OA
ATOM     52   O  IDS C   3      47.819  72.287  64.1650  0.00  0.00     0.000 OA
ATOM     53   O  IDS C   3      46.792  72.231  66.3400  0.00  0.00     0.000 OA
ENDBRANCH 42 49
BRANCH 45 54
ATOM     54   C  IDS C   3      40.937  73.692  63.1930  0.00  0.00     0.000 C
ATOM     55   O  IDS C   3      40.480  72.640  63.5590  0.00  0.00     0.000 OA
ATOM     56   O  IDS C   3      40.239  74.686  63.1590  0.00  0.00     0.000 OA
ENDBRANCH 45 54
BRANCH 41 57
ATOM     57  O4  SGN C   4      44.471  72.617  61.0150  0.00  0.00     0.000 O
BRANCH 57 61
ATOM     58  C1  SGN C   4      43.363  70.790  57.4140  0.00  0.00     0.000 C
ATOM     59  C2  SGN C   4      42.234  71.422  58.2450  0.00  0.00     0.000 C
ATOM     60  C3  SGN C   4      42.794  72.392  59.2940  0.00  0.00     0.000 C
ATOM     61  C4  SGN C   4      43.838  71.680  60.1380  0.00  0.00     0.000 C
ATOM     62  C5  SGN C   4      44.910  71.052  59.2480  0.00  0.00     0.000 C
ATOM     63  O5  SGN C   4      44.311  70.176  58.2750  0.00  0.00     0.000 O
BRANCH 59 66
ATOM     64   N  SGN C   4      41.304  71.953  57.2430  0.00  0.00     0.000 N
ATOM     66  HD  SGN C   4      41.742  71.807  57.9750  0.00  0.00     0.000 HD
ATOM     66   O  SGN C   4      39.107  72.226  56.2280  0.00  0.00     0.000 OA
ATOM     67   O  SGN C   4      39.793  70.030  57.0950  0.00  0.00     0.000 OA
ATOM     68   S  SGN C   4      39.746  71.581  57.3240  0.00  0.00     0.000 S
ATOM     69   O  SGN C   4      39.293  71.838  58.6440  0.00  0.00     0.000 OA
ENDBRANCH 59 66
BRANCH 62 70
ATOM     70   C  SGN C   4      45.883  70.227  60.0510  0.00  0.00     0.000 C
ATOM     71   S  SGN C   4      46.047  68.479  61.9190  0.00  0.00     0.000 S
ATOM     72   O  SGN C   4      47.001  67.735  61.1190  0.00  0.00     0.000 OA
ATOM     73   O  SGN C   4      46.666  69.470  62.7760  0.00  0.00     0.000 OA
ATOM     74   O  SGN C   4      45.084  67.641  62.5970  0.00  0.00     0.000 OA
ATOM     75   O  SGN C   4      45.175  69.283  60.8630  0.00  0.00     0.000 O
ENDBRANCH 62 70
ENDBRANCH 57 61
ENDBRANCH 41 57
ENDBRANCH 40 44
ENDBRANCH 20 40
ENDBRANCH 19 23
ENDBRANCH 1 19
TORSDOF 14
ENDMDL
MODEL 8
REMARK VINA RESULT:       0.0    108.613    115.035
ROOT
ATOM      1  C1  IDS C   1      27.337  37.418 104.3100  0.00  0.00     0.000 C
ATOM      2  C2  IDS C   1      26.916  38.526 103.3610  0.00  0.00     0.000 C
ATOM      3  C3  IDS C   1      27.552  39.852 103.7620  0.00  0.00     0.000 C
ATOM      4  C4  IDS C   1      29.062  39.707 103.9460  0.00  0.00     0.000 C
ATOM      5  C5  IDS C   1      29.376  38.497 104.8490  0.00  0.00     0.000 C
ATOM      6  O5  IDS C   1      28.760  37.320 104.3380  0.00  0.00     0.000 O
ATOM      7   O  IDS C   1      26.945  40.326 104.9650  0.00  0.00     0.000 O
ATOM      9  HD  IDS C   1      27.725  40.696 105.0230  0.00  0.00     0.000 HD
ATOM      9   O  IDS C   1      29.672  39.512 102.6600  0.00  0.00     0.000 O
ATOM     11  HD  IDS C   1      30.453  39.882 102.7180  0.00  0.00     0.000 HD
ENDROOT
BRANCH 2 11
ATOM     11   O  IDS C   1      27.359  38.214 101.9830  0.00  0.00     0.000 O
ATOM     12   S  IDS C   1      26.290  37.933 100.8290  0.00  0.00     0.000 S
ATOM     13   O  IDS C   1      26.941  38.491  99.6650  0.00  0.00     0.000 OA
ATOM     14   O  IDS C   1      25.050  38.596 101.1540  0.00  0.00     0.000 OA
ATOM     15   O  IDS C   1      26.171  36.497 100.7870  0.00  0.00     0.000 OA
ENDBRANCH 2 11
BRANCH 5 16
ATOM     16   C  IDS C   1      30.862  38.220 104.9850  0.00  0.00     0.000 C
ATOM     17   O  IDS C   1      31.219  37.223 105.5760  0.00  0.00     0.000 OA
ATOM     18   O  IDS C   1      31.674  38.978 104.5300  0.00  0.00     0.000 OA
ENDBRANCH 5 16
BRANCH 1 19
ATOM     19  O4  SGN C   2      26.721  37.306 105.4900  0.00  0.00     0.000 O
BRANCH 19 23
ATOM     20  C1  SGN C   2      25.421  34.661 108.4460  0.00  0.00     0.000 C
ATOM     21  C2  SGN C   2      26.938  34.828 108.2960  0.00  0.00     0.000 C
ATOM     22  C3  SGN C   2      27.241  36.105 107.5160  0.00  0.00     0.000 C
ATOM     23  C4  SGN C   2      26.535  36.061 106.1660  0.00  0.00     0.000 C
ATOM     24  C5  SGN C   2      25.039  35.805 106.3700  0.00  0.00     0.000 C
ATOM     25  O5  SGN C   2      24.850  34.610 107.1490  0.00  0.00     0.000 O
ATOM     26   O  SGN C   2      28.645  36.268 107.3540  0.00  0.00     0.000 O
ATOM     28  HD  SGN C   2      29.509  36.327 107.3590  0.00  0.00     0.000 HD
BRANCH 21 30
ATOM     28   N  SGN C   2      27.250  34.602 109.7130  0.00  0.00     0.000 N
ATOM     30  HD  SGN C   2      27.979  34.949 110.0290  0.00  0.00     0.000 HD
ATOM     30   S  SGN C   2      28.201  33.399 110.1720  0.00  0.00     0.000 S
ATOM     31   O  SGN C   2      29.396  33.554 109.4130  0.00  0.00     0.000 OA
ATOM     32   O  SGN C   2      28.257  33.385 111.5860  0.00  0.00     0.000 OA
ATOM     33   O  SGN C   2      27.424  32.112 109.7310  0.00  0.00     0.000 OA
ENDBRANCH 21 30
BRANCH 24 34
ATOM     34   C  SGN C   2      24.278  35.598 105.0810  0.00  0.00     0.000 C
ATOM     35   O  SGN C   2      23.567  36.806 104.7600  0.00  0.00     0.000 O
ATOM     36   S  SGN C   2      22.350  36.680 103.7340  0.00  0.00     0.000 S
ATOM     37   O  SGN C   2      21.499  35.649 104.2960  0.00  0.00     0.000 OA
ATOM     38   O  SGN C   2      21.729  37.983 103.7040  0.00  0.00     0.000 OA
ATOM     39   O  SGN C   2      22.979  36.306 102.4910  0.00  0.00     0.000 OA
ENDBRANCH 24 34
BRANCH 20 40
ATOM     40  O4  IDS C   3      24.772  35.565 109.1760  0.00  0.00     0.000 O
BRANCH 40 44
ATOM     41  C1  IDS C   3      23.110  37.762 111.3750  0.00  0.00     0.000 C
ATOM     42  C2  IDS C   3      24.308  36.933 111.8300  0.00  0.00     0.000 C
ATOM     43  C3  IDS C   3      24.094  35.460 111.4900  0.00  0.00     0.000 C
ATOM     44  C4  IDS C   3      23.673  35.271 110.0420  0.00  0.00     0.000 C
ATOM     45  C5  IDS C   3      22.488  36.205 109.7130  0.00  0.00     0.000 C
ATOM     46  O5  IDS C   3      22.858  37.558 109.9880  0.00  0.00     0.000 O
ATOM     47   O  IDS C   3      23.105  34.913 112.3590  0.00  0.00     0.000 O
ATOM     49  HD  IDS C   3      23.904  35.202 112.1910  0.00  0.00     0.000 HD
BRANCH 42 49
ATOM     49   O  IDS C   3      25.539  37.402 111.1510  0.00  0.00     0.000 O
ATOM     50   S  IDS C   3      26.877  37.629 112.0020  0.00  0.00     0.000 S
ATOM     51   O  IDS C   3      27.303  36.283 112.3180  0.00  0.00     0.000 OA
ATOM     52   O  IDS C   3      26.569  38.410 113.1880  0.00  0.00     0.000 OA
ATOM     53   O  IDS C   3      27.796  38.319 111.1210  0.00  0.00     0.000 OA
ENDBRANCH 42 49
BRANCH 45 54
ATOM     54   C  IDS C   3      22.028  36.108 108.2670  0.00  0.00     0.000 C
ATOM     55   O  IDS C   3      22.022  37.093 107.5760  0.00  0.00     0.000 OA
ATOM     56   O  IDS C   3      21.652  35.042 107.8210  0.00  0.00     0.000 OA
ENDBRANCH 45 54
BRANCH 41 57
ATOM     57  O4  SGN C   4      22.147  37.591 112.2890  0.00  0.00     0.000 O
BRANCH 57 61
ATOM     58  C1  SGN C   4      18.445  39.278 113.2800  0.00  0.00     0.000 C
ATOM     59  C2  SGN C   4      18.538  38.565 111.9220  0.00  0.00     0.000 C
ATOM     60  C3  SGN C   4      19.774  37.657 111.8560  0.00  0.00     0.000 C
ATOM     61  C4  SGN C   4      21.015  38.463 112.2000  0.00  0.00     0.000 C
ATOM     62  C5  SGN C   4      20.841  39.166 113.5450  0.00  0.00     0.000 C
ATOM     63  O5  SGN C   4      19.652  39.979 113.5430  0.00  0.00     0.000 O
BRANCH 59 66
ATOM     64   N  SGN C   4      17.220  37.946 111.7490  0.00  0.00     0.000 N
ATOM     66  HD  SGN C   4      18.063  38.137 111.6900  0.00  0.00     0.000 HD
ATOM     66   O  SGN C   4      15.168  37.481 110.5210  0.00  0.00     0.000 OA
ATOM     67   O  SGN C   4      16.142  39.737 110.4730  0.00  0.00     0.000 OA
ATOM     68   S  SGN C   4      16.395  38.192 110.3950  0.00  0.00     0.000 S
ATOM     69   O  SGN C   4      17.248  37.919 109.2950  0.00  0.00     0.000 OA
ENDBRANCH 59 66
BRANCH 62 70
ATOM     70   C  SGN C   4      22.003  40.079 113.8470  0.00  0.00     0.000 C
ATOM     71   S  SGN C   4      23.451  41.958 112.8740  0.00  0.00     0.000 S
ATOM     72   O  SGN C   4      23.336  42.676 114.1280  0.00  0.00     0.000 OA
ATOM     73   O  SGN C   4      24.580  41.051 112.8340  0.00  0.00     0.000 OA
ATOM     74   O  SGN C   4      23.344  42.806 111.7100  0.00  0.00     0.000 OA
ATOM     75   O  SGN C   4      22.149  41.052 112.8060  0.00  0.00     0.000 O
ENDBRANCH 62 70
ENDBRANCH 57 61
ENDBRANCH 41 57
ENDBRANCH 40 44
ENDBRANCH 20 40
ENDBRANCH 19 23
ENDBRANCH 1 19
TORSDOF 14
ENDMDL
MODEL 9
REMARK VINA RESULT:       0.1     69.803     74.511
ROOT
ATOM      1  C1  IDS C   1      84.409  74.233  10.0150  0.00  0.00     0.000 C
ATOM      2  C2  IDS C   1      84.477  72.783   9.5700  0.00  0.00     0.000 C
ATOM      3  C3  IDS C   1      85.018  72.678   8.1490  0.00  0.00     0.000 C
ATOM      4  C4  IDS C   1      86.326  73.456   7.9980  0.00  0.00     0.000 C
ATOM      5  C5  IDS C   1      86.169  74.880   8.5670  0.00  0.00     0.000 C
ATOM      6  O5  IDS C   1      85.699  74.832   9.9100  0.00  0.00     0.000 O
ATOM      7   O  IDS C   1      84.039  73.164   7.2300  0.00  0.00     0.000 O
ATOM      9  HD  IDS C   1      84.766  73.317   6.7840  0.00  0.00     0.000 HD
ATOM      9   O  IDS C   1      87.363  72.769   8.7160  0.00  0.00     0.000 O
ATOM     11  HD  IDS C   1      88.090  72.921   8.2710  0.00  0.00     0.000 HD
ENDROOT
BRANCH 2 11
ATOM     11   O  IDS C   1      85.385  72.020  10.4550  0.00  0.00     0.000 O
ATOM     12   S  IDS C   1      84.807  70.927  11.4670  0.00  0.00     0.000 S
ATOM     13   O  IDS C   1      85.854  69.929  11.4720  0.00  0.00     0.000 OA
ATOM     14   O  IDS C   1      83.552  70.424  10.9610  0.00  0.00     0.000 OA
ATOM     15   O  IDS C   1      84.674  71.627  12.7200  0.00  0.00     0.000 OA
ENDBRANCH 2 11
BRANCH 5 16
ATOM     16   C  IDS C   1      87.461  75.676   8.5570  0.00  0.00     0.000 C
ATOM     17   O  IDS C   1      87.451  76.812   8.9820  0.00  0.00     0.000 OA
ATOM     18   O  IDS C   1      88.473  75.200   8.1220  0.00  0.00     0.000 OA
ENDBRANCH 5 16
BRANCH 1 19
ATOM     19  O4  SGN C   2      83.381  74.987   9.6150  0.00  0.00     0.000 O
BRANCH 19 23
ATOM     20  C1  SGN C   2      80.905  78.203  10.5890  0.00  0.00     0.000 C
ATOM     21  C2  SGN C   2      82.343  78.545  10.1820  0.00  0.00     0.000 C
ATOM     22  C3  SGN C   2      82.969  77.358   9.4540  0.00  0.00     0.000 C
ATOM     23  C4  SGN C   2      82.906  76.121  10.3420  0.00  0.00     0.000 C
ATOM     24  C5  SGN C   2      81.463  75.876  10.7910  0.00  0.00     0.000 C
ATOM     25  O5  SGN C   2      80.941  77.058  11.4250  0.00  0.00     0.000 O
ATOM     26   O  SGN C   2      84.310  77.653   9.0820  0.00  0.00     0.000 O
ATOM     28  HD  SGN C   2      85.090  77.936   8.8340  0.00  0.00     0.000 HD
BRANCH 21 30
ATOM     28   N  SGN C   2      81.865  79.864   9.7460  0.00  0.00     0.000 N
ATOM     30  HD  SGN C   2      82.187  80.190   9.0120  0.00  0.00     0.000 HD
ATOM     30   S  SGN C   2      82.663  81.200  10.1180  0.00  0.00     0.000 S
ATOM     31   O  SGN C   2      83.997  80.978   9.6730  0.00  0.00     0.000 OA
ATOM     32   O  SGN C   2      81.931  82.310   9.6330  0.00  0.00     0.000 OA
ATOM     33   O  SGN C   2      82.600  81.257  11.6830  0.00  0.00     0.000 OA
ENDBRANCH 21 30
BRANCH 24 34
ATOM     34   C  SGN C   2      81.321  74.756  11.7950  0.00  0.00     0.000 C
ATOM     35   O  SGN C   2      80.768  73.604  11.1350  0.00  0.00     0.000 O
ATOM     36   S  SGN C   2      80.100  72.488  12.0620  0.00  0.00     0.000 S
ATOM     37   O  SGN C   2      79.129  73.208  12.8630  0.00  0.00     0.000 OA
ATOM     38   O  SGN C   2      79.505  71.536  11.1560  0.00  0.00     0.000 OA
ATOM     39   O  SGN C   2      81.206  71.957  12.8200  0.00  0.00     0.000 OA
ENDBRANCH 24 34
BRANCH 20 40
ATOM     40  O4  IDS C   3      80.020  78.006   9.6150  0.00  0.00     0.000 O
BRANCH 40 44
ATOM     41  C1  IDS C   3      77.653  77.916   7.0040  0.00  0.00     0.000 C
ATOM     42  C2  IDS C   3      78.565  79.121   7.2120  0.00  0.00     0.000 C
ATOM     43  C3  IDS C   3      78.484  79.605   8.6580  0.00  0.00     0.000 C
ATOM     44  C4  IDS C   3      78.665  78.462   9.6450  0.00  0.00     0.000 C
ATOM     45  C5  IDS C   3      77.717  77.300   9.2820  0.00  0.00     0.000 C
ATOM     46  O5  IDS C   3      77.965  76.885   7.9370  0.00  0.00     0.000 O
ATOM     47   O  IDS C   3      77.226  80.240   8.8750  0.00  0.00     0.000 O
ATOM     49  HD  IDS C   3      78.031  80.219   8.5540  0.00  0.00     0.000 HD
BRANCH 42 49
ATOM     49   O  IDS C   3      79.969  78.755   6.9130  0.00  0.00     0.000 O
ATOM     50   S  IDS C   3      80.854  79.705   5.9750  0.00  0.00     0.000 S
ATOM     51   O  IDS C   3      81.105  80.859   6.8090  0.00  0.00     0.000 OA
ATOM     52   O  IDS C   3      80.102  80.036   4.7760  0.00  0.00     0.000 OA
ATOM     53   O  IDS C   3      82.056  78.957   5.6720  0.00  0.00     0.000 OA
ENDBRANCH 42 49
BRANCH 45 54
ATOM     54   C  IDS C   3      77.862  76.096  10.2000  0.00  0.00     0.000 C
ATOM     55   O  IDS C   3      78.118  75.016   9.7310  0.00  0.00     0.000 OA
ATOM     56   O  IDS C   3      77.701  76.223  11.3980  0.00  0.00     0.000 OA
ENDBRANCH 45 54
BRANCH 41 57
ATOM     57  O4  SGN C   4      76.406  78.385   6.8790  0.00  0.00     0.000 O
BRANCH 57 61
ATOM     58  C1  SGN C   4      72.655  76.982   5.6590  0.00  0.00     0.000 C
ATOM     59  C2  SGN C   4      73.356  76.197   6.7790  0.00  0.00     0.000 C
ATOM     60  C3  SGN C   4      74.488  77.020   7.4080  0.00  0.00     0.000 C
ATOM     61  C4  SGN C   4      75.436  77.494   6.3200  0.00  0.00     0.000 C
ATOM     62  C5  SGN C   4      74.670  78.239   5.2280  0.00  0.00     0.000 C
ATOM     63  O5  SGN C   4      73.610  77.417   4.7020  0.00  0.00     0.000 O
BRANCH 59 66
ATOM     64   N  SGN C   4      72.257  75.755   7.6450  0.00  0.00     0.000 N
ATOM     66  HD  SGN C   4      73.035  75.984   7.3400  0.00  0.00     0.000 HD
ATOM     66   O  SGN C   4      70.991  74.087   8.8890  0.00  0.00     0.000 OA
ATOM     67   O  SGN C   4      71.898  73.536   6.6720  0.00  0.00     0.000 OA
ATOM     68   S  SGN C   4      72.145  74.211   8.0660  0.00  0.00     0.000 S
ATOM     69   O  SGN C   4      73.404  73.790   8.5650  0.00  0.00     0.000 OA
ENDBRANCH 59 66
BRANCH 62 70
ATOM     70   C  SGN C   4      75.566  78.602   4.0710  0.00  0.00     0.000 C
ATOM     71   S  SGN C   4      76.968  77.615   2.1650  0.00  0.00     0.000 S
ATOM     72   O  SGN C   4      76.407  78.600   1.2620  0.00  0.00     0.000 OA
ATOM     73   O  SGN C   4      78.172  78.069   2.8320  0.00  0.00     0.000 OA
ATOM     74   O  SGN C   4      77.085  76.298   1.5840  0.00  0.00     0.000 OA
ATOM     75   O  SGN C   4      75.871  77.435   3.2990  0.00  0.00     0.000 O
ENDBRANCH 62 70
ENDBRANCH 57 61
ENDBRANCH 41 57
ENDBRANCH 40 44
ENDBRANCH 20 40
ENDBRANCH 19 23
ENDBRANCH 1 19
TORSDOF 14
ENDMDL
MODEL 10
REMARK VINA RESULT:       0.1     64.956     69.841
ROOT
ATOM      1  C1  IDS C   1      40.965  73.719  68.3670  0.00  0.00     0.000 C
ATOM      2  C2  IDS C   1      40.139  72.447  68.3170  0.00  0.00     0.000 C
ATOM      3  C3  IDS C   1      41.027  71.219  68.4760  0.00  0.00     0.000 C
ATOM      4  C4  IDS C   1      41.932  71.346  69.7020  0.00  0.00     0.000 C
ATOM      5  C5  IDS C   1      42.648  72.712  69.6960  0.00  0.00     0.000 C
ATOM      6  O5  IDS C   1      41.702  73.770  69.5880  0.00  0.00     0.000 O
ATOM      7   O  IDS C   1      41.810  71.041  67.2930  0.00  0.00     0.000 O
ATOM      9  HD  IDS C   1      42.322  70.665  67.8820  0.00  0.00     0.000 HD
ATOM      9   O  IDS C   1      41.130  71.234  70.8870  0.00  0.00     0.000 O
ATOM     11  HD  IDS C   1      41.642  70.858  71.4760  0.00  0.00     0.000 HD
ENDROOT
BRANCH 2 11
ATOM     11   O  IDS C   1      39.154  72.434  69.4210  0.00  0.00     0.000 O
ATOM     12   S  IDS C   1      37.586  72.441  69.1130  0.00  0.00     0.000 S
ATOM     13   O  IDS C   1      37.058  71.631  70.1880  0.00  0.00     0.000 OA
ATOM     14   O  IDS C   1      37.352  71.868  67.8090  0.00  0.00     0.000 OA
ATOM     15   O  IDS C   1      37.205  73.829  69.1990  0.00  0.00     0.000 OA
ENDBRANCH 2 11
BRANCH 5 16
ATOM     16   C  IDS C   1      43.477  72.959  70.9440  0.00  0.00     0.000 C
ATOM     17   O  IDS C   1      42.914  73.308  71.9600  0.00  0.00     0.000 OA
ATOM     18   O  IDS C   1      44.670  72.829  70.9260  0.00  0.00     0.000 OA
ENDBRANCH 5 16
BRANCH 1 19
ATOM     19  O4  SGN C   2      41.624  74.109  67.2710  0.00  0.00     0.000 O
BRANCH 19 23
ATOM     20  C1  SGN C   2      42.882  77.388  65.0150  0.00  0.00     0.000 C
ATOM     21  C2  SGN C   2      43.647  77.118  66.3170  0.00  0.00     0.000 C
ATOM     22  C3  SGN C   2      43.379  75.690  66.7860  0.00  0.00     0.000 C
ATOM     23  C4  SGN C   2      41.879  75.477  66.9500  0.00  0.00     0.000 C
ATOM     24  C5  SGN C   2      41.156  75.843  65.6510  0.00  0.00     0.000 C
ATOM     25  O5  SGN C   2      41.501  77.186  65.2630  0.00  0.00     0.000 O
ATOM     26   O  SGN C   2      44.069  75.428  68.0020  0.00  0.00     0.000 O
ATOM     28  HD  SGN C   2      44.573  75.329  68.7000  0.00  0.00     0.000 HD
BRANCH 21 30
ATOM     28   N  SGN C   2      44.687  77.940  65.6860  0.00  0.00     0.000 N
ATOM     30  HD  SGN C   2      45.484  77.607  65.6210  0.00  0.00     0.000 HD
ATOM     30   S  SGN C   2      45.667  78.854  66.5610  0.00  0.00     0.000 S
ATOM     31   O  SGN C   2      46.238  77.976  67.5260  0.00  0.00     0.000 OA
ATOM     32   O  SGN C   2      46.506  79.582  65.6830  0.00  0.00     0.000 OA
ATOM     33   O  SGN C   2      44.711  79.889  67.2450  0.00  0.00     0.000 OA
ENDBRANCH 21 30
BRANCH 24 34
ATOM     34   C  SGN C   2      39.650  75.805  65.7630  0.00  0.00     0.000 C
ATOM     35   O  SGN C   2      39.160  74.644  65.0700  0.00  0.00     0.000 O
ATOM     36   S  SGN C   2      37.619  74.646  64.6520  0.00  0.00     0.000 S
ATOM     37   O  SGN C   2      37.441  75.874  63.9030  0.00  0.00     0.000 OA
ATOM     38   O  SGN C   2      37.430  73.456  63.8580  0.00  0.00     0.000 OA
ATOM     39   O  SGN C   2      36.916  74.622  65.9120  0.00  0.00     0.000 OA
ENDBRANCH 24 34
BRANCH 20 40
ATOM     40  O4  IDS C   3      43.240  76.695  63.9370  0.00  0.00     0.000 O
BRANCH 40 44
ATOM     41  C1  IDS C   3      44.549  75.150  61.0510  0.00  0.00     0.000 C
ATOM     42  C2  IDS C   3      45.424  76.003  61.9660  0.00  0.00     0.000 C
ATOM     43  C3  IDS C   3      44.777  77.366  62.2000  0.00  0.00     0.000 C
ATOM     44  C4  IDS C   3      43.320  77.233  62.6150  0.00  0.00     0.000 C
ATOM     45  C5  IDS C   3      42.575  76.308  61.6300  0.00  0.00     0.000 C
ATOM     46  O5  IDS C   3      43.231  75.039  61.5800  0.00  0.00     0.000 O
ATOM     47   O  IDS C   3      44.874  78.146  61.0120  0.00  0.00     0.000 O
ATOM     49  HD  IDS C   3      45.211  77.788  61.7250  0.00  0.00     0.000 HD
BRANCH 42 49
ATOM     49   O  IDS C   3      45.599  75.330  63.2750  0.00  0.00     0.000 O
ATOM     50   S  IDS C   3      47.055  75.255  63.9390  0.00  0.00     0.000 S
ATOM     51   O  IDS C   3      47.300  76.616  64.3610  0.00  0.00     0.000 OA
ATOM     52   O  IDS C   3      48.014  74.795  62.9490  0.00  0.00     0.000 OA
ATOM     53   O  IDS C   3      46.937  74.333  65.0500  0.00  0.00     0.000 OA
ENDBRANCH 42 49
BRANCH 45 54
ATOM     54   C  IDS C   3      41.115  76.089  61.9960  0.00  0.00     0.000 C
ATOM     55   O  IDS C   3      40.700  74.969  62.1480  0.00  0.00     0.000 OA
ATOM     56   O  IDS C   3      40.370  77.042  62.1150  0.00  0.00     0.000 OA
ENDBRANCH 45 54
BRANCH 41 57
ATOM     57  O4  SGN C   4      44.762  75.575  59.8000  0.00  0.00     0.000 O
BRANCH 57 61
ATOM     58  C1  SGN C   4      43.861  74.364  55.8950  0.00  0.00     0.000 C
ATOM     59  C2  SGN C   4      42.678  74.808  56.7710  0.00  0.00     0.000 C
ATOM     60  C3  SGN C   4      43.162  75.599  57.9940  0.00  0.00     0.000 C
ATOM     61  C4  SGN C   4      44.198  74.784  58.7490  0.00  0.00     0.000 C
ATOM     62  C5  SGN C   4      45.326  74.352  57.8120  0.00  0.00     0.000 C
ATOM     63  O5  SGN C   4      44.798  73.639  56.6780  0.00  0.00     0.000 O
BRANCH 59 66
ATOM     64   N  SGN C   4      41.758  75.503  55.8640  0.00  0.00     0.000 N
ATOM     66  HD  SGN C   4      42.168  75.210  56.5690  0.00  0.00     0.000 HD
ATOM     66   O  SGN C   4      39.602  75.855  54.7860  0.00  0.00     0.000 OA
ATOM     67   O  SGN C   4      40.443  73.571  55.1310  0.00  0.00     0.000 OA
ATOM     68   S  SGN C   4      40.239  75.004  55.7330  0.00  0.00     0.000 S
ATOM     69   O  SGN C   4      39.694  74.883  57.0370  0.00  0.00     0.000 OA
ENDBRANCH 59 66
BRANCH 62 70
ATOM     70   C  SGN C   4      46.298  73.430  58.5040  0.00  0.00     0.000 C
ATOM     71   S  SGN C   4      46.455  71.377  60.0310  0.00  0.00     0.000 S
ATOM     72   O  SGN C   4      47.478  70.827  59.1630  0.00  0.00     0.000 OA
ATOM     73   O  SGN C   4      46.988  72.216  61.0850  0.00  0.00     0.000 OA
ATOM     74   O  SGN C   4      45.502  70.395  60.4930  0.00  0.00     0.000 OA
ATOM     75   O  SGN C   4      45.597  72.328  59.0930  0.00  0.00     0.000 O
ENDBRANCH 62 70
ENDBRANCH 57 61
ENDBRANCH 41 57
ENDBRANCH 40 44
ENDBRANCH 20 40
ENDBRANCH 19 23
ENDBRANCH 1 19
TORSDOF 14
ENDMDL
MODEL 11
REMARK VINA RESULT:       0.1     69.515     74.581
ROOT
ATOM      1  C1  IDS C   1      68.931  49.813  82.4730  0.00  0.00     0.000 C
ATOM      2  C2  IDS C   1      69.324  48.347  82.4240  0.00  0.00     0.000 C
ATOM      3  C3  IDS C   1      68.169  47.496  81.9120  0.00  0.00     0.000 C
ATOM      4  C4  IDS C   1      67.610  48.053  80.6030  0.00  0.00     0.000 C
ATOM      5  C5  IDS C   1      67.336  49.564  80.7390  0.00  0.00     0.000 C
ATOM      6  O5  IDS C   1      68.506  50.244  81.1810  0.00  0.00     0.000 O
ATOM      7   O  IDS C   1      67.145  47.434  82.9070  0.00  0.00     0.000 O
ATOM      9  HD  IDS C   1      66.677  47.315  82.1880  0.00  0.00     0.000 HD
ATOM      9   O  IDS C   1      68.569  47.835  79.5560  0.00  0.00     0.000 O
ATOM     11  HD  IDS C   1      68.101  47.716  78.8370  0.00  0.00     0.000 HD
ENDROOT
BRANCH 2 11
ATOM     11   O  IDS C   1      70.466  48.156  81.5030  0.00  0.00     0.000 O
ATOM     12   S  IDS C   1      71.908  47.759  82.0670  0.00  0.00     0.000 S
ATOM     13   O  IDS C   1      72.423  46.906  81.0180  0.00  0.00     0.000 OA
ATOM     14   O  IDS C   1      71.757  47.074  83.3280  0.00  0.00     0.000 OA
ATOM     15   O  IDS C   1      72.609  49.014  82.1830  0.00  0.00     0.000 OA
ENDBRANCH 2 11
BRANCH 5 16
ATOM     16   C  IDS C   1      66.887  50.212  79.4420  0.00  0.00     0.000 C
ATOM     17   O  IDS C   1      66.752  49.517  78.4570  0.00  0.00     0.000 OA
ATOM     18   O  IDS C   1      66.684  51.393  79.3820  0.00  0.00     0.000 OA
ENDBRANCH 5 16
BRANCH 1 19
ATOM     19  O4  SGN C   2      68.205  50.256  83.5040  0.00  0.00     0.000 O
BRANCH 19 23
ATOM     20  C1  SGN C   2      67.375  53.527  85.9620  0.00  0.00     0.000 C
ATOM     21  C2  SGN C   2      66.883  53.617  84.5120  0.00  0.00     0.000 C
ATOM     22  C3  SGN C   2      66.865  52.225  83.8860  0.00  0.00     0.000 C
ATOM     23  C4  SGN C   2      68.253  51.602  83.9800  0.00  0.00     0.000 C
ATOM     24  C5  SGN C   2      68.732  51.616  85.4350  0.00  0.00     0.000 C
ATOM     25  O5  SGN C   2      68.673  52.957  85.9540  0.00  0.00     0.000 O
ATOM     26   O  SGN C   2      66.426  52.292  82.5340  0.00  0.00     0.000 O
ATOM     28  HD  SGN C   2      66.086  52.411  81.7460  0.00  0.00     0.000 HD
BRANCH 21 30
ATOM     28   N  SGN C   2      65.921  54.601  85.0260  0.00  0.00     0.000 N
ATOM     30  HD  SGN C   2      65.089  54.507  84.8070  0.00  0.00     0.000 HD
ATOM     30   S  SGN C   2      65.500  55.880  84.1600  0.00  0.00     0.000 S
ATOM     31   O  SGN C   2      65.065  55.359  82.9080  0.00  0.00     0.000 OA
ATOM     32   O  SGN C   2      64.628  56.680  84.9360  0.00  0.00     0.000 OA
ATOM     33   O  SGN C   2      66.835  56.684  83.9960  0.00  0.00     0.000 OA
ENDBRANCH 21 30
BRANCH 24 34
ATOM     34   C  SGN C   2      70.159  51.154  85.6080  0.00  0.00     0.000 C
ATOM     35   O  SGN C   2      70.157  49.845  86.2060  0.00  0.00     0.000 O
ATOM     36   S  SGN C   2      71.509  49.366  86.9070  0.00  0.00     0.000 S
ATOM     37   O  SGN C   2      71.833  50.422  87.8460  0.00  0.00     0.000 OA
ATOM     38   O  SGN C   2      71.194  48.109  87.5420  0.00  0.00     0.000 OA
ATOM     39   O  SGN C   2      72.444  49.247  85.8150  0.00  0.00     0.000 OA
ENDBRANCH 24 34
BRANCH 20 40
ATOM     40  O4  IDS C   3      66.612  52.867  86.8300  0.00  0.00     0.000 O
BRANCH 40 44
ATOM     41  C1  IDS C   3      64.315  51.518  89.1390  0.00  0.00     0.000 C
ATOM     42  C2  IDS C   3      63.947  52.698  88.2430  0.00  0.00     0.000 C
ATOM     43  C3  IDS C   3      64.995  53.801  88.3600  0.00  0.00     0.000 C
ATOM     44  C4  IDS C   3      66.405  53.258  88.1900  0.00  0.00     0.000 C
ATOM     45  C5  IDS C   3      66.616  52.043  89.1180  0.00  0.00     0.000 C
ATOM     46  O5  IDS C   3      65.627  51.051  88.8370  0.00  0.00     0.000 O
ATOM     47   O  IDS C   3      64.871  54.439  89.6290  0.00  0.00     0.000 O
ATOM     49  HD  IDS C   3      64.609  54.286  88.8180  0.00  0.00     0.000 HD
BRANCH 42 49
ATOM     49   O  IDS C   3      63.874  52.261  86.8300  0.00  0.00     0.000 O
ATOM     50   S  IDS C   3      62.617  52.685  85.9310  0.00  0.00     0.000 S
ATOM     51   O  IDS C   3      62.828  54.099  85.7110  0.00  0.00     0.000 OA
ATOM     52   O  IDS C   3      61.389  52.411  86.6590  0.00  0.00     0.000 OA
ATOM     53   O  IDS C   3      62.715  51.905  84.7160  0.00  0.00     0.000 OA
ENDBRANCH 42 49
BRANCH 45 54
ATOM     54   C  IDS C   3      67.993  51.412  88.9810  0.00  0.00     0.000 C
ATOM     55   O  IDS C   3      68.977  52.093  89.1130  0.00  0.00     0.000 OA
ATOM     56   O  IDS C   3      68.095  50.229  88.7220  0.00  0.00     0.000 OA
ENDBRANCH 45 54
BRANCH 41 57
ATOM     57  O4  SGN C   4      63.966  51.851  90.3880  0.00  0.00     0.000 O
BRANCH 57 61
ATOM     58  C1  SGN C   4      63.697  50.029  94.1470  0.00  0.00     0.000 C
ATOM     59  C2  SGN C   4      65.106  50.174  93.5490  0.00  0.00     0.000 C
ATOM     60  C3  SGN C   4      65.119  51.196  92.4040  0.00  0.00     0.000 C
ATOM     61  C4  SGN C   4      64.063  50.822  91.3770  0.00  0.00     0.000 C
ATOM     62  C5  SGN C   4      62.698  50.665  92.0450  0.00  0.00     0.000 C
ATOM     63  O5  SGN C   4      62.766  49.712  93.1230  0.00  0.00     0.000 O
BRANCH 59 66
ATOM     64   N  SGN C   4      65.964  50.429  94.7100  0.00  0.00     0.000 N
ATOM     66  HD  SGN C   4      65.643  50.388  93.9070  0.00  0.00     0.000 HD
ATOM     66   O  SGN C   4      67.898  50.013  96.1320  0.00  0.00     0.000 OA
ATOM     67   O  SGN C   4      66.660  48.124  95.1610  0.00  0.00     0.000 OA
ATOM     68   S  SGN C   4      67.284  49.545  94.9360  0.00  0.00     0.000 S
ATOM     69   O  SGN C   4      68.029  49.536  93.7290  0.00  0.00     0.000 OA
ENDBRANCH 59 66
BRANCH 62 70
ATOM     70   C  SGN C   4      61.659  50.164  91.0730  0.00  0.00     0.000 C
ATOM     71   S  SGN C   4      61.169  48.328  89.3530  0.00  0.00     0.000 S
ATOM     72   O  SGN C   4      59.845  48.167  89.9220  0.00  0.00     0.000 OA
ATOM     73   O  SGN C   4      61.223  49.319  88.2970  0.00  0.00     0.000 OA
ATOM     74   O  SGN C   4      61.806  47.077  89.0110  0.00  0.00     0.000 OA
ATOM     75   O  SGN C   4      62.056  48.894  90.5420  0.00  0.00     0.000 O
ENDBRANCH 62 70
ENDBRANCH 57 61
ENDBRANCH 41 57
ENDBRANCH 40 44
ENDBRANCH 20 40
ENDBRANCH 19 23
ENDBRANCH 1 19
TORSDOF 14
ENDMDL
MODEL 12
REMARK VINA RESULT:       0.1     61.599     66.601
ROOT
ATOM      1  C1  IDS C   1      88.920  84.789   7.4710  0.00  0.00     0.000 C
ATOM      2  C2  IDS C   1      88.671  83.727   8.5270  0.00  0.00     0.000 C
ATOM      3  C3  IDS C   1      87.286  83.113   8.3600  0.00  0.00     0.000 C
ATOM      4  C4  IDS C   1      87.056  82.651   6.9210  0.00  0.00     0.000 C
ATOM      5  C5  IDS C   1      87.429  83.775   5.9340  0.00  0.00     0.000 C
ATOM      6  O5  IDS C   1      88.758  84.225   6.1700  0.00  0.00     0.000 O
ATOM      7   O  IDS C   1      86.293  84.067   8.7440  0.00  0.00     0.000 O
ATOM      9  HD  IDS C   1      85.844  83.587   8.1800  0.00  0.00     0.000 HD
ATOM      9   O  IDS C   1      87.875  81.500   6.6640  0.00  0.00     0.000 O
ATOM     11  HD  IDS C   1      87.426  81.020   6.1000  0.00  0.00     0.000 HD
ENDROOT
BRANCH 2 11
ATOM     11   O  IDS C   1      89.663  82.636   8.3980  0.00  0.00     0.000 O
ATOM     12   S  IDS C   1      90.772  82.408   9.5260  0.00  0.00     0.000 S
ATOM     13   O  IDS C   1      90.922  80.969   9.5220  0.00  0.00     0.000 OA
ATOM     14   O  IDS C   1      90.286  82.920  10.7850  0.00  0.00     0.000 OA
ATOM     15   O  IDS C   1      91.934  83.108   9.0400  0.00  0.00     0.000 OA
ENDBRANCH 2 11
BRANCH 5 16
ATOM     16   C  IDS C   1      87.336  83.351   4.4800  0.00  0.00     0.000 C
ATOM     17   O  IDS C   1      87.624  84.154   3.6170  0.00  0.00     0.000 OA
ATOM     18   O  IDS C   1      86.969  82.248   4.1830  0.00  0.00     0.000 OA
ENDBRANCH 5 16
BRANCH 1 19
ATOM     19  O4  SGN C   2      88.406  86.010   7.6460  0.00  0.00     0.000 O
BRANCH 19 23
ATOM     20  C1  SGN C   2      88.940  90.089   6.9340  0.00  0.00     0.000 C
ATOM     21  C2  SGN C   2      88.564  89.226   5.7240  0.00  0.00     0.000 C
ATOM     22  C3  SGN C   2      87.988  87.894   6.1990  0.00  0.00     0.000 C
ATOM     23  C4  SGN C   2      88.994  87.196   7.1070  0.00  0.00     0.000 C
ATOM     24  C5  SGN C   2      89.401  88.132   8.2480  0.00  0.00     0.000 C
ATOM     25  O5  SGN C   2      89.888  89.374   7.7100  0.00  0.00     0.000 O
ATOM     26   O  SGN C   2      87.648  87.074   5.0870  0.00  0.00     0.000 O
ATOM     28  HD  SGN C   2      87.406  86.669   4.3610  0.00  0.00     0.000 HD
BRANCH 21 30
ATOM     28   N  SGN C   2      88.023  90.449   5.1170  0.00  0.00     0.000 N
ATOM     30  HD  SGN C   2      87.252  90.401   4.7260  0.00  0.00     0.000 HD
ATOM     30   S  SGN C   2      88.246  90.775   3.5670  0.00  0.00     0.000 S
ATOM     31   O  SGN C   2      87.783  89.623   2.8700  0.00  0.00     0.000 OA
ATOM     32   O  SGN C   2      87.683  92.044   3.2890  0.00  0.00     0.000 OA
ATOM     33   O  SGN C   2      89.800  90.924   3.4300  0.00  0.00     0.000 OA
ENDBRANCH 21 30
BRANCH 24 34
ATOM     34   C  SGN C   2      90.506  87.581   9.1190  0.00  0.00     0.000 C
ATOM     35   O  SGN C   2      89.941  87.130  10.3620  0.00  0.00     0.000 O
ATOM     36   S  SGN C   2      90.942  86.957  11.5940  0.00  0.00     0.000 S
ATOM     37   O  SGN C   2      91.615  88.237  11.7040  0.00  0.00     0.000 OA
ATOM     38   O  SGN C   2      90.110  86.647  12.7310  0.00  0.00     0.000 OA
ATOM     39   O  SGN C   2      91.805  85.874  11.1920  0.00  0.00     0.000 OA
ENDBRANCH 24 34
BRANCH 20 40
ATOM     40  O4  IDS C   3      87.953  90.505   7.7240  0.00  0.00     0.000 O
BRANCH 40 44
ATOM     41  C1  IDS C   3      85.253  91.928   9.4870  0.00  0.00     0.000 C
ATOM     42  C2  IDS C   3      85.403  92.106   7.9790  0.00  0.00     0.000 C
ATOM     43  C3  IDS C   3      86.799  92.624   7.6420  0.00  0.00     0.000 C
ATOM     44  C4  IDS C   3      87.884  91.802   8.3210  0.00  0.00     0.000 C
ATOM     45  C5  IDS C   3      87.574  91.666   9.8270  0.00  0.00     0.000 C
ATOM     46  O5  IDS C   3      86.280  91.083   9.9960  0.00  0.00     0.000 O
ATOM     47   O  IDS C   3      86.905  93.989   8.0370  0.00  0.00     0.000 O
ATOM     49  HD  IDS C   3      86.625  93.363   7.5090  0.00  0.00     0.000 HD
BRANCH 42 49
ATOM     49   O  IDS C   3      85.200  90.810   7.2900  0.00  0.00     0.000 O
ATOM     50   S  IDS C   3      84.202  90.724   6.0400  0.00  0.00     0.000 S
ATOM     51   O  IDS C   3      84.921  91.415   4.9920  0.00  0.00     0.000 OA
ATOM     52   O  IDS C   3      82.947  91.374   6.3770  0.00  0.00     0.000 OA
ATOM     53   O  IDS C   3      84.028  89.313   5.7670  0.00  0.00     0.000 OA
ENDBRANCH 42 49
BRANCH 45 54
ATOM     54   C  IDS C   3      88.592  90.822  10.5770  0.00  0.00     0.000 C
ATOM     55   O  IDS C   3      88.231  89.841  11.1730  0.00  0.00     0.000 OA
ATOM     56   O  IDS C   3      89.763  91.150  10.5870  0.00  0.00     0.000 OA
ENDBRANCH 45 54
BRANCH 41 57
ATOM     57  O4  SGN C   4      85.033  93.143  10.0040  0.00  0.00     0.000 O
BRANCH 57 61
ATOM     58  C1  SGN C   4      84.215  94.841  13.7430  0.00  0.00     0.000 C
ATOM     59  C2  SGN C   4      85.632  94.283  13.5320  0.00  0.00     0.000 C
ATOM     60  C3  SGN C   4      85.930  94.075  12.0410  0.00  0.00     0.000 C
ATOM     61  C4  SGN C   4      84.843  93.213  11.4210  0.00  0.00     0.000 C
ATOM     62  C5  SGN C   4      83.464  93.811  11.6940  0.00  0.00     0.000 C
ATOM     63  O5  SGN C   4      83.263  94.000  13.1070  0.00  0.00     0.000 O
BRANCH 59 66
ATOM     64   N  SGN C   4      86.493  95.198  14.2880  0.00  0.00     0.000 N
ATOM     66  HD  SGN C   4      86.195  94.613  13.7230  0.00  0.00     0.000 HD
ATOM     66   O  SGN C   4      88.223  95.723  15.9200  0.00  0.00     0.000 OA
ATOM     67   O  SGN C   4      86.585  93.953  16.3960  0.00  0.00     0.000 OA
ATOM     68   S  SGN C   4      87.547  94.610  15.3460  0.00  0.00     0.000 S
ATOM     69   O  SGN C   4      88.300  93.591  14.7090  0.00  0.00     0.000 OA
ENDBRANCH 59 66
BRANCH 62 70
ATOM     70   C  SGN C   4      82.361  92.906  11.2060  0.00  0.00     0.000 C
ATOM     71   S  SGN C   4      81.495  90.494  11.2790  0.00  0.00     0.000 S
ATOM     72   O  SGN C   4      80.157  90.997  11.5230  0.00  0.00     0.000 OA
ATOM     73   O  SGN C   4      81.806  90.352   9.8710  0.00  0.00     0.000 OA
ATOM     74   O  SGN C   4      81.828  89.332  12.0700  0.00  0.00     0.000 OA
ATOM     75   O  SGN C   4      82.460  91.624  11.8380  0.00  0.00     0.000 O
ENDBRANCH 62 70
ENDBRANCH 57 61
ENDBRANCH 41 57
ENDBRANCH 40 44
ENDBRANCH 20 40
ENDBRANCH 19 23
ENDBRANCH 1 19
TORSDOF 14
ENDMDL
MODEL 13
REMARK VINA RESULT:       0.1     77.158     81.453
ROOT
ATOM      1  C1  IDS C   1      21.935 102.216  55.3360  0.00  0.00     0.000 C
ATOM      2  C2  IDS C   1      23.040 101.519  54.5620  0.00  0.00     0.000 C
ATOM      3  C3  IDS C   1      24.390 102.169  54.8430  0.00  0.00     0.000 C
ATOM      4  C4  IDS C   1      24.642 102.292  56.3450  0.00  0.00     0.000 C
ATOM      5  C5  IDS C   1      23.420 102.926  57.0410  0.00  0.00     0.000 C
ATOM      6  O5  IDS C   1      22.237 102.198  56.7310  0.00  0.00     0.000 O
ATOM      7   O  IDS C   1      24.438 103.454  54.2200  0.00  0.00     0.000 O
ATOM      9  HD  IDS C   1      24.994 103.572  54.8740  0.00  0.00     0.000 HD
ATOM      9   O  IDS C   1      24.873 100.984  56.8880  0.00  0.00     0.000 O
ATOM     11  HD  IDS C   1      25.429 101.101  57.5420  0.00  0.00     0.000 HD
ENDROOT
BRANCH 2 11
ATOM     11   O  IDS C   1      23.132 100.099  54.9700  0.00  0.00     0.000 O
ATOM     12   S  IDS C   1      22.741  98.933  53.9500  0.00  0.00     0.000 S
ATOM     13   O  IDS C   1      23.672  97.887  54.3090  0.00  0.00     0.000 OA
ATOM     14   O  IDS C   1      22.915  99.403  52.5970  0.00  0.00     0.000 OA
ATOM     15   O  IDS C   1      21.371  98.617  54.2690  0.00  0.00     0.000 OA
ENDBRANCH 2 11
BRANCH 5 16
ATOM     16   C  IDS C   1      23.550 102.976  58.5520  0.00  0.00     0.000 C
ATOM     17   O  IDS C   1      22.637 103.441  59.2020  0.00  0.00     0.000 OA
ATOM     18   O  IDS C   1      24.542 102.579  59.0980  0.00  0.00     0.000 OA
ENDBRANCH 5 16
BRANCH 1 19
ATOM     19  O4  SGN C   2      21.434 103.360  54.8620  0.00  0.00     0.000 O
BRANCH 19 23
ATOM     20  C1  SGN C   2      18.031 105.764  54.5990  0.00  0.00     0.000 C
ATOM     21  C2  SGN C   2      18.708 105.685  55.9720  0.00  0.00     0.000 C
ATOM     22  C3  SGN C   2      20.131 105.153  55.8150  0.00  0.00     0.000 C
ATOM     23  C4  SGN C   2      20.098 103.799  55.1160  0.00  0.00     0.000 C
ATOM     24  C5  SGN C   2      19.335 103.915  53.7930  0.00  0.00     0.000 C
ATOM     25  O5  SGN C   2      18.027 104.464  54.0310  0.00  0.00     0.000 O
ATOM     26   O  SGN C   2      20.770 105.058  57.0830  0.00  0.00     0.000 O
ATOM     28  HD  SGN C   2      21.106 105.096  57.8800  0.00  0.00     0.000 HD
BRANCH 21 30
ATOM     28   N  SGN C   2      18.096 106.988  56.2610  0.00  0.00     0.000 N
ATOM     30  HD  SGN C   2      18.589 107.594  56.6360  0.00  0.00     0.000 HD
ATOM     30   S  SGN C   2      17.463 107.307  57.6950  0.00  0.00     0.000 S
ATOM     31   O  SGN C   2      18.494 107.018  58.6340  0.00  0.00     0.000 OA
ATOM     32   O  SGN C   2      16.886 108.599  57.6540  0.00  0.00     0.000 OA
ATOM     33   O  SGN C   2      16.285 106.283  57.8270  0.00  0.00     0.000 OA
ENDBRANCH 21 30
BRANCH 24 34
ATOM     34   C  SGN C   2      19.122 102.591  53.0970  0.00  0.00     0.000 C
ATOM     35   O  SGN C   2      20.060 102.477  52.0130  0.00  0.00     0.000 O
ATOM     36   S  SGN C   2      19.722 101.415  50.8700  0.00  0.00     0.000 S
ATOM     37   O  SGN C   2      18.383 101.757  50.4330  0.00  0.00     0.000 OA
ATOM     38   O  SGN C   2      20.725 101.606  49.8510  0.00  0.00     0.000 OA
ATOM     39   O  SGN C   2      19.810 100.141  51.5420  0.00  0.00     0.000 OA
ENDBRANCH 24 34
BRANCH 20 40
ATOM     40  O4  IDS C   3      18.529 106.626  53.7160  0.00  0.00     0.000 O
BRANCH 40 44
ATOM     41  C1  IDS C   3      19.633 109.203  51.5790  0.00  0.00     0.000 C
ATOM     42  C2  IDS C   3      19.181 109.490  53.0080  0.00  0.00     0.000 C
ATOM     43  C3  IDS C   3      17.803 108.883  53.2610  0.00  0.00     0.000 C
ATOM     44  C4  IDS C   3      17.742 107.426  52.8290  0.00  0.00     0.000 C
ATOM     45  C5  IDS C   3      18.274 107.282  51.3880  0.00  0.00     0.000 C
ATOM     46  O5  IDS C   3      19.603 107.803  51.3160  0.00  0.00     0.000 O
ATOM     47   O  IDS C   3      16.817 109.638  52.5610  0.00  0.00     0.000 O
ATOM     49  HD  IDS C   3      17.378 109.524  53.2110  0.00  0.00     0.000 HD
BRANCH 42 49
ATOM     49   O  IDS C   3      20.141 108.906  53.9730  0.00  0.00     0.000 O
ATOM     50   S  IDS C   3      20.653 109.783  55.2120  0.00  0.00     0.000 S
ATOM     51   O  IDS C   3      19.494 109.851  56.0740  0.00  0.00     0.000 OA
ATOM     52   O  IDS C   3      21.074 111.091  54.7370  0.00  0.00     0.000 OA
ATOM     53   O  IDS C   3      21.748 109.040  55.7990  0.00  0.00     0.000 OA
ENDBRANCH 42 49
BRANCH 45 54
ATOM     54   C  IDS C   3      18.285 105.845  50.8900  0.00  0.00     0.000 C
ATOM     55   O  IDS C   3      19.314 105.357  50.5020  0.00  0.00     0.000 OA
ATOM     56   O  IDS C   3      17.254 105.202  50.8710  0.00  0.00     0.000 OA
ENDBRANCH 45 54
BRANCH 41 57
ATOM     57  O4  SGN C   4      18.997 110.073  50.7850  0.00  0.00     0.000 O
BRANCH 57 61
ATOM     58  C1  SGN C   4      19.306 111.507  46.8640  0.00  0.00     0.000 C
ATOM     59  C2  SGN C   4      19.234 109.981  47.0380  0.00  0.00     0.000 C
ATOM     60  C3  SGN C   4      18.717 109.607  48.4340  0.00  0.00     0.000 C
ATOM     61  C4  SGN C   4      19.565 110.295  49.4910  0.00  0.00     0.000 C
ATOM     62  C5  SGN C   4      19.616 111.801  49.2390  0.00  0.00     0.000 C
ATOM     63  O5  SGN C   4      20.085 112.077  47.9050  0.00  0.00     0.000 O
BRANCH 59 66
ATOM     64   N  SGN C   4      18.468 109.521  45.8750  0.00  0.00     0.000 N
ATOM     66  HD  SGN C   4      18.843 109.578  46.6540  0.00  0.00     0.000 HD
ATOM     66   O  SGN C   4      18.103 108.128  43.9110  0.00  0.00     0.000 OA
ATOM     67   O  SGN C   4      20.342 109.029  44.3770  0.00  0.00     0.000 OA
ATOM     68   S  SGN C   4      19.051 108.348  44.9490  0.00  0.00     0.000 S
ATOM     69   O  SGN C   4      19.432 107.266  45.7850  0.00  0.00     0.000 OA
ENDBRANCH 59 66
BRANCH 62 70
ATOM     70   C  SGN C   4      20.558 112.491  50.1930  0.00  0.00     0.000 C
ATOM     71   S  SGN C   4      23.036 112.804  50.7710  0.00  0.00     0.000 S
ATOM     72   O  SGN C   4      22.809 114.229  50.9090  0.00  0.00     0.000 OA
ATOM     73   O  SGN C   4      22.829 112.069  52.0020  0.00  0.00     0.000 OA
ATOM     74   O  SGN C   4      24.272 112.478  50.0980  0.00  0.00     0.000 OA
ATOM     75   O  SGN C   4      21.913 112.311  49.7630  0.00  0.00     0.000 O
ENDBRANCH 62 70
ENDBRANCH 57 61
ENDBRANCH 41 57
ENDBRANCH 40 44
ENDBRANCH 20 40
ENDBRANCH 19 23
ENDBRANCH 1 19
TORSDOF 14
ENDMDL
MODEL 14
REMARK VINA RESULT:       0.1     80.512     84.632
ROOT
ATOM      1  C1  IDS C   1      71.512  38.244  89.4310  0.00  0.00     0.000 C
ATOM      2  C2  IDS C   1      72.169  39.530  89.9010  0.00  0.00     0.000 C
ATOM      3  C3  IDS C   1      71.754  39.858  91.3300  0.00  0.00     0.000 C
ATOM      4  C4  IDS C   1      71.962  38.659  92.2550  0.00  0.00     0.000 C
ATOM      5  C5  IDS C   1      71.337  37.393  91.6350  0.00  0.00     0.000 C
ATOM      6  O5  IDS C   1      71.842  37.179  90.3210  0.00  0.00     0.000 O
ATOM      7   O  IDS C   1      70.386  40.271  91.3460  0.00  0.00     0.000 O
ATOM      9  HD  IDS C   1      70.468  39.956  92.1490  0.00  0.00     0.000 HD
ATOM      9   O  IDS C   1      73.371  38.452  92.4410  0.00  0.00     0.000 O
ATOM     11  HD  IDS C   1      73.452  38.137  93.2440  0.00  0.00     0.000 HD
ENDROOT
BRANCH 2 11
ATOM     11   O  IDS C   1      73.642  39.387  89.8820  0.00  0.00     0.000 O
ATOM     12   S  IDS C   1      74.524  40.194  88.8220  0.00  0.00     0.000 S
ATOM     13   O  IDS C   1      75.727  40.474  89.5750  0.00  0.00     0.000 OA
ATOM     14   O  IDS C   1      73.819  41.387  88.4220  0.00  0.00     0.000 OA
ATOM     15   O  IDS C   1      74.728  39.265  87.7380  0.00  0.00     0.000 OA
ENDBRANCH 2 11
BRANCH 5 16
ATOM     16   C  IDS C   1      71.603  36.135  92.4430  0.00  0.00     0.000 C
ATOM     17   O  IDS C   1      71.165  35.079  92.0410  0.00  0.00     0.000 OA
ATOM     18   O  IDS C   1      72.223  36.184  93.4700  0.00  0.00     0.000 OA
ENDBRANCH 5 16
BRANCH 1 19
ATOM     19  O4  SGN C   2      70.244  38.280  89.0080  0.00  0.00     0.000 O
BRANCH 19 23
ATOM     20  C1  SGN C   2      67.442  36.579  86.4250  0.00  0.00     0.000 C
ATOM     21  C2  SGN C   2      67.865  35.731  87.6300  0.00  0.00     0.000 C
ATOM     22  C3  SGN C   2      68.524  36.621  88.6800  0.00  0.00     0.000 C
ATOM     23  C4  SGN C   2      69.705  37.359  88.0590  0.00  0.00     0.000 C
ATOM     24  C5  SGN C   2      69.245  38.117  86.8110  0.00  0.00     0.000 C
ATOM     25  O5  SGN C   2      68.598  37.211  85.9000  0.00  0.00     0.000 O
ATOM     26   O  SGN C   2      68.938  35.847  89.8010  0.00  0.00     0.000 O
ATOM     28  HD  SGN C   2      69.095  35.318  90.4680  0.00  0.00     0.000 HD
BRANCH 21 30
ATOM     28   N  SGN C   2      66.566  35.049  87.6940  0.00  0.00     0.000 N
ATOM     30  HD  SGN C   2      66.278  34.795  88.4700  0.00  0.00     0.000 HD
ATOM     30   S  SGN C   2      66.465  33.452  87.6750  0.00  0.00     0.000 S
ATOM     31   O  SGN C   2      67.316  33.009  88.7280  0.00  0.00     0.000 OA
ATOM     32   O  SGN C   2      65.097  33.088  87.6710  0.00  0.00     0.000 OA
ATOM     33   O  SGN C   2      67.051  33.051  86.2790  0.00  0.00     0.000 OA
ENDBRANCH 21 30
BRANCH 24 34
ATOM     34   C  SGN C   2      70.375  38.761  86.0420  0.00  0.00     0.000 C
ATOM     35   O  SGN C   2      70.350  40.180  86.2750  0.00  0.00     0.000 O
ATOM     36   S  SGN C   2      71.122  41.101  85.2240  0.00  0.00     0.000 S
ATOM     37   O  SGN C   2      70.578  40.725  83.9340  0.00  0.00     0.000 OA
ATOM     38   O  SGN C   2      70.819  42.461  85.6010  0.00  0.00     0.000 OA
ATOM     39   O  SGN C   2      72.509  40.744  85.4010  0.00  0.00     0.000 OA
ENDBRANCH 24 34
BRANCH 20 40
ATOM     40  O4  IDS C   3      66.493  37.492  86.6170  0.00  0.00     0.000 O
BRANCH 40 44
ATOM     41  C1  IDS C   3      63.679  39.557  87.1140  0.00  0.00     0.000 C
ATOM     42  C2  IDS C   3      63.640  38.065  87.4320  0.00  0.00     0.000 C
ATOM     43  C3  IDS C   3      64.122  37.254  86.2310  0.00  0.00     0.000 C
ATOM     44  C4  IDS C   3      65.443  37.779  85.6910  0.00  0.00     0.000 C
ATOM     45  C5  IDS C   3      65.349  39.302  85.4650  0.00  0.00     0.000 C
ATOM     46  O5  IDS C   3      64.983  39.944  86.6890  0.00  0.00     0.000 O
ATOM     47   O  IDS C   3      63.130  37.288  85.2080  0.00  0.00     0.000 O
ATOM     49  HD  IDS C   3      63.439  37.011  85.9680  0.00  0.00     0.000 HD
BRANCH 42 49
ATOM     49   O  IDS C   3      64.517  37.766  88.5880  0.00  0.00     0.000 O
ATOM     50   S  IDS C   3      63.943  36.920  89.8210  0.00  0.00     0.000 S
ATOM     51   O  IDS C   3      63.831  35.582  89.2840  0.00  0.00     0.000 OA
ATOM     52   O  IDS C   3      62.659  37.468  90.2270  0.00  0.00     0.000 OA
ATOM     53   O  IDS C   3      64.935  37.024  90.8700  0.00  0.00     0.000 OA
ENDBRANCH 42 49
BRANCH 45 54
ATOM     54   C  IDS C   3      66.646  39.917  84.9600  0.00  0.00     0.000 C
ATOM     55   O  IDS C   3      67.157  40.818  85.5730  0.00  0.00     0.000 OA
ATOM     56   O  IDS C   3      67.151  39.509  83.9330  0.00  0.00     0.000 OA
ENDBRANCH 45 54
BRANCH 41 57
ATOM     57  O4  SGN C   4      62.598  39.828  86.3740  0.00  0.00     0.000 O
BRANCH 57 61
ATOM     58  C1  SGN C   4      60.450  43.196  85.1210  0.00  0.00     0.000 C
ATOM     59  C2  SGN C   4      61.958  43.189  84.8230  0.00  0.00     0.000 C
ATOM     60  C3  SGN C   4      62.540  41.774  84.9470  0.00  0.00     0.000 C
ATOM     61  C4  SGN C   4      62.191  41.199  86.3100  0.00  0.00     0.000 C
ATOM     62  C5  SGN C   4      60.683  41.265  86.5490  0.00  0.00     0.000 C
ATOM     63  O5  SGN C   4      60.204  42.615  86.3930  0.00  0.00     0.000 O
BRANCH 59 66
ATOM     64   N  SGN C   4      62.073  43.869  83.5290  0.00  0.00     0.000 N
ATOM     66  HD  SGN C   4      62.222  43.375  84.2250  0.00  0.00     0.000 HD
ATOM     66   O  SGN C   4      62.983  45.547  82.0160  0.00  0.00     0.000 OA
ATOM     67   O  SGN C   4      62.484  46.141  84.3490  0.00  0.00     0.000 OA
ATOM     68   S  SGN C   4      63.099  45.091  83.3600  0.00  0.00     0.000 S
ATOM     69   O  SGN C   4      64.366  44.683  83.8500  0.00  0.00     0.000 OA
ENDBRANCH 59 66
BRANCH 62 70
ATOM     70   C  SGN C   4      60.324  40.825  87.9460  0.00  0.00     0.000 C
ATOM     71   S  SGN C   4      60.215  41.606  90.3850  0.00  0.00     0.000 S
ATOM     72   O  SGN C   4      58.900  41.008  90.5030  0.00  0.00     0.000 OA
ATOM     73   O  SGN C   4      61.292  40.694  90.7130  0.00  0.00     0.000 OA
ATOM     74   O  SGN C   4      60.325  42.893  91.0330  0.00  0.00     0.000 OA
ATOM     75   O  SGN C   4      60.370  41.943  88.8410  0.00  0.00     0.000 O
ENDBRANCH 62 70
ENDBRANCH 57 61
ENDBRANCH 41 57
ENDBRANCH 40 44
ENDBRANCH 20 40
ENDBRANCH 19 23
ENDBRANCH 1 19
TORSDOF 14
ENDMDL
MODEL 15
REMARK VINA RESULT:       0.1     62.777     67.444
ROOT
ATOM      1  C1  IDS C   1      91.678  79.254  10.5070  0.00  0.00     0.000 C
ATOM      2  C2  IDS C   1      91.527  80.706  10.9240  0.00  0.00     0.000 C
ATOM      3  C3  IDS C   1      92.711  81.534  10.4400  0.00  0.00     0.000 C
ATOM      4  C4  IDS C   1      92.960  81.321   8.9470  0.00  0.00     0.000 C
ATOM      5  C5  IDS C   1      93.001  79.814   8.6220  0.00  0.00     0.000 C
ATOM      6  O5  IDS C   1      91.820  79.171   9.0890  0.00  0.00     0.000 O
ATOM      7   O  IDS C   1      93.874  81.189  11.1950  0.00  0.00     0.000 O
ATOM      9  HD  IDS C   1      94.237  81.458  10.4560  0.00  0.00     0.000 HD
ATOM      9   O  IDS C   1      91.897  81.939   8.2040  0.00  0.00     0.000 O
ATOM     11  HD  IDS C   1      92.260  82.207   7.4650  0.00  0.00     0.000 HD
ENDROOT
BRANCH 2 11
ATOM     11   O  IDS C   1      90.301  81.283  10.3290  0.00  0.00     0.000 O
ATOM     12   S  IDS C   1      89.058  81.681  11.2520  0.00  0.00     0.000 S
ATOM     13   O  IDS C   1      88.535  82.847  10.5740  0.00  0.00     0.000 OA
ATOM     14   O  IDS C   1      89.526  81.967  12.5870  0.00  0.00     0.000 OA
ATOM     15   O  IDS C   1      88.180  80.539  11.1900  0.00  0.00     0.000 OA
ENDBRANCH 2 11
BRANCH 5 16
ATOM     16   C  IDS C   1      93.130  79.523   7.1380  0.00  0.00     0.000 C
ATOM     17   O  IDS C   1      93.158  78.368   6.7690  0.00  0.00     0.000 OA
ATOM     18   O  IDS C   1      93.220  80.416   6.3420  0.00  0.00     0.000 OA
ENDBRANCH 5 16
BRANCH 1 19
ATOM     19  O4  SGN C   2      92.474  78.453  11.2210  0.00  0.00     0.000 O
BRANCH 19 23
ATOM     20  C1  SGN C   2      93.122  74.542  12.5280  0.00  0.00     0.000 C
ATOM     21  C2  SGN C   2      93.382  74.819  11.0430  0.00  0.00     0.000 C
ATOM     22  C3  SGN C   2      93.529  76.322  10.8170  0.00  0.00     0.000 C
ATOM     23  C4  SGN C   2      92.284  77.041  11.3220  0.00  0.00     0.000 C
ATOM     24  C5  SGN C   2      92.021  76.661  12.7820  0.00  0.00     0.000 C
ATOM     25  O5  SGN C   2      91.941  75.230  12.9070  0.00  0.00     0.000 O
ATOM     26   O  SGN C   2      93.755  76.598   9.4390  0.00  0.00     0.000 O
ATOM     28  HD  SGN C   2      93.956  76.675   8.6000  0.00  0.00     0.000 HD
BRANCH 21 30
ATOM     28   N  SGN C   2      93.909  73.453  11.1560  0.00  0.00     0.000 N
ATOM     30  HD  SGN C   2      94.769  73.350  11.1760  0.00  0.00     0.000 HD
ATOM     30   S  SGN C   2      94.328  72.615   9.8580  0.00  0.00     0.000 S
ATOM     31   O  SGN C   2      95.241  73.448   9.1510  0.00  0.00     0.000 OA
ATOM     32   O  SGN C   2      94.724  71.320  10.2690  0.00  0.00     0.000 OA
ATOM     33   O  SGN C   2      92.988  72.454   9.0620  0.00  0.00     0.000 OA
ENDBRANCH 21 30
BRANCH 24 34
ATOM     34   C  SGN C   2      90.723  77.210  13.3270  0.00  0.00     0.000 C
ATOM     35   O  SGN C   2      91.014  78.314  14.2020  0.00  0.00     0.000 O
ATOM     36   S  SGN C   2      89.876  78.737  15.2390  0.00  0.00     0.000 S
ATOM     37   O  SGN C   2      89.554  77.516  15.9510  0.00  0.00     0.000 OA
ATOM     38   O  SGN C   2      90.470  79.750  16.0770  0.00  0.00     0.000 OA
ATOM     39   O  SGN C   2      88.807  79.227  14.4030  0.00  0.00     0.000 OA
ENDBRANCH 24 34
BRANCH 20 40
ATOM     40  O4  IDS C   3      94.095  74.835  13.3880  0.00  0.00     0.000 O
BRANCH 40 44
ATOM     41  C1  IDS C   3      96.992  74.895  15.3960  0.00  0.00     0.000 C
ATOM     42  C2  IDS C   3      96.800  73.848  14.3020  0.00  0.00     0.000 C
ATOM     43  C3  IDS C   3      95.451  73.152  14.4640  0.00  0.00     0.000 C
ATOM     44  C4  IDS C   3      94.317  74.153  14.6250  0.00  0.00     0.000 C
ATOM     45  C5  IDS C   3      94.671  75.174  15.7260  0.00  0.00     0.000 C
ATOM     46  O5  IDS C   3      95.905  75.817  15.4010  0.00  0.00     0.000 O
ATOM     47   O  IDS C   3      95.498  72.285  15.5940  0.00  0.00     0.000 O
ATOM     49  HD  IDS C   3      95.694  72.491  14.7760  0.00  0.00     0.000 HD
BRANCH 42 49
ATOM     49   O  IDS C   3      96.846  74.490  12.9680  0.00  0.00     0.000 O
ATOM     50   S  IDS C   3      97.963  74.044  11.9110  0.00  0.00     0.000 S
ATOM     51   O  IDS C   3      97.529  72.727  11.5020  0.00  0.00     0.000 OA
ATOM     52   O  IDS C   3      99.264  74.026  12.5600  0.00  0.00     0.000 OA
ATOM     53   O  IDS C   3      97.905  75.015  10.8380  0.00  0.00     0.000 OA
ENDBRANCH 42 49
BRANCH 45 54
ATOM     54   C  IDS C   3      93.604  76.239  15.9250  0.00  0.00     0.000 C
ATOM     55   O  IDS C   3      92.489  75.914  16.2430  0.00  0.00     0.000 OA
ATOM     56   O  IDS C   3      93.874  77.411  15.7470  0.00  0.00     0.000 OA
ENDBRANCH 45 54
BRANCH 41 57
ATOM     57  O4  SGN C   4      97.353  74.240  16.5060  0.00  0.00     0.000 O
BRANCH 57 61
ATOM     58  C1  SGN C   4      98.576  75.148  20.4060  0.00  0.00     0.000 C
ATOM     59  C2  SGN C   4      97.106  75.435  20.0580  0.00  0.00     0.000 C
ATOM     60  C3  SGN C   4      96.685  74.698  18.7790  0.00  0.00     0.000 C
ATOM     61  C4  SGN C   4      97.649  75.040  17.6560  0.00  0.00     0.000 C
ATOM     62  C5  SGN C   4      99.089  74.758  18.0810  0.00  0.00     0.000 C
ATOM     63  O5  SGN C   4      99.406  75.461  19.2970  0.00  0.00     0.000 O
BRANCH 59 66
ATOM     64   N  SGN C   4      96.380  75.138  21.2970  0.00  0.00     0.000 N
ATOM     66  HD  SGN C   4      96.588  75.273  20.4670  0.00  0.00     0.000 HD
ATOM     66   O  SGN C   4      94.823  75.659  23.0960  0.00  0.00     0.000 OA
ATOM     67   O  SGN C   4      96.339  77.397  22.2440  0.00  0.00     0.000 OA
ATOM     68   S  SGN C   4      95.361  76.219  21.9030  0.00  0.00     0.000 S
ATOM     69   O  SGN C   4      94.482  76.633  20.8700  0.00  0.00     0.000 OA
ENDBRANCH 59 66
BRANCH 62 70
ATOM     70   C  SGN C   4     100.075  75.213  17.0340  0.00  0.00     0.000 C
ATOM     71   S  SGN C   4     100.798  77.232  15.6290  0.00  0.00     0.000 S
ATOM     72   O  SGN C   4     102.182  76.938  15.9440  0.00  0.00     0.000 OA
ATOM     73   O  SGN C   4     100.324  76.557  14.4370  0.00  0.00     0.000 OA
ATOM     74   O  SGN C   4     100.485  78.642  15.6630  0.00  0.00     0.000 OA
ATOM     75   O  SGN C   4      99.970  76.629  16.8420  0.00  0.00     0.000 O
ENDBRANCH 62 70
ENDBRANCH 57 61
ENDBRANCH 41 57
ENDBRANCH 40 44
ENDBRANCH 20 40
ENDBRANCH 19 23
ENDBRANCH 1 19
TORSDOF 14
ENDMDL
MODEL 16
REMARK VINA RESULT:       0.1    113.193    117.721
ROOT
ATOM      1  C1  IDS C   1      34.749  26.442 108.8380  0.00  0.00     0.000 C
ATOM      2  C2  IDS C   1      33.952  27.665 108.4210  0.00  0.00     0.000 C
ATOM      3  C3  IDS C   1      32.458  27.426 108.6050  0.00  0.00     0.000 C
ATOM      4  C4  IDS C   1      32.150  26.911 110.0100  0.00  0.00     0.000 C
ATOM      5  C5  IDS C   1      33.079  25.732 110.3620  0.00  0.00     0.000 C
ATOM      6  O5  IDS C   1      34.443  26.103 110.1900  0.00  0.00     0.000 O
ATOM      7   O  IDS C   1      32.001  26.497 107.6200  0.00  0.00     0.000 O
ATOM      9  HD  IDS C   1      31.424  26.358 108.2510  0.00  0.00     0.000 HD
ATOM      9   O  IDS C   1      32.353  27.975 110.9530  0.00  0.00     0.000 O
ATOM     11  HD  IDS C   1      31.777  27.836 111.5840  0.00  0.00     0.000 HD
ENDROOT
BRANCH 2 11
ATOM     11   O  IDS C   1      34.327  28.828 109.2570  0.00  0.00     0.000 O
ATOM     12   S  IDS C   1      35.114  30.066 108.6240  0.00  0.00     0.000 S
ATOM     13   O  IDS C   1      34.575  31.184 109.3650  0.00  0.00     0.000 OA
ATOM     14   O  IDS C   1      34.833  30.138 107.2100  0.00  0.00     0.000 OA
ATOM     15   O  IDS C   1      36.501  29.800 108.9140  0.00  0.00     0.000 OA
ENDBRANCH 2 11
BRANCH 5 16
ATOM     16   C  IDS C   1      32.911  25.240 111.7880  0.00  0.00     0.000 C
ATOM     17   O  IDS C   1      33.604  24.324 112.1760  0.00  0.00     0.000 OA
ATOM     18   O  IDS C   1      32.096  25.735 112.5180  0.00  0.00     0.000 OA
ENDBRANCH 5 16
BRANCH 1 19
ATOM     19  O4  SGN C   2      34.854  25.416 107.9890  0.00  0.00     0.000 O
BRANCH 19 23
ATOM     20  C1  SGN C   2      37.276  22.275 106.6880  0.00  0.00     0.000 C
ATOM     21  C2  SGN C   2      36.630  22.114 108.0690  0.00  0.00     0.000 C
ATOM     22  C3  SGN C   2      35.467  23.093 108.2110  0.00  0.00     0.000 C
ATOM     23  C4  SGN C   2      35.963  24.516 107.9750  0.00  0.00     0.000 C
ATOM     24  C5  SGN C   2      36.676  24.599 106.6220  0.00  0.00     0.000 C
ATOM     25  O5  SGN C   2      37.723  23.615 106.5610  0.00  0.00     0.000 O
ATOM     26   O  SGN C   2      34.865  22.969 109.4950  0.00  0.00     0.000 O
ATOM     28  HD  SGN C   2      34.516  22.783 110.2650  0.00  0.00     0.000 HD
BRANCH 21 30
ATOM     28   N  SGN C   2      37.198  20.773 107.8820  0.00  0.00     0.000 N
ATOM     30  HD  SGN C   2      36.658  20.129 107.6740  0.00  0.00     0.000 HD
ATOM     30   S  SGN C   2      37.227  19.710 109.0780  0.00  0.00     0.000 S
ATOM     31   O  SGN C   2      35.882  19.625 109.5390  0.00  0.00     0.000 OA
ATOM     32   O  SGN C   2      37.895  18.546 108.6290  0.00  0.00     0.000 OA
ATOM     33   O  SGN C   2      38.145  20.378 110.1580  0.00  0.00     0.000 OA
ENDBRANCH 21 30
BRANCH 24 34
ATOM     34   C  SGN C   2      37.331  25.936 106.3640  0.00  0.00     0.000 C
ATOM     35   O  SGN C   2      36.538  26.669 105.4140  0.00  0.00     0.000 O
ATOM     36   S  SGN C   2      37.256  27.870 104.6440  0.00  0.00     0.000 S
ATOM     37   O  SGN C   2      38.442  27.277 104.0600  0.00  0.00     0.000 OA
ATOM     38   O  SGN C   2      36.301  28.330 103.6650  0.00  0.00     0.000 OA
ATOM     39   O  SGN C   2      37.533  28.833 105.6820  0.00  0.00     0.000 OA
ENDBRANCH 24 34
BRANCH 20 40
ATOM     40  O4  IDS C   3      36.542  21.956 105.6240  0.00  0.00     0.000 O
BRANCH 40 44
ATOM     41  C1  IDS C   3      34.804  20.335 103.0200  0.00  0.00     0.000 C
ATOM     42  C2  IDS C   3      35.448  19.550 104.1600  0.00  0.00     0.000 C
ATOM     43  C3  IDS C   3      36.910  19.955 104.3240  0.00  0.00     0.000 C
ATOM     44  C4  IDS C   3      37.072  21.466 104.3900  0.00  0.00     0.000 C
ATOM     45  C5  IDS C   3      36.332  22.125 103.2080  0.00  0.00     0.000 C
ATOM     46  O5  IDS C   3      34.957  21.737 103.2300  0.00  0.00     0.000 O
ATOM     47   O  IDS C   3      37.671  19.432 103.2380  0.00  0.00     0.000 O
ATOM     49  HD  IDS C   3      37.242  19.347 103.9860  0.00  0.00     0.000 HD
BRANCH 42 49
ATOM     49   O  IDS C   3      34.735  19.820 105.4300  0.00  0.00     0.000 O
ATOM     50   S  IDS C   3      34.045  18.613 106.2250  0.00  0.00     0.000 S
ATOM     51   O  IDS C   3      35.170  17.878 106.7600  0.00  0.00     0.000 OA
ATOM     52   O  IDS C   3      33.248  17.820 105.3020  0.00  0.00     0.000 OA
ATOM     53   O  IDS C   3      33.233  19.227 107.2540  0.00  0.00     0.000 OA
ENDBRANCH 42 49
BRANCH 45 54
ATOM     54   C  IDS C   3      36.410  23.644 103.2200  0.00  0.00     0.000 C
ATOM     55   O  IDS C   3      37.484  24.186 103.1680  0.00  0.00     0.000 OA
ATOM     56   O  IDS C   3      35.392  24.304 103.2980  0.00  0.00     0.000 OA
ENDBRANCH 45 54
BRANCH 41 57
ATOM     57  O4  SGN C   4      35.194  19.757 101.8780  0.00  0.00     0.000 O
BRANCH 57 61
ATOM     58  C1  SGN C   4      34.425  20.117  97.7780  0.00  0.00     0.000 C
ATOM     59  C2  SGN C   4      35.215  21.260  98.4360  0.00  0.00     0.000 C
ATOM     60  C3  SGN C   4      35.779  20.832  99.7980  0.00  0.00     0.000 C
ATOM     61  C4  SGN C   4      34.653  20.298 100.6680  0.00  0.00     0.000 C
ATOM     62  C5  SGN C   4      33.895  19.188  99.9410  0.00  0.00     0.000 C
ATOM     63  O5  SGN C   4      33.417  19.652  98.6640  0.00  0.00     0.000 O
BRANCH 59 66
ATOM     64   N  SGN C   4      36.162  21.684  97.3990  0.00  0.00     0.000 N
ATOM     66  HD  SGN C   4      35.770  21.538  98.1580  0.00  0.00     0.000 HD
ATOM     66   O  SGN C   4      37.252  23.335  95.9780  0.00  0.00     0.000 OA
ATOM     67   O  SGN C   4      34.839  23.497  96.4180  0.00  0.00     0.000 OA
ATOM     68   S  SGN C   4      36.270  23.235  97.0040  0.00  0.00     0.000 S
ATOM     69   O  SGN C   4      36.427  23.991  98.1940  0.00  0.00     0.000 OA
ENDBRANCH 59 66
BRANCH 62 70
ATOM     70   C  SGN C   4      32.691  18.733 100.7270  0.00  0.00     0.000 C
ATOM     71   S  SGN C   4      30.552  19.557 101.8740  0.00  0.00     0.000 S
ATOM     72   O  SGN C   4      29.821  18.461 101.2680  0.00  0.00     0.000 OA
ATOM     73   O  SGN C   4      31.126  19.221 103.1610  0.00  0.00     0.000 OA
ATOM     74   O  SGN C   4      29.827  20.807 101.8680  0.00  0.00     0.000 OA
ATOM     75   O  SGN C   4      31.773  19.820 100.8950  0.00  0.00     0.000 O
ENDBRANCH 62 70
ENDBRANCH 57 61
ENDBRANCH 41 57
ENDBRANCH 40 44
ENDBRANCH 20 40
ENDBRANCH 19 23
ENDBRANCH 1 19
TORSDOF 14
ENDMDL
MODEL 17
REMARK VINA RESULT:       0.1    106.302    110.337
ROOT
ATOM      1  C1  IDS C   1      19.935  47.737 103.7620  0.00  0.00     0.000 C
ATOM      2  C2  IDS C   1      20.081  46.497 102.8990  0.00  0.00     0.000 C
ATOM      3  C3  IDS C   1      18.989  45.483 103.2200  0.00  0.00     0.000 C
ATOM      4  C4  IDS C   1      17.605  46.130 103.1800  0.00  0.00     0.000 C
ATOM      5  C5  IDS C   1      17.599  47.428 104.0120  0.00  0.00     0.000 C
ATOM      6  O5  IDS C   1      18.637  48.302 103.5810  0.00  0.00     0.000 O
ATOM      7   O  IDS C   1      19.236  44.909 104.5040  0.00  0.00     0.000 O
ATOM      9  HD  IDS C   1      18.376  44.822 104.4530  0.00  0.00     0.000 HD
ATOM      9   O  IDS C   1      17.273  46.437 101.8170  0.00  0.00     0.000 O
ATOM     11  HD  IDS C   1      16.413  46.351 101.7650  0.00  0.00     0.000 HD
ENDROOT
BRANCH 2 11
ATOM     11   O  IDS C   1      19.956  46.854 101.4680  0.00  0.00     0.000 O
ATOM     12   S  IDS C   1      21.217  46.754 100.4910  0.00  0.00     0.000 S
ATOM     13   O  IDS C   1      20.608  46.350  99.2430  0.00  0.00     0.000 OA
ATOM     14   O  IDS C   1      22.146  45.778 101.0070  0.00  0.00     0.000 OA
ATOM     15   O  IDS C   1      21.758  48.090 100.4600  0.00  0.00     0.000 OA
ENDBRANCH 2 11
BRANCH 5 16
ATOM     16   C  IDS C   1      16.288  48.189 103.9270  0.00  0.00     0.000 C
ATOM     17   O  IDS C   1      16.178  49.234 104.5330  0.00  0.00     0.000 OA
ATOM     18   O  IDS C   1      15.369  47.761 103.2850  0.00  0.00     0.000 OA
ENDBRANCH 5 16
BRANCH 1 19
ATOM     19  O4  SGN C   2      20.390  47.710 105.0180  0.00  0.00     0.000 O
BRANCH 19 23
ATOM     20  C1  SGN C   2      22.048  49.968 108.1140  0.00  0.00     0.000 C
ATOM     21  C2  SGN C   2      20.569  50.220 107.7990  0.00  0.00     0.000 C
ATOM     22  C3  SGN C   2      20.009  49.057 106.9830  0.00  0.00     0.000 C
ATOM     23  C4  SGN C   2      20.839  48.872 105.7180  0.00  0.00     0.000 C
ATOM     24  C5  SGN C   2      22.317  48.712 106.0840  0.00  0.00     0.000 C
ATOM     25  O5  SGN C   2      22.745  49.827 106.8860  0.00  0.00     0.000 O
ATOM     26   O  SGN C   2      18.640  49.282 106.6680  0.00  0.00     0.000 O
ATOM     28  HD  SGN C   2      17.798  49.462 106.5790  0.00  0.00     0.000 HD
BRANCH 21 30
ATOM     28   N  SGN C   2      20.717  51.004 109.0320  0.00  0.00     0.000 N
ATOM     30  HD  SGN C   2      20.393  50.674 109.7640  0.00  0.00     0.000 HD
ATOM     30   S  SGN C   2      19.558  51.986 109.5340  0.00  0.00     0.000 S
ATOM     31   O  SGN C   2      18.382  51.184 109.5890  0.00  0.00     0.000 OA
ATOM     32   O  SGN C   2      20.010  52.657 110.6960  0.00  0.00     0.000 OA
ATOM     33   O  SGN C   2      19.449  53.059 108.3980  0.00  0.00     0.000 OA
ENDBRANCH 21 30
BRANCH 24 34
ATOM     34   C  SGN C   2      23.237  48.670 104.8870  0.00  0.00     0.000 C
ATOM     35   O  SGN C   2      23.672  47.315 104.6780  0.00  0.00     0.000 O
ATOM     36   S  SGN C   2      24.986  47.102 103.7970  0.00  0.00     0.000 S
ATOM     37   O  SGN C   2      25.992  47.933 104.4280  0.00  0.00     0.000 OA
ATOM     38   O  SGN C   2      25.279  45.691 103.8690  0.00  0.00     0.000 OA
ATOM     39   O  SGN C   2      24.599  47.549 102.4810  0.00  0.00     0.000 OA
ENDBRANCH 24 34
BRANCH 20 40
ATOM     40  O4  IDS C   3      22.342  48.938 108.9040  0.00  0.00     0.000 O
BRANCH 40 44
ATOM     41  C1  IDS C   3      22.888  46.731 111.5980  0.00  0.00     0.000 C
ATOM     42  C2  IDS C   3      22.207  48.082 111.7990  0.00  0.00     0.000 C
ATOM     43  C3  IDS C   3      23.056  49.199 111.1950  0.00  0.00     0.000 C
ATOM     44  C4  IDS C   3      23.478  48.878 109.7700  0.00  0.00     0.000 C
ATOM     45  C5  IDS C   3      24.102  47.467 109.7120  0.00  0.00     0.000 C
ATOM     46  O5  IDS C   3      23.168  46.512 110.2180  0.00  0.00     0.000 O
ATOM     47   O  IDS C   3      24.208  49.409 112.0070  0.00  0.00     0.000 O
ATOM     49  HD  IDS C   3      23.361  49.482 111.8440  0.00  0.00     0.000 HD
BRANCH 42 49
ATOM     49   O  IDS C   3      20.880  48.087 111.1410  0.00  0.00     0.000 O
ATOM     50   S  IDS C   3      19.561  48.336 112.0150  0.00  0.00     0.000 S
ATOM     51   O  IDS C   3      19.643  49.741 112.3480  0.00  0.00     0.000 OA
ATOM     52   O  IDS C   3      19.593  47.482 113.1910  0.00  0.00     0.000 OA
ATOM     53   O  IDS C   3      18.444  48.027 111.1480  0.00  0.00     0.000 OA
ENDBRANCH 42 49
BRANCH 45 54
ATOM     54   C  IDS C   3      24.517  47.050 108.3100  0.00  0.00     0.000 C
ATOM     55   O  IDS C   3      25.332  47.702 107.7100  0.00  0.00     0.000 OA
ATOM     56   O  IDS C   3      24.014  46.070 107.7950  0.00  0.00     0.000 OA
ENDBRANCH 45 54
BRANCH 41 57
ATOM     57  O4  SGN C   4      23.848  46.635 112.5260  0.00  0.00     0.000 O
BRANCH 57 61
ATOM     58  C1  SGN C   4      26.605  43.790 113.8810  0.00  0.00     0.000 C
ATOM     59  C2  SGN C   4      26.858  44.389 112.4880  0.00  0.00     0.000 C
ATOM     60  C3  SGN C   4      26.050  45.678 112.2840  0.00  0.00     0.000 C
ATOM     61  C4  SGN C   4      24.582  45.407 112.5660  0.00  0.00     0.000 C
ATOM     62  C5  SGN C   4      24.408  44.787 113.9520  0.00  0.00     0.000 C
ATOM     63  O5  SGN C   4      25.212  43.599 114.0800  0.00  0.00     0.000 O
BRANCH 59 66
ATOM     64   N  SGN C   4      28.319  44.468 112.3920  0.00  0.00     0.000 N
ATOM     66  HD  SGN C   4      27.470  44.596 112.2770  0.00  0.00     0.000 HD
ATOM     66   O  SGN C   4      30.463  44.067 111.3080  0.00  0.00     0.000 OA
ATOM     67   O  SGN C   4      28.726  42.328 111.2720  0.00  0.00     0.000 OA
ATOM     68   S  SGN C   4      29.070  43.850 111.1160  0.00  0.00     0.000 S
ATOM     69   O  SGN C   4      28.443  44.346 109.9450  0.00  0.00     0.000 OA
ENDBRANCH 59 66
BRANCH 62 70
ATOM     70   C  SGN C   4      22.976  44.385 114.2030  0.00  0.00     0.000 C
ATOM     71   S  SGN C   4      21.029  43.012 113.2580  0.00  0.00     0.000 S
ATOM     72   O  SGN C   4      20.783  42.476 114.5820  0.00  0.00     0.000 OA
ATOM     73   O  SGN C   4      20.307  44.241 112.9930  0.00  0.00     0.000 OA
ATOM     74   O  SGN C   4      20.911  42.029 112.2050  0.00  0.00     0.000 OA
ATOM     75   O  SGN C   4      22.571  43.391 113.2540  0.00  0.00     0.000 O
ENDBRANCH 62 70
ENDBRANCH 57 61
ENDBRANCH 41 57
ENDBRANCH 40 44
ENDBRANCH 20 40
ENDBRANCH 19 23
ENDBRANCH 1 19
TORSDOF 14
ENDMDL
MODEL 18
REMARK VINA RESULT:       0.1    102.306    106.937
ROOT
ATOM      1  C1  IDS C   1      83.314  24.577   6.1860  0.00  0.00     0.000 C
ATOM      2  C2  IDS C   1      83.990  24.274   4.8610  0.00  0.00     0.000 C
ATOM      3  C3  IDS C   1      85.505  24.382   4.9890  0.00  0.00     0.000 C
ATOM      4  C4  IDS C   1      86.019  23.562   6.1720  0.00  0.00     0.000 C
ATOM      5  C5  IDS C   1      85.201  23.882   7.4400  0.00  0.00     0.000 C
ATOM      6  O5  IDS C   1      83.810  23.699   7.1950  0.00  0.00     0.000 O
ATOM      7   O  IDS C   1      85.873  25.755   5.1350  0.00  0.00     0.000 O
ATOM      9  HD  IDS C   1      86.533  25.368   5.5410  0.00  0.00     0.000 HD
ATOM      9   O  IDS C   1      85.890  22.166   5.8630  0.00  0.00     0.000 O
ATOM     11  HD  IDS C   1      86.551  21.779   6.2680  0.00  0.00     0.000 HD
ENDROOT
BRANCH 2 11
ATOM     11   O  IDS C   1      83.673  22.893   4.4310  0.00  0.00     0.000 O
ATOM     12   S  IDS C   1      83.013  22.618   3.0020  0.00  0.00     0.000 S
ATOM     13   O  IDS C   1      83.607  21.353   2.6280  0.00  0.00     0.000 OA
ATOM     14   O  IDS C   1      83.358  23.691   2.1010  0.00  0.00     0.000 OA
ATOM     15   O  IDS C   1      81.598  22.531   3.2670  0.00  0.00     0.000 OA
ENDBRANCH 2 11
BRANCH 5 16
ATOM     16   C  IDS C   1      85.578  23.020   8.6310  0.00  0.00     0.000 C
ATOM     17   O  IDS C   1      84.782  22.895   9.5370  0.00  0.00     0.000 OA
ATOM     18   O  IDS C   1      86.650  22.484   8.6870  0.00  0.00     0.000 OA
ENDBRANCH 5 16
BRANCH 1 19
ATOM     19  O4  SGN C   2      83.148  25.852   6.5520  0.00  0.00     0.000 O
BRANCH 19 23
ATOM     20  C1  SGN C   2      80.540  28.598   8.3080  0.00  0.00     0.000 C
ATOM     21  C2  SGN C   2      81.227  27.606   9.2530  0.00  0.00     0.000 C
ATOM     22  C3  SGN C   2      82.437  26.986   8.5590  0.00  0.00     0.000 C
ATOM     23  C4  SGN C   2      81.999  26.324   7.2580  0.00  0.00     0.000 C
ATOM     24  C5  SGN C   2      81.243  27.334   6.3900  0.00  0.00     0.000 C
ATOM     25  O5  SGN C   2      80.150  27.898   7.1380  0.00  0.00     0.000 O
ATOM     26   O  SGN C   2      83.078  26.049   9.4180  0.00  0.00     0.000 O
ATOM     28  HD  SGN C   2      83.446  25.551  10.0230  0.00  0.00     0.000 HD
BRANCH 21 30
ATOM     28   N  SGN C   2      81.151  28.568  10.3600  0.00  0.00     0.000 N
ATOM     30  HD  SGN C   2      81.803  28.583  10.9300  0.00  0.00     0.000 HD
ATOM     30   S  SGN C   2      80.557  28.149  11.7850  0.00  0.00     0.000 S
ATOM     31   O  SGN C   2      81.294  26.994  12.1750  0.00  0.00     0.000 OA
ATOM     32   O  SGN C   2      80.541  29.293  12.6190  0.00  0.00     0.000 OA
ATOM     33   O  SGN C   2      79.064  27.782  11.4820  0.00  0.00     0.000 OA
ENDBRANCH 21 30
BRANCH 24 34
ATOM     34   C  SGN C   2      80.640  26.732   5.1430  0.00  0.00     0.000 C
ATOM     35   O  SGN C   2      81.437  27.113   4.0080  0.00  0.00     0.000 O
ATOM     36   S  SGN C   2      80.751  27.001   2.5700  0.00  0.00     0.000 S
ATOM     37   O  SGN C   2      79.523  27.763   2.6870  0.00  0.00     0.000 OA
ATOM     38   O  SGN C   2      81.697  27.575   1.6430  0.00  0.00     0.000 OA
ATOM     39   O  SGN C   2      80.547  25.585   2.3910  0.00  0.00     0.000 OA
ENDBRANCH 24 34
BRANCH 20 40
ATOM     40  O4  IDS C   3      81.220  29.688   7.9600  0.00  0.00     0.000 O
BRANCH 40 44
ATOM     41  C1  IDS C   3      82.908  32.737   7.4280  0.00  0.00     0.000 C
ATOM     42  C2  IDS C   3      82.608  32.226   8.8340  0.00  0.00     0.000 C
ATOM     43  C3  IDS C   3      81.127  31.879   8.9690  0.00  0.00     0.000 C
ATOM     44  C4  IDS C   3      80.650  30.993   7.8290  0.00  0.00     0.000 C
ATOM     45  C5  IDS C   3      81.066  31.608   6.4760  0.00  0.00     0.000 C
ATOM     46  O5  IDS C   3      82.483  31.791   6.4510  0.00  0.00     0.000 O
ATOM     47   O  IDS C   3      80.361  33.081   9.0030  0.00  0.00     0.000 O
ATOM     49  HD  IDS C   3      80.894  32.500   9.3620  0.00  0.00     0.000 HD
BRANCH 42 49
ATOM     49   O  IDS C   3      83.406  31.010   9.1160  0.00  0.00     0.000 O
ATOM     50   S  IDS C   3      84.240  30.906  10.4800  0.00  0.00     0.000 S
ATOM     51   O  IDS C   3      83.216  30.729  11.4840  0.00  0.00     0.000 OA
ATOM     52   O  IDS C   3      85.006  32.127  10.6720  0.00  0.00     0.000 OA
ATOM     53   O  IDS C   3      85.095  29.746  10.3360  0.00  0.00     0.000 OA
ENDBRANCH 42 49
BRANCH 45 54
ATOM     54   C  IDS C   3      80.661  30.762   5.2800  0.00  0.00     0.000 C
ATOM     55   O  IDS C   3      81.501  30.382   4.5060  0.00  0.00     0.000 OA
ATOM     56   O  IDS C   3      79.491  30.486   5.1000  0.00  0.00     0.000 OA
ENDBRANCH 45 54
BRANCH 41 57
ATOM     57  O4  SGN C   4      82.505  34.013   7.3810  0.00  0.00     0.000 O
BRANCH 57 61
ATOM     58  C1  SGN C   4      82.905  37.315   4.8390  0.00  0.00     0.000 C
ATOM     59  C2  SGN C   4      82.331  36.031   4.2190  0.00  0.00     0.000 C
ATOM     60  C3  SGN C   4      81.856  35.055   5.3050  0.00  0.00     0.000 C
ATOM     61  C4  SGN C   4      82.987  34.798   6.2860  0.00  0.00     0.000 C
ATOM     62  C5  SGN C   4      83.526  36.116   6.8390  0.00  0.00     0.000 C
ATOM     63  O5  SGN C   4      83.930  36.989   5.7670  0.00  0.00     0.000 O
BRANCH 59 66
ATOM     64   N  SGN C   4      81.382  36.552   3.2300  0.00  0.00     0.000 N
ATOM     66  HD  SGN C   4      81.783  36.058   3.8170  0.00  0.00     0.000 HD
ATOM     66   O  SGN C   4      80.334  36.622   1.0320  0.00  0.00     0.000 OA
ATOM     67   O  SGN C   4      82.761  36.276   1.2240  0.00  0.00     0.000 OA
ATOM     68   S  SGN C   4      81.332  35.913   1.7590  0.00  0.00     0.000 S
ATOM     69   O  SGN C   4      81.232  34.504   1.8860  0.00  0.00     0.000 OA
ENDBRANCH 59 66
BRANCH 62 70
ATOM     70   C  SGN C   4      84.736  35.897   7.7130  0.00  0.00     0.000 C
ATOM     71   S  SGN C   4      87.188  35.150   7.6800  0.00  0.00     0.000 S
ATOM     72   O  SGN C   4      87.528  36.278   8.5250  0.00  0.00     0.000 OA
ATOM     73   O  SGN C   4      86.824  33.963   8.4280  0.00  0.00     0.000 OA
ATOM     74   O  SGN C   4      88.149  34.905   6.6290  0.00  0.00     0.000 OA
ATOM     75   O  SGN C   4      85.881  35.606   6.9020  0.00  0.00     0.000 O
ENDBRANCH 62 70
ENDBRANCH 57 61
ENDBRANCH 41 57
ENDBRANCH 40 44
ENDBRANCH 20 40
ENDBRANCH 19 23
ENDBRANCH 1 19
TORSDOF 14
ENDMDL
MODEL 19
REMARK VINA RESULT:       0.1    108.241    113.047
ROOT
ATOM      1  C1  IDS C   1       6.850  67.449 113.9820  0.00  0.00     0.000 C
ATOM      2  C2  IDS C   1       6.149  66.872 115.2000  0.00  0.00     0.000 C
ATOM      3  C3  IDS C   1       7.162  66.320 116.1950  0.00  0.00     0.000 C
ATOM      4  C4  IDS C   1       8.246  67.352 116.5100  0.00  0.00     0.000 C
ATOM      5  C5  IDS C   1       8.820  67.938 115.2040  0.00  0.00     0.000 C
ATOM      6  O5  IDS C   1       7.774  68.457 114.3890  0.00  0.00     0.000 O
ATOM      7   O  IDS C   1       7.746  65.127 115.6680  0.00  0.00     0.000 O
ATOM      9  HD  IDS C   1       8.383  65.401 116.1870  0.00  0.00     0.000 HD
ATOM      9   O  IDS C   1       7.671  68.408 117.2930  0.00  0.00     0.000 O
ATOM     11  HD  IDS C   1       8.308  68.683 117.8120  0.00  0.00     0.000 HD
ENDROOT
BRANCH 2 11
ATOM     11   O  IDS C   1       5.371  67.926 115.8880  0.00  0.00     0.000 O
ATOM     12   S  IDS C   1       3.774  67.885 115.8950  0.00  0.00     0.000 S
ATOM     13   O  IDS C   1       3.458  68.432 117.1960  0.00  0.00     0.000 OA
ATOM     14   O  IDS C   1       3.330  66.522 115.7330  0.00  0.00     0.000 OA
ATOM     15   O  IDS C   1       3.384  68.742 114.8020  0.00  0.00     0.000 OA
ENDBRANCH 2 11
BRANCH 5 16
ATOM     16   C  IDS C   1       9.822  69.054 115.4370  0.00  0.00     0.000 C
ATOM     17   O  IDS C   1      10.326  69.597 114.4770  0.00  0.00     0.000 OA
ATOM     18   O  IDS C   1      10.125  69.386 116.5500  0.00  0.00     0.000 OA
ENDBRANCH 5 16
BRANCH 1 19
ATOM     19  O4  SGN C   2       7.274  66.620 113.0240  0.00  0.00     0.000 O
BRANCH 19 23
ATOM     20  C1  SGN C   2       7.990  66.186 108.9350  0.00  0.00     0.000 C
ATOM     21  C2  SGN C   2       8.961  67.086 109.7080  0.00  0.00     0.000 C
ATOM     22  C3  SGN C   2       8.846  66.803 111.2040  0.00  0.00     0.000 C
ATOM     23  C4  SGN C   2       7.403  67.001 111.6530  0.00  0.00     0.000 C
ATOM     24  C5  SGN C   2       6.468  66.147 110.7920  0.00  0.00     0.000 C
ATOM     25  O5  SGN C   2       6.677  66.448 109.4000  0.00  0.00     0.000 O
ATOM     26   O  SGN C   2       9.730  67.642 111.9390  0.00  0.00     0.000 O
ATOM     28  HD  SGN C   2      10.340  68.137 112.3030  0.00  0.00     0.000 HD
BRANCH 21 30
ATOM     28   N  SGN C   2       9.644  67.011 108.4090  0.00  0.00     0.000 N
ATOM     30  HD  SGN C   2      10.340  66.500 108.3460  0.00  0.00     0.000 HD
ATOM     30   S  SGN C   2      10.901  67.944 108.0780  0.00  0.00     0.000 S
ATOM     31   O  SGN C   2      11.822  67.725 109.1420  0.00  0.00     0.000 OA
ATOM     32   O  SGN C   2      11.296  67.706 106.7400  0.00  0.00     0.000 OA
ATOM     33   O  SGN C   2      10.320  69.398 108.1340  0.00  0.00     0.000 OA
ENDBRANCH 21 30
BRANCH 24 34
ATOM     34   C  SGN C   2       5.002  66.388 111.0650  0.00  0.00     0.000 C
ATOM     35   O  SGN C   2       4.479  65.281 111.8200  0.00  0.00     0.000 O
ATOM     36   S  SGN C   2       2.895  65.084 111.8150  0.00  0.00     0.000 S
ATOM     37   O  SGN C   2       2.533  65.039 110.4120  0.00  0.00     0.000 OA
ATOM     38   O  SGN C   2       2.655  63.841 112.5090  0.00  0.00     0.000 OA
ATOM     39   O  SGN C   2       2.397  66.245 112.5110  0.00  0.00     0.000 OA
ENDBRANCH 24 34
BRANCH 20 40
ATOM     40  O4  IDS C   3       8.212  64.874 108.9640  0.00  0.00     0.000 O
BRANCH 40 44
ATOM     41  C1  IDS C   3       9.364  61.578 108.4800  0.00  0.00     0.000 C
ATOM     42  C2  IDS C   3      10.079  62.773 107.8560  0.00  0.00     0.000 C
ATOM     43  C3  IDS C   3       9.088  63.640 107.0830  0.00  0.00     0.000 C
ATOM     44  C4  IDS C   3       7.859  63.968 107.9160  0.00  0.00     0.000 C
ATOM     45  C5  IDS C   3       7.274  62.674 108.5210  0.00  0.00     0.000 C
ATOM     46  O5  IDS C   3       8.278  62.014 109.2940  0.00  0.00     0.000 O
ATOM     47   O  IDS C   3       8.700  62.966 105.8890  0.00  0.00     0.000 O
ATOM     49  HD  IDS C   3       9.265  63.415 106.3670  0.00  0.00     0.000 HD
BRANCH 42 49
ATOM     49   O  IDS C   3      10.709  63.599 108.9120  0.00  0.00     0.000 O
ATOM     50   S  IDS C   3      12.293  63.833 108.8980  0.00  0.00     0.000 S
ATOM     51   O  IDS C   3      12.488  64.728 107.7780  0.00  0.00     0.000 OA
ATOM     52   O  IDS C   3      12.968  62.558 108.7170  0.00  0.00     0.000 OA
ATOM     53   O  IDS C   3      12.617  64.443 110.1700  0.00  0.00     0.000 OA
ENDBRANCH 42 49
BRANCH 45 54
ATOM     54   C  IDS C   3       6.060  62.918 109.4040  0.00  0.00     0.000 C
ATOM     55   O  IDS C   3       6.089  62.591 110.5620  0.00  0.00     0.000 OA
ATOM     56   O  IDS C   3       5.060  63.425 108.9340  0.00  0.00     0.000 OA
ENDBRANCH 45 54
BRANCH 41 57
ATOM     57  O4  SGN C   4       9.185  60.676 107.5070  0.00  0.00     0.000 O
BRANCH 57 61
ATOM     58  C1  SGN C   4       7.751  56.764 107.1020  0.00  0.00     0.000 C
ATOM     59  C2  SGN C   4       6.712  57.851 107.4230  0.00  0.00     0.000 C
ATOM     60  C3  SGN C   4       7.272  59.252 107.1410  0.00  0.00     0.000 C
ATOM     61  C4  SGN C   4       8.584  59.434 107.8850  0.00  0.00     0.000 C
ATOM     62  C5  SGN C   4       9.555  58.305 107.5410  0.00  0.00     0.000 C
ATOM     63  O5  SGN C   4       8.956  57.022 107.8070  0.00  0.00     0.000 O
BRANCH 59 66
ATOM     64   N  SGN C   4       5.513  57.427 106.6930  0.00  0.00     0.000 N
ATOM     66  HD  SGN C   4       6.111  57.896 107.1090  0.00  0.00     0.000 HD
ATOM     66   O  SGN C   4       3.145  56.888 106.5070  0.00  0.00     0.000 OA
ATOM     67   O  SGN C   4       4.409  56.190 108.4960  0.00  0.00     0.000 OA
ATOM     68   S  SGN C   4       4.107  57.327 107.4600  0.00  0.00     0.000 S
ATOM     69   O  SGN C   4       3.890  58.543 108.1580  0.00  0.00     0.000 OA
ENDBRANCH 59 66
BRANCH 62 70
ATOM     70   C  SGN C   4      10.815  58.387 108.3670  0.00  0.00     0.000 C
ATOM     71   S  SGN C   4      11.693  58.531 110.7710  0.00  0.00     0.000 S
ATOM     72   O  SGN C   4      12.681  57.518 110.4550  0.00  0.00     0.000 OA
ATOM     73   O  SGN C   4      12.151  59.880 110.5100  0.00  0.00     0.000 OA
ATOM     74   O  SGN C   4      11.088  58.362 112.0720  0.00  0.00     0.000 OA
ATOM     75   O  SGN C   4      10.500  58.261 109.7590  0.00  0.00     0.000 O
ENDBRANCH 62 70
ENDBRANCH 57 61
ENDBRANCH 41 57
ENDBRANCH 40 44
ENDBRANCH 20 40
ENDBRANCH 19 23
ENDBRANCH 1 19
TORSDOF 14
ENDMDL
MODEL 20
REMARK VINA RESULT:       0.1    110.052    114.805
ROOT
ATOM      1  C1  IDS C   1      35.505  31.105 109.1720  0.00  0.00     0.000 C
ATOM      2  C2  IDS C   1      35.032  30.971 107.7350  0.00  0.00     0.000 C
ATOM      3  C3  IDS C   1      33.763  30.132 107.6600  0.00  0.00     0.000 C
ATOM      4  C4  IDS C   1      32.704  30.643 108.6360  0.00  0.00     0.000 C
ATOM      5  C5  IDS C   1      33.317  30.831 110.0390  0.00  0.00     0.000 C
ATOM      6  O5  IDS C   1      34.467  31.668 109.9720  0.00  0.00     0.000 O
ATOM      7   O  IDS C   1      34.078  28.766 107.9340  0.00  0.00     0.000 O
ATOM      9  HD  IDS C   1      33.250  28.793 108.1860  0.00  0.00     0.000 HD
ATOM      9   O  IDS C   1      32.203  31.904 108.1640  0.00  0.00     0.000 O
ATOM     11  HD  IDS C   1      31.375  31.930 108.4150  0.00  0.00     0.000 HD
ENDROOT
BRANCH 2 11
ATOM     11   O  IDS C   1      34.723  32.305 107.1730  0.00  0.00     0.000 O
ATOM     12   S  IDS C   1      35.629  32.930 106.0150  0.00  0.00     0.000 S
ATOM     13   O  IDS C   1      34.661  33.662 105.2290  0.00  0.00     0.000 OA
ATOM     14   O  IDS C   1      36.264  31.864 105.2770  0.00  0.00     0.000 OA
ATOM     15   O  IDS C   1      36.568  33.778 106.7060  0.00  0.00     0.000 OA
ENDBRANCH 2 11
BRANCH 5 16
ATOM     16   C  IDS C   1      32.354  31.446 111.0370  0.00  0.00     0.000 C
ATOM     17   O  IDS C   1      32.737  31.651 112.1700  0.00  0.00     0.000 OA
ATOM     18   O  IDS C   1      31.227  31.712 110.7220  0.00  0.00     0.000 OA
ENDBRANCH 5 16
BRANCH 1 19
ATOM     19  O4  SGN C   2      36.189  30.099 109.7260  0.00  0.00     0.000 O
BRANCH 19 23
ATOM     20  C1  SGN C   2      39.145  29.076 112.4900  0.00  0.00     0.000 C
ATOM     21  C2  SGN C   2      37.805  29.552 113.0650  0.00  0.00     0.000 C
ATOM     22  C3  SGN C   2      36.724  29.465 111.9910  0.00  0.00     0.000 C
ATOM     23  C4  SGN C   2      37.144  30.280 110.7730  0.00  0.00     0.000 C
ATOM     24  C5  SGN C   2      38.525  29.824 110.2930  0.00  0.00     0.000 C
ATOM     25  O5  SGN C   2      39.467  29.897 111.3790  0.00  0.00     0.000 O
ATOM     26   O  SGN C   2      35.476  29.918 112.5030  0.00  0.00     0.000 O
ATOM     28  HD  SGN C   2      34.745  30.143 112.9100  0.00  0.00     0.000 HD
BRANCH 21 30
ATOM     28   N  SGN C   2      38.471  29.089 114.2900  0.00  0.00     0.000 N
ATOM     30  HD  SGN C   2      38.216  28.334 114.6290  0.00  0.00     0.000 HD
ATOM     30   S  SGN C   2      37.853  29.392 115.7340  0.00  0.00     0.000 S
ATOM     31   O  SGN C   2      36.514  28.911 115.6790  0.00  0.00     0.000 OA
ATOM     32   O  SGN C   2      38.743  28.895 116.7170  0.00  0.00     0.000 OA
ATOM     33   O  SGN C   2      37.881  30.955 115.8390  0.00  0.00     0.000 OA
ENDBRANCH 21 30
BRANCH 24 34
ATOM     34   C  SGN C   2      39.091  30.673 109.1800  0.00  0.00     0.000 C
ATOM     35   O  SGN C   2      38.973  29.955 107.9390  0.00  0.00     0.000 O
ATOM     36   S  SGN C   2      39.907  30.430 106.7340  0.00  0.00     0.000 S
ATOM     37   O  SGN C   2      41.250  30.409 107.2790  0.00  0.00     0.000 OA
ATOM     38   O  SGN C   2      39.701  29.468 105.6790  0.00  0.00     0.000 OA
ATOM     39   O  SGN C   2      39.424  31.752 106.4190  0.00  0.00     0.000 OA
ENDBRANCH 24 34
BRANCH 20 40
ATOM     40  O4  IDS C   3      39.242  27.798 112.1330  0.00  0.00     0.000 O
BRANCH 40 44
ATOM     41  C1  IDS C   3      39.592  24.294 111.9700  0.00  0.00     0.000 C
ATOM     42  C2  IDS C   3      39.452  25.020 113.3040  0.00  0.00     0.000 C
ATOM     43  C3  IDS C   3      40.472  26.153 113.4020  0.00  0.00     0.000 C
ATOM     44  C4  IDS C   3      40.452  27.036 112.1640  0.00  0.00     0.000 C
ATOM     45  C5  IDS C   3      40.551  26.164 110.8950  0.00  0.00     0.000 C
ATOM     46  O5  IDS C   3      39.484  25.213 110.8860  0.00  0.00     0.000 O
ATOM     47   O  IDS C   3      41.774  25.602 113.5850  0.00  0.00     0.000 O
ATOM     49  HD  IDS C   3      40.983  25.814 113.8680  0.00  0.00     0.000 HD
BRANCH 42 49
ATOM     49   O  IDS C   3      38.092  25.594 113.4320  0.00  0.00     0.000 O
ATOM     50   S  IDS C   3      37.155  25.151 114.6530  0.00  0.00     0.000 S
ATOM     51   O  IDS C   3      37.769  25.792 115.7950  0.00  0.00     0.000 OA
ATOM     52   O  IDS C   3      37.155  23.701 114.7600  0.00  0.00     0.000 OA
ATOM     53   O  IDS C   3      35.838  25.673 114.3540  0.00  0.00     0.000 OA
ENDBRANCH 42 49
BRANCH 45 54
ATOM     54   C  IDS C   3      40.498  26.969 109.6060  0.00  0.00     0.000 C
ATOM     55   O  IDS C   3      39.627  26.753 108.8030  0.00  0.00     0.000 OA
ATOM     56   O  IDS C   3      41.343  27.814 109.3830  0.00  0.00     0.000 OA
ENDBRANCH 45 54
BRANCH 41 57
ATOM     57  O4  SGN C   4      40.641  23.470 112.0800  0.00  0.00     0.000 O
BRANCH 57 61
ATOM     58  C1  SGN C   4      42.535  20.507 109.8080  0.00  0.00     0.000 C
ATOM     59  C2  SGN C   4      42.680  21.955 109.3140  0.00  0.00     0.000 C
ATOM     60  C3  SGN C   4      42.313  22.957 110.4170  0.00  0.00     0.000 C
ATOM     61  C4  SGN C   4      40.926  22.638 110.9510  0.00  0.00     0.000 C
ATOM     62  C5  SGN C   4      40.846  21.178 111.3960  0.00  0.00     0.000 C
ATOM     63  O5  SGN C   4      41.227  20.299 110.3210  0.00  0.00     0.000 O
BRANCH 59 66
ATOM     64   N  SGN C   4      44.035  22.009 108.7560  0.00  0.00     0.000 N
ATOM     66  HD  SGN C   4      43.270  22.219 109.1030  0.00  0.00     0.000 HD
ATOM     66   O  SGN C   4      45.663  22.502 107.0120  0.00  0.00     0.000 OA
ATOM     67   O  SGN C   4      43.485  21.529 106.4180  0.00  0.00     0.000 OA
ATOM     68   S  SGN C   4      44.266  22.583 107.2760  0.00  0.00     0.000 S
ATOM     69   O  SGN C   4      43.611  23.837 107.1750  0.00  0.00     0.000 OA
ENDBRANCH 59 66
BRANCH 62 70
ATOM     70   C  SGN C   4      39.445  20.800 111.8050  0.00  0.00     0.000 C
ATOM     71   S  SGN C   4      36.999  20.828 111.0380  0.00  0.00     0.000 S
ATOM     72   O  SGN C   4      36.857  19.457 111.4850  0.00  0.00     0.000 OA
ATOM     73   O  SGN C   4      36.699  21.802 112.0670  0.00  0.00     0.000 OA
ATOM     74   O  SGN C   4      36.346  21.094 109.7760  0.00  0.00     0.000 OA
ATOM     75   O  SGN C   4      38.544  20.989 110.7070  0.00  0.00     0.000 O
ENDBRANCH 62 70
ENDBRANCH 57 61
ENDBRANCH 41 57
ENDBRANCH 40 44
ENDBRANCH 20 40
ENDBRANCH 19 23
ENDBRANCH 1 19
TORSDOF 14
ENDMDL
MODEL 21
REMARK VINA RESULT:       0.1     93.931     99.368
ROOT
ATOM      1  C1  IDS C   1      22.740  63.823 110.3800  0.00  0.00     0.000 C
ATOM      2  C2  IDS C   1      22.567  65.228 109.8300  0.00  0.00     0.000 C
ATOM      3  C3  IDS C   1      23.422  65.430 108.5850  0.00  0.00     0.000 C
ATOM      4  C4  IDS C   1      23.188  64.313 107.5680  0.00  0.00     0.000 C
ATOM      5  C5  IDS C   1      23.294  62.936 108.2540  0.00  0.00     0.000 C
ATOM      6  O5  IDS C   1      22.416  62.867 109.3720  0.00  0.00     0.000 O
ATOM      7   O  IDS C   1      24.800  65.488 108.9560  0.00  0.00     0.000 O
ATOM      9  HD  IDS C   1      24.865  65.197 108.1430  0.00  0.00     0.000 HD
ATOM      9   O  IDS C   1      21.876  64.463 107.0030  0.00  0.00     0.000 O
ATOM     11  HD  IDS C   1      21.942  64.172 106.1900  0.00  0.00     0.000 HD
ENDROOT
BRANCH 2 11
ATOM     11   O  IDS C   1      21.156  65.458 109.4500  0.00  0.00     0.000 O
ATOM     12   S  IDS C   1      20.376  66.756 109.9610  0.00  0.00     0.000 S
ATOM     13   O  IDS C   1      19.509  67.053 108.8420  0.00  0.00     0.000 OA
ATOM     14   O  IDS C   1      21.325  67.808 110.2340  0.00  0.00     0.000 OA
ATOM     15   O  IDS C   1      19.666  66.313 111.1350  0.00  0.00     0.000 OA
ENDBRANCH 2 11
BRANCH 5 16
ATOM     16   C  IDS C   1      22.960  61.779 107.3300  0.00  0.00     0.000 C
ATOM     17   O  IDS C   1      23.867  61.176 106.7970  0.00  0.00     0.000 OA
ATOM     18   O  IDS C   1      21.820  61.472 107.1160  0.00  0.00     0.000 OA
ENDBRANCH 5 16
BRANCH 1 19
ATOM     19  O4  SGN C   2      23.814  63.545 111.1240  0.00  0.00     0.000 O
BRANCH 19 23
ATOM     20  C1  SGN C   2      25.188  61.685 114.5990  0.00  0.00     0.000 C
ATOM     21  C2  SGN C   2      24.747  60.762 113.4570  0.00  0.00     0.000 C
ATOM     22  C3  SGN C   2      24.696  61.547 112.1500  0.00  0.00     0.000 C
ATOM     23  C4  SGN C   2      23.766  62.745 112.3070  0.00  0.00     0.000 C
ATOM     24  C5  SGN C   2      24.199  63.584 113.5120  0.00  0.00     0.000 C
ATOM     25  O5  SGN C   2      24.262  62.755 114.6870  0.00  0.00     0.000 O
ATOM     26   O  SGN C   2      24.273  60.709 111.0810  0.00  0.00     0.000 O
ATOM     28  HD  SGN C   2      24.076  60.119 110.4780  0.00  0.00     0.000 HD
BRANCH 21 30
ATOM     28   N  SGN C   2      25.694  59.694 113.8050  0.00  0.00     0.000 N
ATOM     30  HD  SGN C   2      25.975  59.178 113.1690  0.00  0.00     0.000 HD
ATOM     30   S  SGN C   2      25.189  58.210 114.1280  0.00  0.00     0.000 S
ATOM     31   O  SGN C   2      24.396  57.831 113.0080  0.00  0.00     0.000 OA
ATOM     32   O  SGN C   2      26.308  57.427 114.5000  0.00  0.00     0.000 OA
ATOM     33   O  SGN C   2      24.302  58.380 115.4080  0.00  0.00     0.000 OA
ENDBRANCH 21 30
BRANCH 24 34
ATOM     34   C  SGN C   2      23.249  64.713 113.8380  0.00  0.00     0.000 C
ATOM     35   O  SGN C   2      23.788  65.941 113.3170  0.00  0.00     0.000 O
ATOM     36   S  SGN C   2      23.220  67.301 113.9340  0.00  0.00     0.000 S
ATOM     37   O  SGN C   2      23.401  67.160 115.3650  0.00  0.00     0.000 OA
ATOM     38   O  SGN C   2      24.019  68.354 113.3550  0.00  0.00     0.000 OA
ATOM     39   O  SGN C   2      21.839  67.322 113.5170  0.00  0.00     0.000 OA
ENDBRANCH 24 34
BRANCH 20 40
ATOM     40  O4  IDS C   3      26.423  62.177 114.5500  0.00  0.00     0.000 O
BRANCH 40 44
ATOM     41  C1  IDS C   3      29.835  63.064 114.5650  0.00  0.00     0.000 C
ATOM     42  C2  IDS C   3      29.390  61.607 114.4870  0.00  0.00     0.000 C
ATOM     43  C3  IDS C   3      28.404  61.292 115.6100  0.00  0.00     0.000 C
ATOM     44  C4  IDS C   3      27.286  62.321 115.6810  0.00  0.00     0.000 C
ATOM     45  C5  IDS C   3      27.882  63.744 115.7040  0.00  0.00     0.000 C
ATOM     46  O5  IDS C   3      28.706  63.934 114.5520  0.00  0.00     0.000 O
ATOM     47   O  IDS C   3      29.100  61.245 116.8520  0.00  0.00     0.000 O
ATOM     49  HD  IDS C   3      28.878  60.913 116.0840  0.00  0.00     0.000 HD
BRANCH 42 49
ATOM     49   O  IDS C   3      28.729  61.345 113.1880  0.00  0.00     0.000 O
ATOM     50   S  IDS C   3      29.210  60.110 112.2880  0.00  0.00     0.000 S
ATOM     51   O  IDS C   3      28.723  58.958 113.0140  0.00  0.00     0.000 OA
ATOM     52   O  IDS C   3      30.659  60.128 112.1770  0.00  0.00     0.000 OA
ATOM     53   O  IDS C   3      28.564  60.279 111.0030  0.00  0.00     0.000 OA
ENDBRANCH 42 49
BRANCH 45 54
ATOM     54   C  IDS C   3      26.827  64.839 115.7350  0.00  0.00     0.000 C
ATOM     55   O  IDS C   3      26.022  64.865 116.6300  0.00  0.00     0.000 OA
ATOM     56   O  IDS C   3      26.790  65.671 114.8500  0.00  0.00     0.000 OA
ENDBRANCH 45 54
BRANCH 41 57
ATOM     57  O4  SGN C   4      30.759  63.141 115.5300  0.00  0.00     0.000 O
BRANCH 57 61
ATOM     58  C1  SGN C   4      33.563  65.901 116.9610  0.00  0.00     0.000 C
ATOM     59  C2  SGN C   4      32.082  66.301 117.0690  0.00  0.00     0.000 C
ATOM     60  C3  SGN C   4      31.166  65.080 116.9070  0.00  0.00     0.000 C
ATOM     61  C4  SGN C   4      31.504  64.360 115.6120  0.00  0.00     0.000 C
ATOM     62  C5  SGN C   4      32.992  64.021 115.5600  0.00  0.00     0.000 C
ATOM     63  O5  SGN C   4      33.790  65.206 115.7430  0.00  0.00     0.000 O
BRANCH 59 66
ATOM     64   N  SGN C   4      32.008  67.060 118.3210  0.00  0.00     0.000 N
ATOM     66  HD  SGN C   4      31.812  66.581 117.6260  0.00  0.00     0.000 HD
ATOM     66   O  SGN C   4      31.403  68.996 119.6710  0.00  0.00     0.000 OA
ATOM     67   O  SGN C   4      32.284  69.312 117.3980  0.00  0.00     0.000 OA
ATOM     68   S  SGN C   4      31.318  68.509 118.3360  0.00  0.00     0.000 S
ATOM     69   O  SGN C   4      30.048  68.406 117.7110  0.00  0.00     0.000 OA
ENDBRANCH 59 66
BRANCH 62 70
ATOM     70   C  SGN C   4      33.379  63.426 114.2300  0.00  0.00     0.000 C
ATOM     71   S  SGN C   4      33.434  63.886 111.7080  0.00  0.00     0.000 S
ATOM     72   O  SGN C   4      34.786  63.366 111.6570  0.00  0.00     0.000 OA
ATOM     73   O  SGN C   4      32.420  62.870 111.5130  0.00  0.00     0.000 OA
ATOM     74   O  SGN C   4      33.238  65.068 110.8990  0.00  0.00     0.000 OA
ATOM     75   O  SGN C   4      33.258  64.411 113.1970  0.00  0.00     0.000 O
ENDBRANCH 62 70
ENDBRANCH 57 61
ENDBRANCH 41 57
ENDBRANCH 40 44
ENDBRANCH 20 40
ENDBRANCH 19 23
ENDBRANCH 1 19
TORSDOF 14
ENDMDL
MODEL 22
REMARK VINA RESULT:       0.1     55.315     60.290
ROOT
ATOM      1  C1  IDS C   1     102.964  55.277  46.8580  0.00  0.00     0.000 C
ATOM      2  C2  IDS C   1     101.487  54.925  46.8840  0.00  0.00     0.000 C
ATOM      3  C3  IDS C   1     101.056  54.302  45.5610  0.00  0.00     0.000 C
ATOM      4  C4  IDS C   1     101.981  53.151  45.1660  0.00  0.00     0.000 C
ATOM      5  C5  IDS C   1     103.455  53.592  45.2660  0.00  0.00     0.000 C
ATOM      6  O5  IDS C   1     103.733  54.112  46.5620  0.00  0.00     0.000 O
ATOM      7   O  IDS C   1     101.044  55.305  44.5440  0.00  0.00     0.000 O
ATOM      9  HD  IDS C   1     101.187  54.597  44.0680  0.00  0.00     0.000 HD
ATOM      9   O  IDS C   1     101.754  52.044  46.0530  0.00  0.00     0.000 O
ATOM     11  HD  IDS C   1     101.897  51.335  45.5760  0.00  0.00     0.000 HD
ENDROOT
BRANCH 2 11
ATOM     11   O  IDS C   1     101.215  53.939  47.9540  0.00  0.00     0.000 O
ATOM     12   S  IDS C   1     100.324  54.337  49.2190  0.00  0.00     0.000 S
ATOM     13   O  IDS C   1      99.634  53.099  49.5100  0.00  0.00     0.000 OA
ATOM     14   O  IDS C   1      99.429  55.409  48.8560  0.00  0.00     0.000 OA
ATOM     15   O  IDS C   1     101.279  54.713  50.2320  0.00  0.00     0.000 OA
ENDBRANCH 2 11
BRANCH 5 16
ATOM     16   C  IDS C   1     104.438  52.466  44.9990  0.00  0.00     0.000 C
ATOM     17   O  IDS C   1     105.625  52.691  45.1000  0.00  0.00     0.000 OA
ATOM     18   O  IDS C   1     104.052  51.376  44.6780  0.00  0.00     0.000 OA
ENDBRANCH 5 16
BRANCH 1 19
ATOM     19  O4  SGN C   2     103.352  56.403  46.2520  0.00  0.00     0.000 O
BRANCH 19 23
ATOM     20  C1  SGN C   2     106.133  59.516  46.2520  0.00  0.00     0.000 C
ATOM     21  C2  SGN C   2     106.649  58.136  45.8270  0.00  0.00     0.000 C
ATOM     22  C3  SGN C   2     105.473  57.235  45.4610  0.00  0.00     0.000 C
ATOM     23  C4  SGN C   2     104.509  57.146  46.6380  0.00  0.00     0.000 C
ATOM     24  C5  SGN C   2     104.093  58.552  47.0780  0.00  0.00     0.000 C
ATOM     25  O5  SGN C   2     105.263  59.341  47.3590  0.00  0.00     0.000 O
ATOM     26   O  SGN C   2     105.934  55.944  45.0790  0.00  0.00     0.000 O
ATOM     28  HD  SGN C   2     106.299  55.212  44.7960  0.00  0.00     0.000 HD
BRANCH 21 30
ATOM     28   N  SGN C   2     107.807  58.970  45.4770  0.00  0.00     0.000 N
ATOM     30  HD  SGN C   2     107.949  59.136  44.6390  0.00  0.00     0.000 HD
ATOM     30   S  SGN C   2     109.213  58.314  45.0840  0.00  0.00     0.000 S
ATOM     31   O  SGN C   2     108.920  57.397  44.0350  0.00  0.00     0.000 OA
ATOM     32   O  SGN C   2     110.150  59.354  44.8740  0.00  0.00     0.000 OA
ATOM     33   O  SGN C   2     109.654  57.555  46.3820  0.00  0.00     0.000 OA
ENDBRANCH 21 30
BRANCH 24 34
ATOM     34   C  SGN C   2     103.253  58.572  48.3330  0.00  0.00     0.000 C
ATOM     35   O  SGN C   2     101.883  58.820  47.9740  0.00  0.00     0.000 O
ATOM     36   S  SGN C   2     100.915  59.348  49.1300  0.00  0.00     0.000 S
ATOM     37   O  SGN C   2     101.584  60.516  49.6670  0.00  0.00     0.000 OA
ATOM     38   O  SGN C   2      99.663  59.652  48.4800  0.00  0.00     0.000 OA
ATOM     39   O  SGN C   2     100.838  58.241  50.0520  0.00  0.00     0.000 OA
ENDBRANCH 24 34
BRANCH 20 40
ATOM     40  O4  IDS C   3     105.523  60.256  45.3290  0.00  0.00     0.000 O
BRANCH 40 44
ATOM     41  C1  IDS C   3     104.621  62.363  42.6510  0.00  0.00     0.000 C
ATOM     42  C2  IDS C   3     106.056  61.881  42.8380  0.00  0.00     0.000 C
ATOM     43  C3  IDS C   3     106.533  62.170  44.2590  0.00  0.00     0.000 C
ATOM     44  C4  IDS C   3     105.534  61.685  45.2980  0.00  0.00     0.000 C
ATOM     45  C5  IDS C   3     104.123  62.208  44.9540  0.00  0.00     0.000 C
ATOM     46  O5  IDS C   3     103.767  61.786  43.6360  0.00  0.00     0.000 O
ATOM     47   O  IDS C   3     106.750  63.570  44.4100  0.00  0.00     0.000 O
ATOM     49  HD  IDS C   3     106.972  62.787  44.1160  0.00  0.00     0.000 HD
BRANCH 42 49
ATOM     49   O  IDS C   3     106.138  60.421  42.5980  0.00  0.00     0.000 O
ATOM     50   S  IDS C   3     107.123  59.857  41.4670  0.00  0.00     0.000 S
ATOM     51   O  IDS C   3     108.436  60.056  42.0390  0.00  0.00     0.000 OA
ATOM     52   O  IDS C   3     106.929  60.609  40.2390  0.00  0.00     0.000 OA
ATOM     53   O  IDS C   3     106.785  58.458  41.3070  0.00  0.00     0.000 OA
ENDBRANCH 42 49
BRANCH 45 54
ATOM     54   C  IDS C   3     103.052  61.735  45.9240  0.00  0.00     0.000 C
ATOM     55   O  IDS C   3     102.110  61.108  45.5140  0.00  0.00     0.000 OA
ATOM     56   O  IDS C   3     103.142  62.006  47.1060  0.00  0.00     0.000 OA
ENDBRANCH 45 54
BRANCH 41 57
ATOM     57  O4  SGN C   4     104.674  63.688  42.4680  0.00  0.00     0.000 O
BRANCH 57 61
ATOM     58  C1  SGN C   4     102.047  66.815  41.5460  0.00  0.00     0.000 C
ATOM     59  C2  SGN C   4     101.941  66.217  42.9590  0.00  0.00     0.000 C
ATOM     60  C3  SGN C   4     103.190  65.396  43.3080  0.00  0.00     0.000 C
ATOM     61  C4  SGN C   4     103.430  64.354  42.2280  0.00  0.00     0.000 C
ATOM     62  C5  SGN C   4     103.494  65.013  40.8510  0.00  0.00     0.000 C
ATOM     63  O5  SGN C   4     102.304  65.785  40.6030  0.00  0.00     0.000 O
BRANCH 59 66
ATOM     64   N  SGN C   4     101.610  67.365  43.8100  0.00  0.00     0.000 N
ATOM     66  HD  SGN C   4     101.885  66.596  43.5210  0.00  0.00     0.000 HD
ATOM     66   O  SGN C   4     100.284  68.531  45.4880  0.00  0.00     0.000 OA
ATOM     67   O  SGN C   4      99.172  67.136  43.7970  0.00  0.00     0.000 OA
ATOM     68   S  SGN C   4     100.359  67.281  44.8110  0.00  0.00     0.000 S
ATOM     69   O  SGN C   4     100.469  66.086  45.5660  0.00  0.00     0.000 OA
ENDBRANCH 59 66
BRANCH 62 70
ATOM     70   C  SGN C   4     103.597  63.988  39.7500  0.00  0.00     0.000 C
ATOM     71   S  SGN C   4     102.583  61.805  38.8690  0.00  0.00     0.000 S
ATOM     72   O  SGN C   4     102.578  62.363  37.5320  0.00  0.00     0.000 OA
ATOM     73   O  SGN C   4     103.813  61.114  39.1990  0.00  0.00     0.000 OA
ATOM     74   O  SGN C   4     101.390  61.054  39.1860  0.00  0.00     0.000 OA
ATOM     75   O  SGN C   4     102.506  63.064  39.8340  0.00  0.00     0.000 O
ENDBRANCH 62 70
ENDBRANCH 57 61
ENDBRANCH 41 57
ENDBRANCH 40 44
ENDBRANCH 20 40
ENDBRANCH 19 23
ENDBRANCH 1 19
TORSDOF 14
ENDMDL
MODEL 23
REMARK VINA RESULT:       0.1    100.501    106.688
ROOT
ATOM      1  C1  IDS C   1      25.773  32.192  71.6400  0.00  0.00     0.000 C
ATOM      2  C2  IDS C   1      25.198  33.232  72.5860  0.00  0.00     0.000 C
ATOM      3  C3  IDS C   1      24.660  34.429  71.8110  0.00  0.00     0.000 C
ATOM      4  C4  IDS C   1      23.712  33.985  70.6970  0.00  0.00     0.000 C
ATOM      5  C5  IDS C   1      24.361  32.864  69.8600  0.00  0.00     0.000 C
ATOM      6  O5  IDS C   1      24.777  31.792  70.6990  0.00  0.00     0.000 O
ATOM      7   O  IDS C   1      25.751  35.176  71.2710  0.00  0.00     0.000 O
ATOM      9  HD  IDS C   1      25.127  35.372  70.7040  0.00  0.00     0.000 HD
ATOM      9   O  IDS C   1      22.497  33.496  71.2860  0.00  0.00     0.000 O
ATOM     11  HD  IDS C   1      21.872  33.693  70.7190  0.00  0.00     0.000 HD
ENDROOT
BRANCH 2 11
ATOM     11   O  IDS C   1      24.075  32.654  73.3580  0.00  0.00     0.000 O
ATOM     12   S  IDS C   1      24.212  32.405  74.9300  0.00  0.00     0.000 S
ATOM     13   O  IDS C   1      22.870  32.668  75.4000  0.00  0.00     0.000 OA
ATOM     14   O  IDS C   1      25.190  33.316  75.4760  0.00  0.00     0.000 OA
ATOM     15   O  IDS C   1      24.599  31.021  75.0460  0.00  0.00     0.000 OA
ENDBRANCH 2 11
BRANCH 5 16
ATOM     16   C  IDS C   1      23.433  32.291  68.8040  0.00  0.00     0.000 C
ATOM     17   O  IDS C   1      23.837  31.393  68.0960  0.00  0.00     0.000 OA
ATOM     18   O  IDS C   1      22.324  32.727  68.6570  0.00  0.00     0.000 OA
ENDBRANCH 5 16
BRANCH 1 19
ATOM     19  O4  SGN C   2      27.002  32.372  71.1480  0.00  0.00     0.000 O
BRANCH 19 23
ATOM     20  C1  SGN C   2      30.472  30.473  69.8120  0.00  0.00     0.000 C
ATOM     21  C2  SGN C   2      29.245  30.380  68.8970  0.00  0.00     0.000 C
ATOM     22  C3  SGN C   2      28.229  31.451  69.2860  0.00  0.00     0.000 C
ATOM     23  C4  SGN C   2      27.858  31.297  70.7560  0.00  0.00     0.000 C
ATOM     24  C5  SGN C   2      29.125  31.309  71.6170  0.00  0.00     0.000 C
ATOM     25  O5  SGN C   2      30.040  30.300  71.1520  0.00  0.00     0.000 O
ATOM     26   O  SGN C   2      27.076  31.370  68.4570  0.00  0.00     0.000 O
ATOM     28  HD  SGN C   2      26.445  31.297  67.8680  0.00  0.00     0.000 HD
BRANCH 21 30
ATOM     28   N  SGN C   2      30.275  29.807  68.0210  0.00  0.00     0.000 N
ATOM     30  HD  SGN C   2      30.583  30.301  67.3800  0.00  0.00     0.000 HD
ATOM     30   S  SGN C   2      29.889  29.100  66.6390  0.00  0.00     0.000 S
ATOM     31   O  SGN C   2      29.106  30.057  65.9320  0.00  0.00     0.000 OA
ATOM     32   O  SGN C   2      31.070  28.582  66.0550  0.00  0.00     0.000 OA
ATOM     33   O  SGN C   2      29.015  27.874  67.0710  0.00  0.00     0.000 OA
ENDBRANCH 21 30
BRANCH 24 34
ATOM     34   C  SGN C   2      28.870  31.013  73.0760  0.00  0.00     0.000 C
ATOM     35   O  SGN C   2      28.971  32.237  73.8250  0.00  0.00     0.000 O
ATOM     36   S  SGN C   2      29.209  32.107  75.3980  0.00  0.00     0.000 S
ATOM     37   O  SGN C   2      30.381  31.262  75.5250  0.00  0.00     0.000 OA
ATOM     38   O  SGN C   2      29.419  33.453  75.8730  0.00  0.00     0.000 OA
ATOM     39   O  SGN C   2      27.995  31.500  75.8860  0.00  0.00     0.000 OA
ENDBRANCH 24 34
BRANCH 20 40
ATOM     40  O4  IDS C   3      31.218  31.572  69.7310  0.00  0.00     0.000 O
BRANCH 40 44
ATOM     41  C1  IDS C   3      33.493  34.116  68.8490  0.00  0.00     0.000 C
ATOM     42  C2  IDS C   3      33.224  32.931  67.9260  0.00  0.00     0.000 C
ATOM     43  C3  IDS C   3      33.393  31.618  68.6850  0.00  0.00     0.000 C
ATOM     44  C4  IDS C   3      32.622  31.622  69.9960  0.00  0.00     0.000 C
ATOM     45  C5  IDS C   3      32.956  32.897  70.7980  0.00  0.00     0.000 C
ATOM     46  O5  IDS C   3      32.662  34.049  70.0050  0.00  0.00     0.000 O
ATOM     47   O  IDS C   3      34.777  31.392  68.9370  0.00  0.00     0.000 O
ATOM     49  HD  IDS C   3      34.085  31.412  68.4170  0.00  0.00     0.000 HD
BRANCH 42 49
ATOM     49   O  IDS C   3      31.841  32.999  67.3990  0.00  0.00     0.000 O
ATOM     50   S  IDS C   3      31.597  33.089  65.8180  0.00  0.00     0.000 S
ATOM     51   O  IDS C   3      31.941  31.763  65.3520  0.00  0.00     0.000 OA
ATOM     52   O  IDS C   3      32.455  34.118  65.2550  0.00  0.00     0.000 OA
ATOM     53   O  IDS C   3      30.193  33.398  65.6490  0.00  0.00     0.000 OA
ENDBRANCH 42 49
BRANCH 45 54
ATOM     54   C  IDS C   3      32.194  33.001  72.1100  0.00  0.00     0.000 C
ATOM     55   O  IDS C   3      31.462  33.937  72.3030  0.00  0.00     0.000 OA
ATOM     56   O  IDS C   3      32.338  32.148  72.9640  0.00  0.00     0.000 OA
ENDBRANCH 45 54
BRANCH 41 57
ATOM     57  O4  SGN C   4      34.822  34.236  68.9550  0.00  0.00     0.000 O
BRANCH 57 61
ATOM     58  C1  SGN C   4      37.591  36.857  70.6840  0.00  0.00     0.000 C
ATOM     59  C2  SGN C   4      36.759  35.996  71.6480  0.00  0.00     0.000 C
ATOM     60  C3  SGN C   4      36.104  34.818  70.9140  0.00  0.00     0.000 C
ATOM     61  C4  SGN C   4      35.308  35.337  69.7290  0.00  0.00     0.000 C
ATOM     62  C5  SGN C   4      36.187  36.207  68.8320  0.00  0.00     0.000 C
ATOM     63  O5  SGN C   4      36.786  37.274  69.5900  0.00  0.00     0.000 O
BRANCH 59 66
ATOM     64   N  SGN C   4      37.682  35.697  72.7480  0.00  0.00     0.000 N
ATOM     66  HD  SGN C   4      37.026  35.671  72.1820  0.00  0.00     0.000 HD
ATOM     66   O  SGN C   4      38.326  35.599  75.0950  0.00  0.00     0.000 OA
ATOM     67   O  SGN C   4      37.064  37.532  74.2490  0.00  0.00     0.000 OA
ATOM     68   S  SGN C   4      37.233  35.973  74.2630  0.00  0.00     0.000 S
ATOM     69   O  SGN C   4      35.964  35.373  74.4690  0.00  0.00     0.000 OA
ENDBRANCH 59 66
BRANCH 62 70
ATOM     70   C  SGN C   4      35.388  36.844  67.7220  0.00  0.00     0.000 C
ATOM     71   S  SGN C   4      33.324  38.285  67.2400  0.00  0.00     0.000 S
ATOM     72   O  SGN C   4      34.111  39.078  66.3150  0.00  0.00     0.000 OA
ATOM     73   O  SGN C   4      32.686  37.143  66.6170  0.00  0.00     0.000 OA
ATOM     74   O  SGN C   4      32.435  39.072  68.0630  0.00  0.00     0.000 OA
ATOM     75   O  SGN C   4      34.379  37.700  68.2720  0.00  0.00     0.000 O
ENDBRANCH 62 70
ENDBRANCH 57 61
ENDBRANCH 41 57
ENDBRANCH 40 44
ENDBRANCH 20 40
ENDBRANCH 19 23
ENDBRANCH 1 19
TORSDOF 14
ENDMDL
MODEL 24
REMARK VINA RESULT:       0.1     83.197     88.536
ROOT
ATOM      1  C1  IDS C   1      17.281 108.549  51.6290  0.00  0.00     0.000 C
ATOM      2  C2  IDS C   1      18.596 109.205  51.2470  0.00  0.00     0.000 C
ATOM      3  C3  IDS C   1      18.917 110.360  52.1870  0.00  0.00     0.000 C
ATOM      4  C4  IDS C   1      18.820 109.926  53.6490  0.00  0.00     0.000 C
ATOM      5  C5  IDS C   1      17.489 109.190  53.9000  0.00  0.00     0.000 C
ATOM      6  O5  IDS C   1      17.336 108.110  52.9850  0.00  0.00     0.000 O
ATOM      7   O  IDS C   1      18.025 111.446  51.9280  0.00  0.00     0.000 O
ATOM      9  HD  IDS C   1      18.215 111.590  52.7600  0.00  0.00     0.000 HD
ATOM      9   O  IDS C   1      19.915 109.045  53.9470  0.00  0.00     0.000 O
ATOM     11  HD  IDS C   1      20.105 109.189  54.7800  0.00  0.00     0.000 HD
ENDROOT
BRANCH 2 11
ATOM     11   O  IDS C   1      19.702 108.226  51.3440  0.00  0.00     0.000 O
ATOM     12   S  IDS C   1      20.451 107.712  50.0290  0.00  0.00     0.000 S
ATOM     13   O  IDS C   1      21.808 107.537  50.4980  0.00  0.00     0.000 OA
ATOM     14   O  IDS C   1      20.337 108.710  48.9930  0.00  0.00     0.000 OA
ATOM     15   O  IDS C   1      19.793 106.472  49.6980  0.00  0.00     0.000 OA
ENDBRANCH 2 11
BRANCH 5 16
ATOM     16   C  IDS C   1      17.371 108.626  55.3040  0.00  0.00     0.000 C
ATOM     17   O  IDS C   1      16.368 108.014  55.6060  0.00  0.00     0.000 OA
ATOM     18   O  IDS C   1      18.244 108.793  56.1100  0.00  0.00     0.000 OA
ENDBRANCH 5 16
BRANCH 1 19
ATOM     19  O4  SGN C   2      16.135 109.121  51.2460  0.00  0.00     0.000 O
BRANCH 19 23
ATOM     20  C1  SGN C   2      12.171 108.444  50.1280  0.00  0.00     0.000 C
ATOM     21  C2  SGN C   2      12.510 108.233  51.6090  0.00  0.00     0.000 C
ATOM     22  C3  SGN C   2      13.833 108.920  51.9370  0.00  0.00     0.000 C
ATOM     23  C4  SGN C   2      14.928 108.391  51.0190  0.00  0.00     0.000 C
ATOM     24  C5  SGN C   2      14.501 108.546  49.5570  0.00  0.00     0.000 C
ATOM     25  O5  SGN C   2      13.228 107.907  49.3500  0.00  0.00     0.000 O
ATOM     26   O  SGN C   2      14.172 108.721  53.3050  0.00  0.00     0.000 O
ATOM     28  HD  SGN C   2      14.269 108.612  54.1580  0.00  0.00     0.000 HD
BRANCH 21 30
ATOM     28   N  SGN C   2      11.046 108.118  51.6510  0.00  0.00     0.000 N
ATOM     30  HD  SGN C   2      10.596 108.789  51.9610  0.00  0.00     0.000 HD
ATOM     30   S  SGN C   2      10.291 107.625  52.9730  0.00  0.00     0.000 S
ATOM     31   O  SGN C   2      10.757 108.479  54.0130  0.00  0.00     0.000 OA
ATOM     32   O  SGN C   2       8.906 107.542  52.6940  0.00  0.00     0.000 OA
ATOM     33   O  SGN C   2      10.806 106.160  53.1810  0.00  0.00     0.000 OA
ENDBRANCH 21 30
BRANCH 24 34
ATOM     34   C  SGN C   2      15.459 107.913  48.5750  0.00  0.00     0.000 C
ATOM     35   O  SGN C   2      16.216 108.951  47.9270  0.00  0.00     0.000 O
ATOM     36   S  SGN C   2      16.928 108.575  46.5480  0.00  0.00     0.000 S
ATOM     37   O  SGN C   2      15.866 108.040  45.7180  0.00  0.00     0.000 OA
ATOM     38   O  SGN C   2      17.481 109.810  46.0460  0.00  0.00     0.000 OA
ATOM     39   O  SGN C   2      17.924 107.602  46.9240  0.00  0.00     0.000 OA
ENDBRANCH 24 34
BRANCH 20 40
ATOM     40  O4  IDS C   3      11.918 109.687  49.7260  0.00  0.00     0.000 O
BRANCH 40 44
ATOM     41  C1  IDS C   3      10.515 112.838  48.9970  0.00  0.00     0.000 C
ATOM     42  C2  IDS C   3       9.793 111.829  49.8860  0.00  0.00     0.000 C
ATOM     43  C3  IDS C   3       9.701 110.475  49.1870  0.00  0.00     0.000 C
ATOM     44  C4  IDS C   3      11.049 110.029  48.6430  0.00  0.00     0.000 C
ATOM     45  C5  IDS C   3      11.680 111.163  47.8080  0.00  0.00     0.000 C
ATOM     46  O5  IDS C   3      11.794 112.340  48.6120  0.00  0.00     0.000 O
ATOM     47   O  IDS C   3       8.752 110.554  48.1260  0.00  0.00     0.000 O
ATOM     49  HD  IDS C   3       8.964 110.505  48.9650  0.00  0.00     0.000 HD
BRANCH 42 49
ATOM     49   O  IDS C   3      10.528 111.656  51.1600  0.00  0.00     0.000 O
ATOM     50   S  IDS C   3       9.802 111.993  52.5480  0.00  0.00     0.000 S
ATOM     51   O  IDS C   3       8.852 110.913  52.6980  0.00  0.00     0.000 OA
ATOM     52   O  IDS C   3       9.159 113.293  52.4530  0.00  0.00     0.000 OA
ATOM     53   O  IDS C   3      10.841 111.972  53.5560  0.00  0.00     0.000 OA
ENDBRANCH 42 49
BRANCH 45 54
ATOM     54   C  IDS C   3      13.054 110.814  47.2580  0.00  0.00     0.000 C
ATOM     55   O  IDS C   3      14.007 111.482  47.5640  0.00  0.00     0.000 OA
ATOM     56   O  IDS C   3      13.182 109.872  46.5000  0.00  0.00     0.000 OA
ENDBRANCH 45 54
BRANCH 41 57
ATOM     57  O4  SGN C   4       9.630 113.259  48.0850  0.00  0.00     0.000 O
BRANCH 57 61
ATOM     58  C1  SGN C   4       9.431 116.089  45.0050  0.00  0.00     0.000 C
ATOM     59  C2  SGN C   4      10.342 114.873  44.7690  0.00  0.00     0.000 C
ATOM     60  C3  SGN C   4      10.019 113.739  45.7530  0.00  0.00     0.000 C
ATOM     61  C4  SGN C   4      10.077 114.270  47.1750  0.00  0.00     0.000 C
ATOM     62  C5  SGN C   4       9.173 115.492  47.3290  0.00  0.00     0.000 C
ATOM     63  O5  SGN C   4       9.516 116.501  46.3620  0.00  0.00     0.000 O
BRANCH 59 66
ATOM     64   N  SGN C   4      10.211 114.600  43.3340  0.00  0.00     0.000 N
ATOM     66  HD  SGN C   4      10.356 114.525  44.1850  0.00  0.00     0.000 HD
ATOM     66   O  SGN C   4      11.086 114.199  41.0970  0.00  0.00     0.000 OA
ATOM     67   O  SGN C   4      12.139 115.886  42.5420  0.00  0.00     0.000 OA
ATOM     68   S  SGN C   4      11.526 114.448  42.4280  0.00  0.00     0.000 S
ATOM     69   O  SGN C   4      12.398 113.523  43.0570  0.00  0.00     0.000 OA
ENDBRANCH 59 66
BRANCH 62 70
ATOM     70   C  SGN C   4       9.315 116.117  48.6940  0.00  0.00     0.000 C
ATOM     71   S  SGN C   4      11.022 117.061  50.3580  0.00  0.00     0.000 S
ATOM     72   O  SGN C   4      10.149 118.195  50.5880  0.00  0.00     0.000 OA
ATOM     73   O  SGN C   4      10.758 115.944  51.2430  0.00  0.00     0.000 OA
ATOM     74   O  SGN C   4      12.419 117.416  50.2680  0.00  0.00     0.000 OA
ATOM     75   O  SGN C   4      10.661 116.564  48.8930  0.00  0.00     0.000 O
ENDBRANCH 62 70
ENDBRANCH 57 61
ENDBRANCH 41 57
ENDBRANCH 40 44
ENDBRANCH 20 40
ENDBRANCH 19 23
ENDBRANCH 1 19
TORSDOF 14
ENDMDL
MODEL 25
REMARK VINA RESULT:       0.1     83.242     88.719
ROOT
ATOM      1  C1  IDS C   1      17.281 108.549  51.6290  0.00  0.00     0.000 C
ATOM      2  C2  IDS C   1      18.449 109.483  51.3690  0.00  0.00     0.000 C
ATOM      3  C3  IDS C   1      18.839 110.228  52.6400  0.00  0.00     0.000 C
ATOM      4  C4  IDS C   1      19.041 109.261  53.8060  0.00  0.00     0.000 C
ATOM      5  C5  IDS C   1      17.839 108.301  53.9180  0.00  0.00     0.000 C
ATOM      6  O5  IDS C   1      17.613 107.640  52.6770  0.00  0.00     0.000 O
ATOM      7   O  IDS C   1      17.831 111.190  52.9560  0.00  0.00     0.000 O
ATOM      9  HD  IDS C   1      18.154 111.032  53.7440  0.00  0.00     0.000 HD
ATOM      9   O  IDS C   1      20.238 108.501  53.5810  0.00  0.00     0.000 O
ATOM     11  HD  IDS C   1      20.562 108.343  54.3680  0.00  0.00     0.000 HD
ENDROOT
BRANCH 2 11
ATOM     11   O  IDS C   1      19.630 108.712  50.9200  0.00  0.00     0.000 O
ATOM     12   S  IDS C   1      20.171 108.850  49.4230  0.00  0.00     0.000 S
ATOM     13   O  IDS C   1      21.599 108.707  49.5980  0.00  0.00     0.000 OA
ATOM     14   O  IDS C   1      19.794 110.139  48.8950  0.00  0.00     0.000 OA
ATOM     15   O  IDS C   1      19.566 107.748  48.7150  0.00  0.00     0.000 OA
ENDBRANCH 2 11
BRANCH 5 16
ATOM     16   C  IDS C   1      18.020 107.235  54.9830  0.00  0.00     0.000 C
ATOM     17   O  IDS C   1      17.139 106.417  55.1470  0.00  0.00     0.000 OA
ATOM     18   O  IDS C   1      19.007 107.207  55.6650  0.00  0.00     0.000 OA
ENDBRANCH 5 16
BRANCH 1 19
ATOM     19  O4  SGN C   2      16.043 109.051  51.6610  0.00  0.00     0.000 O
BRANCH 19 23
ATOM     20  C1  SGN C   2      12.010 108.286  50.9040  0.00  0.00     0.000 C
ATOM     21  C2  SGN C   2      12.625 107.579  52.1180  0.00  0.00     0.000 C
ATOM     22  C3  SGN C   2      13.925 108.274  52.5150  0.00  0.00     0.000 C
ATOM     23  C4  SGN C   2      14.878 108.296  51.3250  0.00  0.00     0.000 C
ATOM     24  C5  SGN C   2      14.185 108.932  50.1160  0.00  0.00     0.000 C
ATOM     25  O5  SGN C   2      12.951 108.244  49.8430  0.00  0.00     0.000 O
ATOM     26   O  SGN C   2      14.518 107.621  53.6310  0.00  0.00     0.000 O
ATOM     28  HD  SGN C   2      14.774 107.211  54.3500  0.00  0.00     0.000 HD
BRANCH 21 30
ATOM     28   N  SGN C   2      11.206 107.247  52.3050  0.00  0.00     0.000 N
ATOM     30  HD  SGN C   2      10.765 107.678  52.9140  0.00  0.00     0.000 HD
ATOM     30   S  SGN C   2      10.742 106.186  53.4090  0.00  0.00     0.000 S
ATOM     31   O  SGN C   2      11.316 106.638  54.6310  0.00  0.00     0.000 OA
ATOM     32   O  SGN C   2       9.340 106.016  53.3060  0.00  0.00     0.000 OA
ATOM     33   O  SGN C   2      11.401 104.842  52.9450  0.00  0.00     0.000 OA
ENDBRANCH 21 30
BRANCH 24 34
ATOM     34   C  SGN C   2      15.000 108.866  48.8460  0.00  0.00     0.000 C
ATOM     35   O  SGN C   2      15.542 110.169  48.5700  0.00  0.00     0.000 O
ATOM     36   S  SGN C   2      16.025 110.453  47.0750  0.00  0.00     0.000 S
ATOM     37   O  SGN C   2      14.878 110.126  46.2500  0.00  0.00     0.000 OA
ATOM     38   O  SGN C   2      16.378 111.852  47.0390  0.00  0.00     0.000 OA
ATOM     39   O  SGN C   2      17.147 109.565  46.8960  0.00  0.00     0.000 OA
ENDBRANCH 24 34
BRANCH 20 40
ATOM     40  O4  IDS C   3      11.590 109.538  51.0670  0.00  0.00     0.000 O
BRANCH 40 44
ATOM     41  C1  IDS C   3       9.831 112.491  51.8470  0.00  0.00     0.000 C
ATOM     42  C2  IDS C   3       9.363 111.128  52.3480  0.00  0.00     0.000 C
ATOM     43  C3  IDS C   3       9.257 110.143  51.1870  0.00  0.00     0.000 C
ATOM     44  C4  IDS C   3      10.517 110.137  50.3370  0.00  0.00     0.000 C
ATOM     45  C5  IDS C   3      10.896 111.581  49.9470  0.00  0.00     0.000 C
ATOM     46  O5  IDS C   3      11.056 112.367  51.1290  0.00  0.00     0.000 O
ATOM     47   O  IDS C   3       8.130 110.481  50.3810  0.00  0.00     0.000 O
ATOM     49  HD  IDS C   3       8.491 110.148  51.0940  0.00  0.00     0.000 HD
BRANCH 42 49
ATOM     49   O  IDS C   3      10.326 110.591  53.3380  0.00  0.00     0.000 O
ATOM     50   S  IDS C   3       9.835 110.267  54.8280  0.00  0.00     0.000 S
ATOM     51   O  IDS C   3       9.016 109.087  54.6600  0.00  0.00     0.000 OA
ATOM     52   O  IDS C   3       9.083 111.399  55.3460  0.00  0.00     0.000 OA
ATOM     53   O  IDS C   3      11.035 110.015  55.5970  0.00  0.00     0.000 OA
ENDBRANCH 42 49
BRANCH 45 54
ATOM     54   C  IDS C   3      12.172 111.669  49.1260  0.00  0.00     0.000 C
ATOM     55   O  IDS C   3      13.108 112.301  49.5430  0.00  0.00     0.000 OA
ATOM     56   O  IDS C   3      12.238 111.116  48.0450  0.00  0.00     0.000 OA
ENDBRANCH 45 54
BRANCH 41 57
ATOM     57  O4  SGN C   4       8.766 113.096  51.3050  0.00  0.00     0.000 O
BRANCH 57 61
ATOM     58  C1  SGN C   4       7.792 116.822  49.6640  0.00  0.00     0.000 C
ATOM     59  C2  SGN C   4       8.742 115.933  48.8450  0.00  0.00     0.000 C
ATOM     60  C3  SGN C   4       8.692 114.477  49.3280  0.00  0.00     0.000 C
ATOM     61  C4  SGN C   4       8.961 114.429  50.8230  0.00  0.00     0.000 C
ATOM     62  C5  SGN C   4       8.003 115.356  51.5690  0.00  0.00     0.000 C
ATOM     63  O5  SGN C   4       8.085 116.696  51.0480  0.00  0.00     0.000 O
BRANCH 59 66
ATOM     64   N  SGN C   4       8.379 116.210  47.4510  0.00  0.00     0.000 N
ATOM     66  HD  SGN C   4       8.679 115.839  48.1740  0.00  0.00     0.000 HD
ATOM     66   O  SGN C   4       8.870 116.821  45.1450  0.00  0.00     0.000 OA
ATOM     67   O  SGN C   4      10.025 117.964  46.9890  0.00  0.00     0.000 OA
ATOM     68   S  SGN C   4       9.518 116.605  46.3930  0.00  0.00     0.000 S
ATOM     69   O  SGN C   4      10.561 115.647  46.4800  0.00  0.00     0.000 OA
ENDBRANCH 59 66
BRANCH 62 70
ATOM     70   C  SGN C   4       8.335 115.429  53.0390  0.00  0.00     0.000 C
ATOM     71   S  SGN C   4      10.230 115.906  54.6980  0.00  0.00     0.000 S
ATOM     72   O  SGN C   4       9.323 116.728  55.4750  0.00  0.00     0.000 OA
ATOM     73   O  SGN C   4      10.220 114.512  55.0920  0.00  0.00     0.000 OA
ATOM     74   O  SGN C   4      11.555 116.468  54.5740  0.00  0.00     0.000 OA
ATOM     75   O  SGN C   4       9.655 115.956  53.2190  0.00  0.00     0.000 O
ENDBRANCH 62 70
ENDBRANCH 57 61
ENDBRANCH 41 57
ENDBRANCH 40 44
ENDBRANCH 20 40
ENDBRANCH 19 23
ENDBRANCH 1 19
TORSDOF 14
ENDMDL
MODEL 26
REMARK VINA RESULT:       0.1     99.079    105.498
ROOT
ATOM      1  C1  IDS C   1      17.854  55.546 108.1600  0.00  0.00     0.000 C
ATOM      2  C2  IDS C   1      17.897  57.060 108.2630  0.00  0.00     0.000 C
ATOM      3  C3  IDS C   1      17.815  57.698 106.8810  0.00  0.00     0.000 C
ATOM      4  C4  IDS C   1      16.633  57.144 106.0860  0.00  0.00     0.000 C
ATOM      5  C5  IDS C   1      16.636  55.603 106.1290  0.00  0.00     0.000 C
ATOM      6  O5  IDS C   1      16.670  55.141 107.4750  0.00  0.00     0.000 O
ATOM      7   O  IDS C   1      19.039  57.472 106.1790  0.00  0.00     0.000 O
ATOM      9  HD  IDS C   1      18.487  57.550 105.5170  0.00  0.00     0.000 HD
ATOM      9   O  IDS C   1      15.412  57.633 106.6640  0.00  0.00     0.000 O
ATOM     11  HD  IDS C   1      14.860  57.711 106.0020  0.00  0.00     0.000 HD
ENDROOT
BRANCH 2 11
ATOM     11   O  IDS C   1      16.746  57.552 109.0530  0.00  0.00     0.000 O
ATOM     12   S  IDS C   1      16.979  58.394 110.3910  0.00  0.00     0.000 S
ATOM     13   O  IDS C   1      15.865  59.316 110.3700  0.00  0.00     0.000 OA
ATOM     14   O  IDS C   1      18.260  59.054 110.3240  0.00  0.00     0.000 OA
ATOM     15   O  IDS C   1      16.897  57.420 111.4510  0.00  0.00     0.000 OA
ENDBRANCH 2 11
BRANCH 5 16
ATOM     16   C  IDS C   1      15.425  54.981 105.4570  0.00  0.00     0.000 C
ATOM     17   O  IDS C   1      15.113  53.846 105.7490  0.00  0.00     0.000 OA
ATOM     18   O  IDS C   1      14.794  55.592 104.6390  0.00  0.00     0.000 OA
ENDBRANCH 5 16
BRANCH 1 19
ATOM     19  O4  SGN C   2      18.970  54.886 107.8380  0.00  0.00     0.000 O
BRANCH 19 23
ATOM     20  C1  SGN C   2      21.266  51.477 108.5720  0.00  0.00     0.000 C
ATOM     21  C2  SGN C   2      19.990  51.278 107.7450  0.00  0.00     0.000 C
ATOM     22  C3  SGN C   2      19.513  52.623 107.2020  0.00  0.00     0.000 C
ATOM     23  C4  SGN C   2      19.299  53.596 108.3560  0.00  0.00     0.000 C
ATOM     24  C5  SGN C   2      20.574  53.690 109.1980  0.00  0.00     0.000 C
ATOM     25  O5  SGN C   2      20.973  52.376 109.6290  0.00  0.00     0.000 O
ATOM     26   O  SGN C   2      18.319  52.459 106.4440  0.00  0.00     0.000 O
ATOM     28  HD  SGN C   2      17.638  52.264 105.9460  0.00  0.00     0.000 HD
BRANCH 21 30
ATOM     28   N  SGN C   2      20.607  49.953 107.6070  0.00  0.00     0.000 N
ATOM     30  HD  SGN C   2      20.996  49.762 106.8560  0.00  0.00     0.000 HD
ATOM     30   S  SGN C   2      19.812  48.732 106.9460  0.00  0.00     0.000 S
ATOM     31   O  SGN C   2      19.369  49.213 105.6800  0.00  0.00     0.000 OA
ATOM     32   O  SGN C   2      20.625  47.575 107.0170  0.00  0.00     0.000 OA
ATOM     33   O  SGN C   2      18.600  48.501 107.9110  0.00  0.00     0.000 OA
ENDBRANCH 21 30
BRANCH 24 34
ATOM     34   C  SGN C   2      20.413  54.518 110.4520  0.00  0.00     0.000 C
ATOM     35   O  SGN C   2      21.095  55.772 110.2740  0.00  0.00     0.000 O
ATOM     36   S  SGN C   2      21.462  56.592 111.5940  0.00  0.00     0.000 S
ATOM     37   O  SGN C   2      22.199  55.653 112.4180  0.00  0.00     0.000 OA
ATOM     38   O  SGN C   2      22.257  57.711 111.1490  0.00  0.00     0.000 OA
ATOM     39   O  SGN C   2      20.181  56.967 112.1390  0.00  0.00     0.000 OA
ENDBRANCH 24 34
BRANCH 20 40
ATOM     40  O4  IDS C   3      22.355  51.894 107.9310  0.00  0.00     0.000 O
BRANCH 40 44
ATOM     41  C1  IDS C   3      25.289  52.191 105.9990  0.00  0.00     0.000 C
ATOM     42  C2  IDS C   3      24.474  50.901 106.0190  0.00  0.00     0.000 C
ATOM     43  C3  IDS C   3      24.230  50.450 107.4570  0.00  0.00     0.000 C
ATOM     44  C4  IDS C   3      23.695  51.582 108.3200  0.00  0.00     0.000 C
ATOM     45  C5  IDS C   3      24.588  52.830 108.1610  0.00  0.00     0.000 C
ATOM     46  O5  IDS C   3      24.652  53.198 106.7810  0.00  0.00     0.000 O
ATOM     47   O  IDS C   3      25.446  49.951 108.0090  0.00  0.00     0.000 O
ATOM     49  HD  IDS C   3      24.752  49.884 107.4950  0.00  0.00     0.000 HD
BRANCH 42 49
ATOM     49   O  IDS C   3      23.164  51.116 105.3610  0.00  0.00     0.000 O
ATOM     50   S  IDS C   3      22.777  50.258 104.0650  0.00  0.00     0.000 S
ATOM     51   O  IDS C   3      22.537  48.936 104.5990  0.00  0.00     0.000 OA
ATOM     52   O  IDS C   3      23.881  50.286 103.1200  0.00  0.00     0.000 OA
ATOM     53   O  IDS C   3      21.583  50.872 103.5230  0.00  0.00     0.000 OA
ENDBRANCH 42 49
BRANCH 45 54
ATOM     54   C  IDS C   3      24.099  54.026 108.9620  0.00  0.00     0.000 C
ATOM     55   O  IDS C   3      24.006  53.944 110.1600  0.00  0.00     0.000 OA
ATOM     56   O  IDS C   3      23.789  55.054 108.3920  0.00  0.00     0.000 OA
ENDBRANCH 45 54
BRANCH 41 57
ATOM     57  O4  SGN C   4      26.566  51.851 106.2110  0.00  0.00     0.000 O
BRANCH 57 61
ATOM     58  C1  SGN C   4      30.319  53.706 106.2860  0.00  0.00     0.000 C
ATOM     59  C2  SGN C   4      29.356  54.048 107.4340  0.00  0.00     0.000 C
ATOM     60  C3  SGN C   4      28.215  53.025 107.5240  0.00  0.00     0.000 C
ATOM     61  C4  SGN C   4      27.527  52.910 106.1740  0.00  0.00     0.000 C
ATOM     62  C5  SGN C   4      28.546  52.599 105.0790  0.00  0.00     0.000 C
ATOM     63  O5  SGN C   4      29.597  53.583 105.0690  0.00  0.00     0.000 O
BRANCH 59 66
ATOM     64   N  SGN C   4      30.231  54.210 108.5990  0.00  0.00     0.000 N
ATOM     66  HD  SGN C   4      29.547  54.073 108.0860  0.00  0.00     0.000 HD
ATOM     66   O  SGN C   4      31.088  55.409 110.5390  0.00  0.00     0.000 OA
ATOM     67   O  SGN C   4      30.552  56.636 108.4770  0.00  0.00     0.000 OA
ATOM     68   S  SGN C   4      30.119  55.531 109.5030  0.00  0.00     0.000 S
ATOM     69   O  SGN C   4      28.756  55.726 109.8430  0.00  0.00     0.000 OA
ENDBRANCH 59 66
BRANCH 62 70
ATOM     70   C  SGN C   4      27.911  52.613 103.7110  0.00  0.00     0.000 C
ATOM     71   S  SGN C   4      26.509  54.040 102.1080  0.00  0.00     0.000 S
ATOM     72   O  SGN C   4      27.408  53.684 101.0280  0.00  0.00     0.000 OA
ATOM     73   O  SGN C   4      25.406  53.113 102.2660  0.00  0.00     0.000 OA
ATOM     74   O  SGN C   4      26.106  55.428 102.0910  0.00  0.00     0.000 OA
ATOM     75   O  SGN C   4      27.388  53.915 103.4240  0.00  0.00     0.000 O
ENDBRANCH 62 70
ENDBRANCH 57 61
ENDBRANCH 41 57
ENDBRANCH 40 44
ENDBRANCH 20 40
ENDBRANCH 19 23
ENDBRANCH 1 19
TORSDOF 14
ENDMDL
MODEL 27
REMARK VINA RESULT:       0.1     60.946     65.680
ROOT
ATOM      1  C1  IDS C   1      93.231  76.091  10.7890  0.00  0.00     0.000 C
ATOM      2  C2  IDS C   1      91.820  76.581  10.5160  0.00  0.00     0.000 C
ATOM      3  C3  IDS C   1      91.844  77.903   9.7580  0.00  0.00     0.000 C
ATOM      4  C4  IDS C   1      92.741  77.815   8.5230  0.00  0.00     0.000 C
ATOM      5  C5  IDS C   1      94.112  77.219   8.9000  0.00  0.00     0.000 C
ATOM      6  O5  IDS C   1      93.947  75.969   9.5610  0.00  0.00     0.000 O
ATOM      7   O  IDS C   1      92.292  78.943  10.6280  0.00  0.00     0.000 O
ATOM      9  HD  IDS C   1      92.533  79.262   9.8600  0.00  0.00     0.000 HD
ATOM      9   O  IDS C   1      92.108  76.974   7.5460  0.00  0.00     0.000 O
ATOM     11  HD  IDS C   1      92.349  77.293   6.7780  0.00  0.00     0.000 HD
ENDROOT
BRANCH 2 11
ATOM     11   O  IDS C   1      91.091  75.598   9.6830  0.00  0.00     0.000 O
ATOM     12   S  IDS C   1      89.745  74.921  10.2150  0.00  0.00     0.000 S
ATOM     13   O  IDS C   1      88.975  74.774   8.9990  0.00  0.00     0.000 OA
ATOM     14   O  IDS C   1      89.118  75.794  11.1770  0.00  0.00     0.000 OA
ATOM     15   O  IDS C   1      90.170  73.665  10.7800  0.00  0.00     0.000 OA
ENDBRANCH 2 11
BRANCH 5 16
ATOM     16   C  IDS C   1      95.018  76.994   7.7040  0.00  0.00     0.000 C
ATOM     17   O  IDS C   1      95.930  76.200   7.8020  0.00  0.00     0.000 OA
ATOM     18   O  IDS C   1      94.849  77.599   6.6810  0.00  0.00     0.000 OA
ENDBRANCH 5 16
BRANCH 1 19
ATOM     19  O4  SGN C   2      93.913  76.616  11.8120  0.00  0.00     0.000 O
BRANCH 19 23
ATOM     20  C1  SGN C   2      96.561  75.806  14.9350  0.00  0.00     0.000 C
ATOM     21  C2  SGN C   2      97.156  75.832  13.5230  0.00  0.00     0.000 C
ATOM     22  C3  SGN C   2      96.201  76.551  12.5740  0.00  0.00     0.000 C
ATOM     23  C4  SGN C   2      94.837  75.870  12.6060  0.00  0.00     0.000 C
ATOM     24  C5  SGN C   2      94.329  75.793  14.0490  0.00  0.00     0.000 C
ATOM     25  O5  SGN C   2      95.310  75.142  14.8770  0.00  0.00     0.000 O
ATOM     26   O  SGN C   2      96.731  76.570  11.2530  0.00  0.00     0.000 O
ATOM     28  HD  SGN C   2      97.153  76.598  10.4980  0.00  0.00     0.000 HD
BRANCH 21 30
ATOM     28   N  SGN C   2      98.382  75.737  14.3270  0.00  0.00     0.000 N
ATOM     30  HD  SGN C   2      98.858  76.454  14.4260  0.00  0.00     0.000 HD
ATOM     30   S  SGN C   2      99.804  75.472  13.6440  0.00  0.00     0.000 S
ATOM     31   O  SGN C   2      99.936  76.479  12.6460  0.00  0.00     0.000 OA
ATOM     32   O  SGN C   2     100.778  75.356  14.6650  0.00  0.00     0.000 OA
ATOM     33   O  SGN C   2      99.653  74.055  12.9920  0.00  0.00     0.000 OA
ENDBRANCH 21 30
BRANCH 24 34
ATOM     34   C  SGN C   2      93.051  75.002  14.2000  0.00  0.00     0.000 C
ATOM     35   O  SGN C   2      91.965  75.913  14.4480  0.00  0.00     0.000 O
ATOM     36   S  SGN C   2      90.641  75.302  15.0980  0.00  0.00     0.000 S
ATOM     37   O  SGN C   2      91.098  74.620  16.2930  0.00  0.00     0.000 OA
ATOM     38   O  SGN C   2      89.786  76.432  15.3740  0.00  0.00     0.000 OA
ATOM     39   O  SGN C   2      90.128  74.419  14.0800  0.00  0.00     0.000 OA
ENDBRANCH 24 34
BRANCH 20 40
ATOM     40  O4  IDS C   3      96.410  76.971  15.5610  0.00  0.00     0.000 O
BRANCH 40 44
ATOM     41  C1  IDS C   3      96.837  79.974  17.3560  0.00  0.00     0.000 C
ATOM     42  C2  IDS C   3      98.029  79.119  16.9370  0.00  0.00     0.000 C
ATOM     43  C3  IDS C   3      97.828  77.673  17.3840  0.00  0.00     0.000 C
ATOM     44  C4  IDS C   3      96.461  77.143  16.9790  0.00  0.00     0.000 C
ATOM     45  C5  IDS C   3      95.362  78.132  17.4230  0.00  0.00     0.000 C
ATOM     46  O5  IDS C   3      95.622  79.418  16.8590  0.00  0.00     0.000 O
ATOM     47   O  IDS C   3      97.982  77.589  18.7980  0.00  0.00     0.000 O
ATOM     49  HD  IDS C   3      98.297  77.670  17.9960  0.00  0.00     0.000 HD
BRANCH 42 49
ATOM     49   O  IDS C   3      98.180  79.143  15.4640  0.00  0.00     0.000 O
ATOM     50   S  IDS C   3      99.530  79.711  14.8140  0.00  0.00     0.000 S
ATOM     51   O  IDS C   3     100.503  78.684  15.1150  0.00  0.00     0.000 OA
ATOM     52   O  IDS C   3      99.860  80.988  15.4250  0.00  0.00     0.000 OA
ATOM     53   O  IDS C   3      99.266  79.839  13.3960  0.00  0.00     0.000 OA
ENDBRANCH 42 49
BRANCH 45 54
ATOM     54   C  IDS C   3      93.962  77.696  17.0210  0.00  0.00     0.000 C
ATOM     55   O  IDS C   3      93.525  76.648  17.4230  0.00  0.00     0.000 OA
ATOM     56   O  IDS C   3      93.297  78.397  16.2840  0.00  0.00     0.000 OA
ENDBRANCH 45 54
BRANCH 41 57
ATOM     57  O4  SGN C   4      96.992  80.252  18.6560  0.00  0.00     0.000 O
BRANCH 57 61
ATOM     58  C1  SGN C   4      95.111  82.559  21.6010  0.00  0.00     0.000 C
ATOM     59  C2  SGN C   4      94.354  81.315  21.1090  0.00  0.00     0.000 C
ATOM     60  C3  SGN C   4      95.291  80.354  20.3650  0.00  0.00     0.000 C
ATOM     61  C4  SGN C   4      96.008  81.102  19.2530  0.00  0.00     0.000 C
ATOM     62  C5  SGN C   4      96.712  82.340  19.8080  0.00  0.00     0.000 C
ATOM     63  O5  SGN C   4      95.779  83.181  20.5120  0.00  0.00     0.000 O
BRANCH 59 66
ATOM     64   N  SGN C   4      93.665  80.819  22.3050  0.00  0.00     0.000 N
ATOM     66  HD  SGN C   4      94.042  80.879  21.5280  0.00  0.00     0.000 HD
ATOM     66   O  SGN C   4      91.710  80.062  23.5450  0.00  0.00     0.000 OA
ATOM     67   O  SGN C   4      91.516  81.949  21.9810  0.00  0.00     0.000 OA
ATOM     68   S  SGN C   4      92.091  80.515  22.2510  0.00  0.00     0.000 S
ATOM     69   O  SGN C   4      91.832  79.695  21.1220  0.00  0.00     0.000 OA
ENDBRANCH 59 66
BRANCH 62 70
ATOM     70   C  SGN C   4      97.317  83.173  18.7060  0.00  0.00     0.000 C
ATOM     71   S  SGN C   4      96.786  84.368  16.5010  0.00  0.00     0.000 S
ATOM     72   O  SGN C   4      97.528  85.523  16.9650  0.00  0.00     0.000 OA
ATOM     73   O  SGN C   4      97.607  83.404  15.7950  0.00  0.00     0.000 OA
ATOM     74   O  SGN C   4      95.561  84.705  15.8130  0.00  0.00     0.000 OA
ATOM     75   O  SGN C   4      96.291  83.646  17.8260  0.00  0.00     0.000 O
ENDBRANCH 62 70
ENDBRANCH 57 61
ENDBRANCH 41 57
ENDBRANCH 40 44
ENDBRANCH 20 40
ENDBRANCH 19 23
ENDBRANCH 1 19
TORSDOF 14
ENDMDL
MODEL 28
REMARK VINA RESULT:       0.1    112.627    119.479
ROOT
ATOM      1  C1  IDS C   1      37.208  25.787 104.8780  0.00  0.00     0.000 C
ATOM      2  C2  IDS C   1      36.886  26.609 103.6430  0.00  0.00     0.000 C
ATOM      3  C3  IDS C   1      35.899  27.721 103.9760  0.00  0.00     0.000 C
ATOM      4  C4  IDS C   1      36.371  28.535 105.1810  0.00  0.00     0.000 C
ATOM      5  C5  IDS C   1      36.760  27.596 106.3400  0.00  0.00     0.000 C
ATOM      6  O5  IDS C   1      37.717  26.636 105.9050  0.00  0.00     0.000 O
ATOM      7   O  IDS C   1      34.612  27.156 104.2270  0.00  0.00     0.000 O
ATOM      9  HD  IDS C   1      34.564  27.880 104.7000  0.00  0.00     0.000 HD
ATOM      9   O  IDS C   1      37.514  29.316 104.7970  0.00  0.00     0.000 O
ATOM     11  HD  IDS C   1      37.466  30.040 105.2700  0.00  0.00     0.000 HD
ENDROOT
BRANCH 2 11
ATOM     11   O  IDS C   1      38.116  27.242 103.1160  0.00  0.00     0.000 O
ATOM     12   S  IDS C   1      38.733  26.780 101.7160  0.00  0.00     0.000 S
ATOM     13   O  IDS C   1      39.269  28.018 101.1940  0.00  0.00     0.000 OA
ATOM     14   O  IDS C   1      37.686  26.227 100.8910  0.00  0.00     0.000 OA
ATOM     15   O  IDS C   1      39.748  25.818 102.0660  0.00  0.00     0.000 OA
ENDBRANCH 2 11
BRANCH 5 16
ATOM     16   C  IDS C   1      37.348  28.327 107.5330  0.00  0.00     0.000 C
ATOM     17   O  IDS C   1      37.701  27.683 108.4980  0.00  0.00     0.000 OA
ATOM     18   O  IDS C   1      37.448  29.523 107.5340  0.00  0.00     0.000 OA
ENDBRANCH 5 16
BRANCH 1 19
ATOM     19  O4  SGN C   2      36.347  24.844 105.2720  0.00  0.00     0.000 O
BRANCH 19 23
ATOM     20  C1  SGN C   2      35.943  21.134 107.1430  0.00  0.00     0.000 C
ATOM     21  C2  SGN C   2      36.309  22.319 108.0440  0.00  0.00     0.000 C
ATOM     22  C3  SGN C   2      35.995  23.629 107.3270  0.00  0.00     0.000 C
ATOM     23  C4  SGN C   2      36.736  23.675 105.9950  0.00  0.00     0.000 C
ATOM     24  C5  SGN C   2      36.402  22.428 105.1720  0.00  0.00     0.000 C
ATOM     25  O5  SGN C   2      36.687  21.245 105.9410  0.00  0.00     0.000 O
ATOM     26   O  SGN C   2      36.345  24.741 108.1440  0.00  0.00     0.000 O
ATOM     28  HD  SGN C   2      36.519  25.357 108.7270  0.00  0.00     0.000 HD
BRANCH 21 30
ATOM     28   N  SGN C   2      36.053  21.284 109.0540  0.00  0.00     0.000 N
ATOM     30  HD  SGN C   2      35.307  21.321 109.4920  0.00  0.00     0.000 HD
ATOM     30   S  SGN C   2      36.408  21.524 110.5960  0.00  0.00     0.000 S
ATOM     31   O  SGN C   2      35.755  22.740 110.9480  0.00  0.00     0.000 OA
ATOM     32   O  SGN C   2      36.124  20.336 111.3120  0.00  0.00     0.000 OA
ATOM     33   O  SGN C   2      37.964  21.703 110.6040  0.00  0.00     0.000 OA
ENDBRANCH 21 30
BRANCH 24 34
ATOM     34   C  SGN C   2      37.204  22.310 103.8960  0.00  0.00     0.000 C
ATOM     35   O  SGN C   2      36.359  22.644 102.7810  0.00  0.00     0.000 O
ATOM     36   S  SGN C   2      36.829  22.143 101.3400  0.00  0.00     0.000 S
ATOM     37   O  SGN C   2      37.034  20.716 101.4940  0.00  0.00     0.000 OA
ATOM     38   O  SGN C   2      35.749  22.474 100.4420  0.00  0.00     0.000 OA
ATOM     39   O  SGN C   2      38.041  22.886 101.0920  0.00  0.00     0.000 OA
ENDBRANCH 24 34
BRANCH 20 40
ATOM     40  O4  IDS C   3      34.657  20.961 106.8470  0.00  0.00     0.000 O
BRANCH 40 44
ATOM     41  C1  IDS C   3      31.220  20.175 106.8130  0.00  0.00     0.000 C
ATOM     42  C2  IDS C   3      32.058  20.036 108.0800  0.00  0.00     0.000 C
ATOM     43  C3  IDS C   3      33.307  19.203 107.8020  0.00  0.00     0.000 C
ATOM     44  C4  IDS C   3      34.050  19.696 106.5710  0.00  0.00     0.000 C
ATOM     45  C5  IDS C   3      33.071  19.835 105.3870  0.00  0.00     0.000 C
ATOM     46  O5  IDS C   3      32.004  20.714 105.7510  0.00  0.00     0.000 O
ATOM     47   O  IDS C   3      32.936  17.837 107.6310  0.00  0.00     0.000 O
ATOM     49  HD  IDS C   3      33.081  18.537 108.1190  0.00  0.00     0.000 HD
BRANCH 42 49
ATOM     49   O  IDS C   3      32.478  21.372 108.5630  0.00  0.00     0.000 O
ATOM     50   S  IDS C   3      32.041  21.860 110.0250  0.00  0.00     0.000 S
ATOM     51   O  IDS C   3      32.853  21.048 110.9040  0.00  0.00     0.000 OA
ATOM     52   O  IDS C   3      30.618  21.628 110.2070  0.00  0.00     0.000 OA
ATOM     53   O  IDS C   3      32.375  23.267 110.0910  0.00  0.00     0.000 OA
ENDBRANCH 42 49
BRANCH 45 54
ATOM     54   C  IDS C   3      33.728  20.363 104.1210  0.00  0.00     0.000 C
ATOM     55   O  IDS C   3      33.338  21.391 103.6310  0.00  0.00     0.000 OA
ATOM     56   O  IDS C   3      34.630  19.738 103.6000  0.00  0.00     0.000 OA
ENDBRANCH 45 54
BRANCH 41 57
ATOM     57  O4  SGN C   4      30.542  19.031 106.6640  0.00  0.00     0.000 O
BRANCH 57 61
ATOM     58  C1  SGN C   4      27.598  17.454 104.1380  0.00  0.00     0.000 C
ATOM     59  C2  SGN C   4      28.991  17.673 103.5250  0.00  0.00     0.000 C
ATOM     60  C3  SGN C   4      30.055  17.852 104.6150  0.00  0.00     0.000 C
ATOM     61  C4  SGN C   4      29.632  18.963 105.5610  0.00  0.00     0.000 C
ATOM     62  C5  SGN C   4      28.231  18.695 106.1090  0.00  0.00     0.000 C
ATOM     63  O5  SGN C   4      27.291  18.514 105.0330  0.00  0.00     0.000 O
BRANCH 59 66
ATOM     64   N  SGN C   4      29.146  16.559 102.5840  0.00  0.00     0.000 N
ATOM     66  HD  SGN C   4      29.300  17.215 103.1280  0.00  0.00     0.000 HD
ATOM     66   O  SGN C   4      29.638  15.593 100.4020  0.00  0.00     0.000 OA
ATOM     67   O  SGN C   4      28.349  17.681 100.5570  0.00  0.00     0.000 OA
ATOM     68   S  SGN C   4      29.579  16.851 101.0660  0.00  0.00     0.000 S
ATOM     69   O  SGN C   4      30.725  17.686 101.0810  0.00  0.00     0.000 OA
ENDBRANCH 59 66
BRANCH 62 70
ATOM     70   C  SGN C   4      27.733  19.847 106.9450  0.00  0.00     0.000 C
ATOM     71   S  SGN C   4      27.339  22.380 106.9290  0.00  0.00     0.000 S
ATOM     72   O  SGN C   4      26.035  22.167 107.5250  0.00  0.00     0.000 OA
ATOM     73   O  SGN C   4      28.397  22.539 107.9070  0.00  0.00     0.000 OA
ATOM     74   O  SGN C   4      27.344  23.391 105.8960  0.00  0.00     0.000 OA
ATOM     75   O  SGN C   4      27.652  21.035 106.1470  0.00  0.00     0.000 O
ENDBRANCH 62 70
ENDBRANCH 57 61
ENDBRANCH 41 57
ENDBRANCH 40 44
ENDBRANCH 20 40
ENDBRANCH 19 23
ENDBRANCH 1 19
TORSDOF 14
ENDMDL
MODEL 29
REMARK VINA RESULT:       0.1    117.194    122.744
ROOT
ATOM      1  C1  IDS C   1      25.353  20.447  72.6000  0.00  0.00     0.000 C
ATOM      2  C2  IDS C   1      26.194  21.031  73.7210  0.00  0.00     0.000 C
ATOM      3  C3  IDS C   1      27.474  21.649  73.1720  0.00  0.00     0.000 C
ATOM      4  C4  IDS C   1      27.173  22.617  72.0270  0.00  0.00     0.000 C
ATOM      5  C5  IDS C   1      26.238  21.951  70.9980  0.00  0.00     0.000 C
ATOM      6  O5  IDS C   1      25.065  21.458  71.6360  0.00  0.00     0.000 O
ATOM      7   O  IDS C   1      28.352  20.612  72.7310  0.00  0.00     0.000 O
ATOM      9  HD  IDS C   1      28.608  21.264  72.2230  0.00  0.00     0.000 HD
ATOM      9   O  IDS C   1      26.536  23.788  72.5620  0.00  0.00     0.000 O
ATOM     11  HD  IDS C   1      26.792  24.440  72.0540  0.00  0.00     0.000 HD
ENDROOT
BRANCH 2 11
ATOM     11   O  IDS C   1      25.444  22.099  74.4200  0.00  0.00     0.000 O
ATOM     12   S  IDS C   1      25.131  21.985  75.9820  0.00  0.00     0.000 S
ATOM     13   O  IDS C   1      25.203  23.365  76.4110  0.00  0.00     0.000 OA
ATOM     14   O  IDS C   1      26.124  21.147  76.6100  0.00  0.00     0.000 OA
ATOM     15   O  IDS C   1      23.800  21.433  76.0470  0.00  0.00     0.000 OA
ENDBRANCH 2 11
BRANCH 5 16
ATOM     16   C  IDS C   1      25.801  22.891  69.8890  0.00  0.00     0.000 C
ATOM     17   O  IDS C   1      24.798  22.627  69.2610  0.00  0.00     0.000 OA
ATOM     18   O  IDS C   1      26.443  23.870  69.6240  0.00  0.00     0.000 OA
ENDBRANCH 5 16
BRANCH 1 19
ATOM     19  O4  SGN C   2      25.671  19.245  72.1100  0.00  0.00     0.000 O
BRANCH 19 23
ATOM     20  C1  SGN C   2      24.165  15.625  70.6770  0.00  0.00     0.000 C
ATOM     21  C2  SGN C   2      24.054  16.832  69.7390  0.00  0.00     0.000 C
ATOM     22  C3  SGN C   2      25.007  17.932  70.1980  0.00  0.00     0.000 C
ATOM     23  C4  SGN C   2      24.702  18.304  71.6450  0.00  0.00     0.000 C
ATOM     24  C5  SGN C   2      24.740  17.051  72.5230  0.00  0.00     0.000 C
ATOM     25  O5  SGN C   2      23.848  16.055  71.9910  0.00  0.00     0.000 O
ATOM     26   O  SGN C   2      24.905  19.068  69.3470  0.00  0.00     0.000 O
ATOM     28  HD  SGN C   2      24.833  19.686  68.7440  0.00  0.00     0.000 HD
BRANCH 21 30
ATOM     28   N  SGN C   2      23.636  15.752  68.8360  0.00  0.00     0.000 N
ATOM     30  HD  SGN C   2      24.204  15.477  68.2420  0.00  0.00     0.000 HD
ATOM     30   S  SGN C   2      23.020  16.068  67.3930  0.00  0.00     0.000 S
ATOM     31   O  SGN C   2      23.971  16.915  66.7550  0.00  0.00     0.000 OA
ATOM     32   O  SGN C   2      22.644  14.845  66.7880  0.00  0.00     0.000 OA
ATOM     33   O  SGN C   2      21.699  16.849  67.7070  0.00  0.00     0.000 OA
ENDBRANCH 21 30
BRANCH 24 34
ATOM     34   C  SGN C   2      24.306  17.295  73.9490  0.00  0.00     0.000 C
ATOM     35   O  SGN C   2      25.463  17.260  74.8030  0.00  0.00     0.000 O
ATOM     36   S  SGN C   2      25.207  17.021  76.3610  0.00  0.00     0.000 S
ATOM     37   O  SGN C   2      24.415  15.808  76.4230  0.00  0.00     0.000 OA
ATOM     38   O  SGN C   2      26.516  16.883  76.9530  0.00  0.00     0.000 OA
ATOM     39   O  SGN C   2      24.499  18.204  76.7830  0.00  0.00     0.000 OA
ENDBRANCH 24 34
BRANCH 20 40
ATOM     40  O4  IDS C   3      25.322  14.967  70.6990  0.00  0.00     0.000 O
BRANCH 40 44
ATOM     41  C1  IDS C   3      28.091  12.886  70.0430  0.00  0.00     0.000 C
ATOM     42  C2  IDS C   3      26.961  13.054  69.0310  0.00  0.00     0.000 C
ATOM     43  C3  IDS C   3      25.611  12.792  69.6930  0.00  0.00     0.000 C
ATOM     44  C4  IDS C   3      25.458  13.574  70.9880  0.00  0.00     0.000 C
ATOM     45  C5  IDS C   3      26.691  13.346  71.8880  0.00  0.00     0.000 C
ATOM     46  O5  IDS C   3      27.874  13.720  71.1780  0.00  0.00     0.000 O
ATOM     47   O  IDS C   3      25.472  11.396  69.9480  0.00  0.00     0.000 O
ATOM     49  HD  IDS C   3      25.479  12.083  69.4210  0.00  0.00     0.000 HD
BRANCH 42 49
ATOM     49   O  IDS C   3      26.964  14.433  68.4900  0.00  0.00     0.000 O
ATOM     50   S  IDS C   3      27.172  14.669  66.9190  0.00  0.00     0.000 S
ATOM     51   O  IDS C   3      25.925  14.214  66.3450  0.00  0.00     0.000 OA
ATOM     52   O  IDS C   3      28.313  13.893  66.4610  0.00  0.00     0.000 OA
ATOM     53   O  IDS C   3      27.381  16.092  66.7540  0.00  0.00     0.000 OA
ENDBRANCH 42 49
BRANCH 45 54
ATOM     54   C  IDS C   3      26.637  14.126  73.1920  0.00  0.00     0.000 C
ATOM     55   O  IDS C   3      25.733  13.936  73.9640  0.00  0.00     0.000 OA
ATOM     56   O  IDS C   3      27.495  14.950  73.4420  0.00  0.00     0.000 OA
ENDBRANCH 45 54
BRANCH 41 57
ATOM     57  O4  SGN C   4      28.303  11.571  70.1780  0.00  0.00     0.000 O
BRANCH 57 61
ATOM     58  C1  SGN C   4      30.982   9.029  72.1500  0.00  0.00     0.000 C
ATOM     59  C2  SGN C   4      29.982   9.796  73.0300  0.00  0.00     0.000 C
ATOM     60  C3  SGN C   4      28.820  10.351  72.1950  0.00  0.00     0.000 C
ATOM     61  C4  SGN C   4      29.371  11.179  71.0450  0.00  0.00     0.000 C
ATOM     62  C5  SGN C   4      30.377  10.365  70.2330  0.00  0.00     0.000 C
ATOM     63  O5  SGN C   4      31.423   9.856  71.0830  0.00  0.00     0.000 O
BRANCH 59 66
ATOM     64   N  SGN C   4      29.667   8.860  74.1140  0.00  0.00     0.000 N
ATOM     66  HD  SGN C   4      29.636   9.508  73.5400  0.00  0.00     0.000 HD
ATOM     66   O  SGN C   4      29.427   8.226  76.4540  0.00  0.00     0.000 OA
ATOM     67   O  SGN C   4      31.319   9.630  75.7510  0.00  0.00     0.000 OA
ATOM     68   S  SGN C   4      29.782   9.339  75.6410  0.00  0.00     0.000 S
ATOM     69   O  SGN C   4      29.070  10.559  75.7810  0.00  0.00     0.000 OA
ENDBRANCH 59 66
BRANCH 62 70
ATOM     70   C  SGN C   4      31.038  11.204  69.1690  0.00  0.00     0.000 C
ATOM     71   S  SGN C   4      32.359  13.367  68.7790  0.00  0.00     0.000 S
ATOM     72   O  SGN C   4      33.276  12.636  67.9270  0.00  0.00     0.000 OA
ATOM     73   O  SGN C   4      31.225  13.916  68.0640  0.00  0.00     0.000 OA
ATOM     74   O  SGN C   4      33.012  14.315  69.6520  0.00  0.00     0.000 OA
ATOM     75   O  SGN C   4      31.773  12.275  69.7730  0.00  0.00     0.000 O
ENDBRANCH 62 70
ENDBRANCH 57 61
ENDBRANCH 41 57
ENDBRANCH 40 44
ENDBRANCH 20 40
ENDBRANCH 19 23
ENDBRANCH 1 19
TORSDOF 14
ENDMDL
MODEL 30
REMARK VINA RESULT:       0.1    101.819    106.741
ROOT
ATOM      1  C1  IDS C   1      26.875  45.714 101.9440  0.00  0.00     0.000 C
ATOM      2  C2  IDS C   1      26.742  44.484 102.8240  0.00  0.00     0.000 C
ATOM      3  C3  IDS C   1      25.891  43.419 102.1410  0.00  0.00     0.000 C
ATOM      4  C4  IDS C   1      26.391  43.140 100.7230  0.00  0.00     0.000 C
ATOM      5  C5  IDS C   1      26.579  44.463  99.9530  0.00  0.00     0.000 C
ATOM      6  O5  IDS C   1      27.426  45.346 100.6800  0.00  0.00     0.000 O
ATOM      7   O  IDS C   1      24.527  43.843 102.1160  0.00  0.00     0.000 O
ATOM      9  HD  IDS C   1      24.546  43.324 101.4230  0.00  0.00     0.000 HD
ATOM      9   O  IDS C   1      27.648  42.450 100.7990  0.00  0.00     0.000 O
ATOM     11  HD  IDS C   1      27.667  41.931 100.1060  0.00  0.00     0.000 HD
ENDROOT
BRANCH 2 11
ATOM     11   O  IDS C   1      28.074  43.895 103.0850  0.00  0.00     0.000 O
ATOM     12   S  IDS C   1      28.711  43.940 104.5500  0.00  0.00     0.000 S
ATOM     13   O  IDS C   1      29.437  42.690 104.6070  0.00  0.00     0.000 OA
ATOM     14   O  IDS C   1      27.654  44.022 105.5290  0.00  0.00     0.000 OA
ATOM     15   O  IDS C   1      29.566  45.100 104.5390  0.00  0.00     0.000 OA
ENDBRANCH 2 11
BRANCH 5 16
ATOM     16   C  IDS C   1      27.183  44.273  98.5740  0.00  0.00     0.000 C
ATOM     17   O  IDS C   1      27.388  45.250  97.8860  0.00  0.00     0.000 OA
ATOM     18   O  IDS C   1      27.440  43.176  98.1600  0.00  0.00     0.000 OA
ENDBRANCH 5 16
BRANCH 1 19
ATOM     19  O4  SGN C   2      25.874  46.598 101.9090  0.00  0.00     0.000 O
BRANCH 19 23
ATOM     20  C1  SGN C   2      24.869  50.622 101.4370  0.00  0.00     0.000 C
ATOM     21  C2  SGN C   2      25.332  49.880 100.1780  0.00  0.00     0.000 C
ATOM     22  C3  SGN C   2      25.239  48.373 100.4040  0.00  0.00     0.000 C
ATOM     23  C4  SGN C   2      26.060  47.986 101.6290  0.00  0.00     0.000 C
ATOM     24  C5  SGN C   2      25.616  48.818 102.8350  0.00  0.00     0.000 C
ATOM     25  O5  SGN C   2      25.694  50.219 102.5170  0.00  0.00     0.000 O
ATOM     26   O  SGN C   2      25.680  47.668  99.2500  0.00  0.00     0.000 O
ATOM     28  HD  SGN C   2      25.897  47.318  98.4880  0.00  0.00     0.000 HD
BRANCH 21 30
ATOM     28   N  SGN C   2      24.879  51.147  99.5900  0.00  0.00     0.000 N
ATOM     30  HD  SGN C   2      24.118  51.154  99.1760  0.00  0.00     0.000 HD
ATOM     30   S  SGN C   2      25.165  51.499  98.0550  0.00  0.00     0.000 S
ATOM     31   O  SGN C   2      24.658  50.393  97.3150  0.00  0.00     0.000 OA
ATOM     32   O  SGN C   2      24.684  52.805  97.7960  0.00  0.00     0.000 OA
ATOM     33   O  SGN C   2      26.728  51.560  97.9650  0.00  0.00     0.000 OA
ENDBRANCH 21 30
BRANCH 24 34
ATOM     34   C  SGN C   2      26.473  48.611 104.0620  0.00  0.00     0.000 C
ATOM     35   O  SGN C   2      25.749  47.801 105.0060  0.00  0.00     0.000 O
ATOM     36   S  SGN C   2      26.239  47.846 106.5250  0.00  0.00     0.000 S
ATOM     37   O  SGN C   2      26.245  49.254 106.8690  0.00  0.00     0.000 OA
ATOM     38   O  SGN C   2      25.269  47.078 107.2690  0.00  0.00     0.000 OA
ATOM     39   O  SGN C   2      27.550  47.247 106.4870  0.00  0.00     0.000 OA
ENDBRANCH 24 34
BRANCH 20 40
ATOM     40  O4  IDS C   3      23.592  50.496 101.7910  0.00  0.00     0.000 O
BRANCH 40 44
ATOM     41  C1  IDS C   3      20.091  50.716 102.1370  0.00  0.00     0.000 C
ATOM     42  C2  IDS C   3      20.823  51.398 100.9850  0.00  0.00     0.000 C
ATOM     43  C3  IDS C   3      21.966  52.259 101.5170  0.00  0.00     0.000 C
ATOM     44  C4  IDS C   3      22.842  51.490 102.4940  0.00  0.00     0.000 C
ATOM     45  C5  IDS C   3      21.965  50.817 103.5690  0.00  0.00     0.000 C
ATOM     46  O5  IDS C   3      21.003  49.969 102.9380  0.00  0.00     0.000 O
ATOM     47   O  IDS C   3      21.430  53.416 102.1540  0.00  0.00     0.000 O
ATOM     49  HD  IDS C   3      21.635  52.952 101.4520  0.00  0.00     0.000 HD
BRANCH 42 49
ATOM     49   O  IDS C   3      21.384  50.381 100.0650  0.00  0.00     0.000 O
ATOM     50   S  IDS C   3      20.926  50.360  98.5310  0.00  0.00     0.000 S
ATOM     51   O  IDS C   3      21.567  51.531  97.9750  0.00  0.00     0.000 OA
ATOM     52   O  IDS C   3      19.476  50.430  98.4580  0.00  0.00     0.000 OA
ATOM     53   O  IDS C   3      21.438  49.123  97.9800  0.00  0.00     0.000 OA
ENDBRANCH 42 49
BRANCH 45 54
ATOM     54   C  IDS C   3      22.762  49.991 104.5670  0.00  0.00     0.000 C
ATOM     55   O  IDS C   3      22.542  48.813 104.6770  0.00  0.00     0.000 OA
ATOM     56   O  IDS C   3      23.605  50.526 105.2610  0.00  0.00     0.000 OA
ENDBRANCH 45 54
BRANCH 41 57
ATOM     57  O4  SGN C   4      19.278  51.631 102.6800  0.00  0.00     0.000 O
BRANCH 57 61
ATOM     58  C1  SGN C   4      16.314  51.813 105.6310  0.00  0.00     0.000 C
ATOM     59  C2  SGN C   4      17.758  51.600 106.1140  0.00  0.00     0.000 C
ATOM     60  C3  SGN C   4      18.768  51.959 105.0160  0.00  0.00     0.000 C
ATOM     61  C4  SGN C   4      18.436  51.188 103.7490  0.00  0.00     0.000 C
ATOM     62  C5  SGN C   4      16.981  51.422 103.3450  0.00  0.00     0.000 C
ATOM     63  O5  SGN C   4      16.093  51.089 104.4300  0.00  0.00     0.000 O
BRANCH 59 66
ATOM     64   N  SGN C   4      17.824  52.337 107.3800  0.00  0.00     0.000 N
ATOM     66  HD  SGN C   4      18.028  51.935 106.6410  0.00  0.00     0.000 HD
ATOM     66   O  SGN C   4      18.319  52.561 109.7550  0.00  0.00     0.000 OA
ATOM     67   O  SGN C   4      17.307  50.489 108.9030  0.00  0.00     0.000 OA
ATOM     68   S  SGN C   4      18.383  51.611 108.6970  0.00  0.00     0.000 S
ATOM     69   O  SGN C   4      19.626  51.004 108.3810  0.00  0.00     0.000 OA
ENDBRANCH 59 66
BRANCH 62 70
ATOM     70   C  SGN C   4      16.587  50.565 102.1690  0.00  0.00     0.000 C
ATOM     71   S  SGN C   4      16.526  48.149 101.3130  0.00  0.00     0.000 S
ATOM     72   O  SGN C   4      15.171  48.365 100.8430  0.00  0.00     0.000 OA
ATOM     73   O  SGN C   4      17.535  48.484 100.3290  0.00  0.00     0.000 OA
ATOM     74   O  SGN C   4      16.723  46.859 101.9340  0.00  0.00     0.000 OA
ATOM     75   O  SGN C   4      16.708  49.178 102.5080  0.00  0.00     0.000 O
ENDBRANCH 62 70
ENDBRANCH 57 61
ENDBRANCH 41 57
ENDBRANCH 40 44
ENDBRANCH 20 40
ENDBRANCH 19 23
ENDBRANCH 1 19
TORSDOF 14
ENDMDL
MODEL 31
REMARK VINA RESULT:       0.1     67.126     72.014
ROOT
ATOM      1  C1  IDS C   1      98.769  49.729  41.4080  0.00  0.00     0.000 C
ATOM      2  C2  IDS C   1      98.438  48.315  41.8510  0.00  0.00     0.000 C
ATOM      3  C3  IDS C   1      99.531  47.344  41.4200  0.00  0.00     0.000 C
ATOM      4  C4  IDS C   1     100.912  47.842  41.8470  0.00  0.00     0.000 C
ATOM      5  C5  IDS C   1     101.102  49.314  41.4290  0.00  0.00     0.000 C
ATOM      6  O5  IDS C   1     100.039  50.116  41.9320  0.00  0.00     0.000 O
ATOM      7   O  IDS C   1      99.479  47.168  40.0030  0.00  0.00     0.000 O
ATOM      9  HD  IDS C   1     100.315  47.001  40.1540  0.00  0.00     0.000 HD
ATOM      9   O  IDS C   1     101.026  47.733  43.2740  0.00  0.00     0.000 O
ATOM     11  HD  IDS C   1     101.862  47.567  43.4250  0.00  0.00     0.000 HD
ENDROOT
BRANCH 2 11
ATOM     11   O  IDS C   1      98.338  48.252  43.3270  0.00  0.00     0.000 O
ATOM     12   S  IDS C   1      96.931  47.990  44.0360  0.00  0.00     0.000 S
ATOM     13   O  IDS C   1      97.311  47.210  45.1930  0.00  0.00     0.000 OA
ATOM     14   O  IDS C   1      96.065  47.272  43.1320  0.00  0.00     0.000 OA
ATOM     15   O  IDS C   1      96.441  49.306  44.3670  0.00  0.00     0.000 OA
ENDBRANCH 2 11
BRANCH 5 16
ATOM     16   C  IDS C   1     102.406  49.913  41.9210  0.00  0.00     0.000 C
ATOM     17   O  IDS C   1     102.652  51.072  41.6600  0.00  0.00     0.000 OA
ATOM     18   O  IDS C   1     103.192  49.252  42.5420  0.00  0.00     0.000 OA
ENDBRANCH 5 16
BRANCH 1 19
ATOM     19  O4  SGN C   2      98.526  50.087  40.1440  0.00  0.00     0.000 O
BRANCH 19 23
ATOM     20  C1  SGN C   2      97.482  53.236  37.6110  0.00  0.00     0.000 C
ATOM     21  C2  SGN C   2      98.897  53.272  38.2000  0.00  0.00     0.000 C
ATOM     22  C3  SGN C   2      99.273  51.888  38.7230  0.00  0.00     0.000 C
ATOM     23  C4  SGN C   2      98.240  51.429  39.7460  0.00  0.00     0.000 C
ATOM     24  C5  SGN C   2      96.838  51.495  39.1350  0.00  0.00     0.000 C
ATOM     25  O5  SGN C   2      96.588  52.819  38.6300  0.00  0.00     0.000 O
ATOM     26   O  SGN C   2     100.578  51.906  39.2890  0.00  0.00     0.000 O
ATOM     28  HD  SGN C   2     101.400  51.987  39.5490  0.00  0.00     0.000 HD
BRANCH 21 30
ATOM     28   N  SGN C   2      98.982  54.375  37.2340  0.00  0.00     0.000 N
ATOM     30  HD  SGN C   2      99.410  54.235  36.4940  0.00  0.00     0.000 HD
ATOM     30   S  SGN C   2     100.242  55.361  37.2090  0.00  0.00     0.000 S
ATOM     31   O  SGN C   2     101.381  54.512  37.1020  0.00  0.00     0.000 OA
ATOM     32   O  SGN C   2     100.011  56.361  36.2340  0.00  0.00     0.000 OA
ATOM     33   O  SGN C   2     100.201  56.066  38.6080  0.00  0.00     0.000 OA
ENDBRANCH 21 30
BRANCH 24 34
ATOM     34   C  SGN C   2      95.732  51.200  40.1200  0.00  0.00     0.000 C
ATOM     35   O  SGN C   2      95.220  49.880  39.8660  0.00  0.00     0.000 O
ATOM     36   S  SGN C   2      93.771  49.539  40.4460  0.00  0.00     0.000 S
ATOM     37   O  SGN C   2      92.914  50.592  39.9370  0.00  0.00     0.000 OA
ATOM     38   O  SGN C   2      93.443  48.232  39.9300  0.00  0.00     0.000 OA
ATOM     39   O  SGN C   2      93.952  49.572  41.8760  0.00  0.00     0.000 OA
ENDBRANCH 24 34
BRANCH 20 40
ATOM     40  O4  IDS C   3      97.286  52.491  36.5250  0.00  0.00     0.000 O
BRANCH 40 44
ATOM     41  C1  IDS C   3      97.107  51.158  33.2670  0.00  0.00     0.000 C
ATOM     42  C2  IDS C   3      97.861  52.453  33.5590  0.00  0.00     0.000 C
ATOM     43  C3  IDS C   3      96.967  53.426  34.3230  0.00  0.00     0.000 C
ATOM     44  C4  IDS C   3      96.306  52.763  35.5210  0.00  0.00     0.000 C
ATOM     45  C5  IDS C   3      95.629  51.446  35.0850  0.00  0.00     0.000 C
ATOM     46  O5  IDS C   3      96.598  50.593  34.4720  0.00  0.00     0.000 O
ATOM     47   O  IDS C   3      95.971  53.944  33.4430  0.00  0.00     0.000 O
ATOM     49  HD  IDS C   3      96.782  53.900  33.7430  0.00  0.00     0.000 HD
BRANCH 42 49
ATOM     49   O  IDS C   3      99.061  52.169  34.3790  0.00  0.00     0.000 O
ATOM     50   S  IDS C   3     100.513  52.547  33.8170  0.00  0.00     0.000 S
ATOM     51   O  IDS C   3     100.535  53.991  33.8930  0.00  0.00     0.000 OA
ATOM     52   O  IDS C   3     100.646  52.059  32.4540  0.00  0.00     0.000 OA
ATOM     53   O  IDS C   3     101.462  51.922  34.7130  0.00  0.00     0.000 OA
ENDBRANCH 42 49
BRANCH 45 54
ATOM     54   C  IDS C   3      94.975  50.696  36.2340  0.00  0.00     0.000 C
ATOM     55   O  IDS C   3      95.339  49.580  36.5020  0.00  0.00     0.000 OA
ATOM     56   O  IDS C   3      94.077  51.217  36.8660  0.00  0.00     0.000 OA
ENDBRANCH 45 54
BRANCH 41 57
ATOM     57  O4  SGN C   4      96.308  51.398  32.2200  0.00  0.00     0.000 O
BRANCH 57 61
ATOM     58  C1  SGN C   4      93.709  49.265  29.7240  0.00  0.00     0.000 C
ATOM     59  C2  SGN C   4      93.254  49.478  31.1770  0.00  0.00     0.000 C
ATOM     60  C3  SGN C   4      94.063  50.592  31.8550  0.00  0.00     0.000 C
ATOM     61  C4  SGN C   4      95.547  50.291  31.7260  0.00  0.00     0.000 C
ATOM     62  C5  SGN C   4      95.923  50.062  30.2630  0.00  0.00     0.000 C
ATOM     63  O5  SGN C   4      95.108  49.023  29.6860  0.00  0.00     0.000 O
BRANCH 59 66
ATOM     64   N  SGN C   4      91.800  49.646  31.0750  0.00  0.00     0.000 N
ATOM     66  HD  SGN C   4      92.623  49.668  31.3460  0.00  0.00     0.000 HD
ATOM     66   O  SGN C   4      89.494  49.137  31.6740  0.00  0.00     0.000 OA
ATOM     67   O  SGN C   4      91.138  47.321  31.4700  0.00  0.00     0.000 OA
ATOM     68   S  SGN C   4      90.829  48.764  31.9990  0.00  0.00     0.000 S
ATOM     69   O  SGN C   4      91.273  48.868  33.3430  0.00  0.00     0.000 OA
ENDBRANCH 59 66
BRANCH 62 70
ATOM     70   C  SGN C   4      97.361  49.630  30.1200  0.00  0.00     0.000 C
ATOM     71   S  SGN C   4      99.079  47.905  30.9220  0.00  0.00     0.000 S
ATOM     72   O  SGN C   4      99.516  47.725  29.5510  0.00  0.00     0.000 OA
ATOM     73   O  SGN C   4      99.792  48.956  31.6180  0.00  0.00     0.000 OA
ATOM     74   O  SGN C   4      98.989  46.670  31.6670  0.00  0.00     0.000 OA
ATOM     75   O  SGN C   4      97.571  48.390  30.8060  0.00  0.00     0.000 O
ENDBRANCH 62 70
ENDBRANCH 57 61
ENDBRANCH 41 57
ENDBRANCH 40 44
ENDBRANCH 20 40
ENDBRANCH 19 23
ENDBRANCH 1 19
TORSDOF 14
ENDMDL
MODEL 32
REMARK VINA RESULT:       0.1    105.299    109.741
ROOT
ATOM      1  C1  IDS C   1      28.544  40.527 108.5240  0.00  0.00     0.000 C
ATOM      2  C2  IDS C   1      28.483  41.608 107.4590  0.00  0.00     0.000 C
ATOM      3  C3  IDS C   1      29.851  41.818 106.8230  0.00  0.00     0.000 C
ATOM      4  C4  IDS C   1      30.452  40.493 106.3550  0.00  0.00     0.000 C
ATOM      5  C5  IDS C   1      30.377  39.445 107.4830  0.00  0.00     0.000 C
ATOM      6  O5  IDS C   1      29.040  39.316 107.9550  0.00  0.00     0.000 O
ATOM      7   O  IDS C   1      30.719  42.457 107.7610  0.00  0.00     0.000 O
ATOM      9  HD  IDS C   1      31.295  42.034 107.2730  0.00  0.00     0.000 HD
ATOM      9   O  IDS C   1      29.714  40.022 105.2170  0.00  0.00     0.000 O
ATOM     11  HD  IDS C   1      30.290  39.598 104.7290  0.00  0.00     0.000 HD
ENDROOT
BRANCH 2 11
ATOM     11   O  IDS C   1      27.543  41.214 106.3850  0.00  0.00     0.000 O
ATOM     12   S  IDS C   1      26.166  41.998 106.1810  0.00  0.00     0.000 S
ATOM     13   O  IDS C   1      25.998  41.953 104.7450  0.00  0.00     0.000 OA
ATOM     14   O  IDS C   1      26.301  43.342 106.6900  0.00  0.00     0.000 OA
ATOM     15   O  IDS C   1      25.192  41.214 106.8980  0.00  0.00     0.000 OA
ENDBRANCH 2 11
BRANCH 5 16
ATOM     16   C  IDS C   1      30.850  38.068 107.0550  0.00  0.00     0.000 C
ATOM     17   O  IDS C   1      30.820  37.162 107.8610  0.00  0.00     0.000 OA
ATOM     18   O  IDS C   1      31.263  37.877 105.9440  0.00  0.00     0.000 OA
ENDBRANCH 5 16
BRANCH 1 19
ATOM     19  O4  SGN C   2      29.011  40.837 109.7370  0.00  0.00     0.000 O
BRANCH 19 23
ATOM     20  C1  SGN C   2      28.769  40.007 113.8200  0.00  0.00     0.000 C
ATOM     21  C2  SGN C   2      29.443  38.944 112.9450  0.00  0.00     0.000 C
ATOM     22  C3  SGN C   2      29.843  39.558 111.6050  0.00  0.00     0.000 C
ATOM     23  C4  SGN C   2      28.615  40.159 110.9300  0.00  0.00     0.000 C
ATOM     24  C5  SGN C   2      27.931  41.146 111.8790  0.00  0.00     0.000 C
ATOM     25  O5  SGN C   2      27.632  40.496 113.1280  0.00  0.00     0.000 O
ATOM     26   O  SGN C   2      30.457  38.581 110.7730  0.00  0.00     0.000 O
ATOM     28  HD  SGN C   2      30.879  37.947 110.3590  0.00  0.00     0.000 HD
BRANCH 21 30
ATOM     28   N  SGN C   2      29.736  38.413 114.2830  0.00  0.00     0.000 N
ATOM     30  HD  SGN C   2      30.539  38.513 114.5920  0.00  0.00     0.000 HD
ATOM     30   S  SGN C   2      30.365  36.955 114.4760  0.00  0.00     0.000 S
ATOM     31   O  SGN C   2      31.534  36.938 113.6640  0.00  0.00     0.000 OA
ATOM     32   O  SGN C   2      30.464  36.689 115.8640  0.00  0.00     0.000 OA
ATOM     33   O  SGN C   2      29.273  35.990 113.9020  0.00  0.00     0.000 OA
ENDBRANCH 21 30
BRANCH 24 34
ATOM     34   C  SGN C   2      26.621  41.684 111.3540  0.00  0.00     0.000 C
ATOM     35   O  SGN C   2      26.815  43.039 110.9120  0.00  0.00     0.000 O
ATOM     36   S  SGN C   2      25.511  43.948 110.7680  0.00  0.00     0.000 S
ATOM     37   O  SGN C   2      24.853  43.857 112.0560  0.00  0.00     0.000 OA
ATOM     38   O  SGN C   2      25.993  45.274 110.4610  0.00  0.00     0.000 OA
ATOM     39   O  SGN C   2      24.775  43.333 109.6900  0.00  0.00     0.000 OA
ENDBRANCH 24 34
BRANCH 20 40
ATOM     40  O4  IDS C   3      29.512  41.035 114.2230  0.00  0.00     0.000 O
BRANCH 40 44
ATOM     41  C1  IDS C   3      31.758  43.218 115.8400  0.00  0.00     0.000 C
ATOM     42  C2  IDS C   3      31.726  41.726 116.1590  0.00  0.00     0.000 C
ATOM     43  C3  IDS C   3      30.303  41.284 116.4900  0.00  0.00     0.000 C
ATOM     44  C4  IDS C   3      29.309  41.756 115.4410  0.00  0.00     0.000 C
ATOM     45  C5  IDS C   3      29.490  43.267 115.1870  0.00  0.00     0.000 C
ATOM     46  O5  IDS C   3      30.839  43.526 114.7940  0.00  0.00     0.000 O
ATOM     47   O  IDS C   3      29.936  41.792 117.7700  0.00  0.00     0.000 O
ATOM     49  HD  IDS C   3      30.366  41.243 117.2570  0.00  0.00     0.000 HD
BRANCH 42 49
ATOM     49   O  IDS C   3      32.206  40.946 114.9940  0.00  0.00     0.000 O
ATOM     50   S  IDS C   3      33.491  40.001 115.1480  0.00  0.00     0.000 S
ATOM     51   O  IDS C   3      33.004  38.905 115.9570  0.00  0.00     0.000 OA
ATOM     52   O  IDS C   3      34.561  40.741 115.7960  0.00  0.00     0.000 OA
ATOM     53   O  IDS C   3      33.848  39.594 113.8050  0.00  0.00     0.000 OA
ENDBRANCH 42 49
BRANCH 45 54
ATOM     54   C  IDS C   3      28.557  43.814 114.1180  0.00  0.00     0.000 C
ATOM     55   O  IDS C   3      29.017  44.325 113.1290  0.00  0.00     0.000 OA
ATOM     56   O  IDS C   3      27.353  43.751 114.2730  0.00  0.00     0.000 OA
ENDBRANCH 45 54
BRANCH 41 57
ATOM     57  O4  SGN C   4      31.724  43.870 117.0080  0.00  0.00     0.000 O
BRANCH 57 61
ATOM     58  C1  SGN C   4      31.987  47.812 118.3940  0.00  0.00     0.000 C
ATOM     59  C2  SGN C   4      30.713  47.434 117.6210  0.00  0.00     0.000 C
ATOM     60  C3  SGN C   4      30.549  45.911 117.5330  0.00  0.00     0.000 C
ATOM     61  C4  SGN C   4      31.811  45.297 116.9510  0.00  0.00     0.000 C
ATOM     62  C5  SGN C   4      33.038  45.737 117.7490  0.00  0.00     0.000 C
ATOM     63  O5  SGN C   4      33.114  47.174 117.8100  0.00  0.00     0.000 O
BRANCH 59 66
ATOM     64   N  SGN C   4      29.653  48.206 118.2790  0.00  0.00     0.000 N
ATOM     66  HD  SGN C   4      30.088  47.611 117.8230  0.00  0.00     0.000 HD
ATOM     66   O  SGN C   4      27.761  49.739 118.3040  0.00  0.00     0.000 OA
ATOM     67   O  SGN C   4      29.665  50.165 116.8090  0.00  0.00     0.000 OA
ATOM     68   S  SGN C   4      28.664  49.113 117.4000  0.00  0.00     0.000 S
ATOM     69   O  SGN C   4      28.151  48.320 116.3410  0.00  0.00     0.000 OA
ENDBRANCH 59 66
BRANCH 62 70
ATOM     70   C  SGN C   4      34.316  45.251 117.1130  0.00  0.00     0.000 C
ATOM     71   S  SGN C   4      35.643  45.226 114.9200  0.00  0.00     0.000 S
ATOM     72   O  SGN C   4      36.844  45.563 115.6600  0.00  0.00     0.000 OA
ATOM     73   O  SGN C   4      35.416  43.799 114.8130  0.00  0.00     0.000 OA
ATOM     74   O  SGN C   4      35.520  45.931 113.6650  0.00  0.00     0.000 OA
ATOM     75   O  SGN C   4      34.452  45.802 115.7980  0.00  0.00     0.000 O
ENDBRANCH 62 70
ENDBRANCH 57 61
ENDBRANCH 41 57
ENDBRANCH 40 44
ENDBRANCH 20 40
ENDBRANCH 19 23
ENDBRANCH 1 19
TORSDOF 14
ENDMDL
MODEL 33
REMARK VINA RESULT:       0.1     43.837     48.333
ROOT
ATOM      1  C1  IDS C   1     101.166  76.908  34.2150  0.00  0.00     0.000 C
ATOM      2  C2  IDS C   1      99.743  77.127  33.7340  0.00  0.00     0.000 C
ATOM      3  C3  IDS C   1      99.690  77.196  32.2130  0.00  0.00     0.000 C
ATOM      4  C4  IDS C   1     100.401  75.999  31.5810  0.00  0.00     0.000 C
ATOM      5  C5  IDS C   1     101.797  75.816  32.2090  0.00  0.00     0.000 C
ATOM      6  O5  IDS C   1     101.698  75.722  33.6260  0.00  0.00     0.000 O
ATOM      7   O  IDS C   1     100.281  78.419  31.7710  0.00  0.00     0.000 O
ATOM      9  HD  IDS C   1     100.418  77.916  31.0800  0.00  0.00     0.000 HD
ATOM      9   O  IDS C   1      99.617  74.817  31.8080  0.00  0.00     0.000 O
ATOM     11  HD  IDS C   1      99.755  74.315  31.1170  0.00  0.00     0.000 HD
ENDROOT
BRANCH 2 11
ATOM     11   O  IDS C   1      98.881  76.003  34.1640  0.00  0.00     0.000 O
ATOM     12   S  IDS C   1      97.579  76.269  35.0510  0.00  0.00     0.000 S
ATOM     13   O  IDS C   1      96.666  75.256  34.5680  0.00  0.00     0.000 OA
ATOM     14   O  IDS C   1      97.106  77.612  34.8160  0.00  0.00     0.000 OA
ATOM     15   O  IDS C   1      98.014  76.050  36.4080  0.00  0.00     0.000 OA
ENDBRANCH 2 11
BRANCH 5 16
ATOM     16   C  IDS C   1     102.520  74.576  31.7130  0.00  0.00     0.000 C
ATOM     17   O  IDS C   1     103.434  74.129  32.3730  0.00  0.00     0.000 OA
ATOM     18   O  IDS C   1     102.207  74.054  30.6790  0.00  0.00     0.000 OA
ENDBRANCH 5 16
BRANCH 1 19
ATOM     19  O4  SGN C   2     101.998  77.952  34.2770  0.00  0.00     0.000 O
BRANCH 19 23
ATOM     20  C1  SGN C   2     105.000  79.813  36.5010  0.00  0.00     0.000 C
ATOM     21  C2  SGN C   2     105.400  78.545  35.7380  0.00  0.00     0.000 C
ATOM     22  C3  SGN C   2     104.362  78.243  34.6600  0.00  0.00     0.000 C
ATOM     23  C4  SGN C   2     102.983  78.114  35.2980  0.00  0.00     0.000 C
ATOM     24  C5  SGN C   2     102.671  79.369  36.1190  0.00  0.00     0.000 C
ATOM     25  O5  SGN C   2     103.721  79.600  37.0750  0.00  0.00     0.000 O
ATOM     26   O  SGN C   2     104.709  77.059  33.9520  0.00  0.00     0.000 O
ATOM     28  HD  SGN C   2     105.026  76.374  33.5280  0.00  0.00     0.000 HD
BRANCH 21 30
ATOM     28   N  SGN C   2     106.787  78.989  35.5480  0.00  0.00     0.000 N
ATOM     30  HD  SGN C   2     107.208  78.715  34.8430  0.00  0.00     0.000 HD
ATOM     30   S  SGN C   2     108.019  78.092  36.0360  0.00  0.00     0.000 S
ATOM     31   O  SGN C   2     107.815  76.816  35.4380  0.00  0.00     0.000 OA
ATOM     32   O  SGN C   2     109.218  78.804  35.7920  0.00  0.00     0.000 OA
ATOM     33   O  SGN C   2     107.841  78.014  37.5910  0.00  0.00     0.000 OA
ENDBRANCH 21 30
BRANCH 24 34
ATOM     34   C  SGN C   2     101.387  79.273  36.9100  0.00  0.00     0.000 C
ATOM     35   O  SGN C   2     100.382  80.079  36.2690  0.00  0.00     0.000 O
ATOM     36   S  SGN C   2      99.124  80.506  37.1540  0.00  0.00     0.000 S
ATOM     37   O  SGN C   2      99.695  81.134  38.3290  0.00  0.00     0.000 OA
ATOM     38   O  SGN C   2      98.361  81.414  36.3310  0.00  0.00     0.000 OA
ATOM     39   O  SGN C   2      98.449  79.260  37.4250  0.00  0.00     0.000 OA
ENDBRANCH 24 34
BRANCH 20 40
ATOM     40  O4  IDS C   3     104.992  80.961  35.8270  0.00  0.00     0.000 O
BRANCH 40 44
ATOM     41  C1  IDS C   3     105.392  84.005  34.0950  0.00  0.00     0.000 C
ATOM     42  C2  IDS C   3     106.534  83.000  34.2170  0.00  0.00     0.000 C
ATOM     43  C3  IDS C   3     106.746  82.612  35.6780  0.00  0.00     0.000 C
ATOM     44  C4  IDS C   3     105.441  82.213  36.3500  0.00  0.00     0.000 C
ATOM     45  C5  IDS C   3     104.370  83.296  36.1010  0.00  0.00     0.000 C
ATOM     46  O5  IDS C   3     104.206  83.490  34.6950  0.00  0.00     0.000 O
ATOM     47   O  IDS C   3     107.337  83.705  36.3770  0.00  0.00     0.000 O
ATOM     49  HD  IDS C   3     107.371  83.037  35.8260  0.00  0.00     0.000 HD
BRANCH 42 49
ATOM     49   O  IDS C   3     106.221  81.776  33.4430  0.00  0.00     0.000 O
ATOM     50   S  IDS C   3     107.295  81.199  32.4030  0.00  0.00     0.000 S
ATOM     51   O  IDS C   3     108.328  80.657  33.2570  0.00  0.00     0.000 OA
ATOM     52   O  IDS C   3     107.779  82.279  31.5590  0.00  0.00     0.000 OA
ATOM     53   O  IDS C   3     106.603  80.182  31.6400  0.00  0.00     0.000 OA
ENDBRANCH 42 49
BRANCH 45 54
ATOM     54   C  IDS C   3     103.018  82.955  36.7080  0.00  0.00     0.000 C
ATOM     55   O  IDS C   3     102.035  82.957  36.0130  0.00  0.00     0.000 OA
ATOM     56   O  IDS C   3     102.931  82.699  37.8930  0.00  0.00     0.000 OA
ENDBRANCH 45 54
BRANCH 41 57
ATOM     57  O4  SGN C   4     105.884  85.200  34.4420  0.00  0.00     0.000 O
BRANCH 57 61
ATOM     58  C1  SGN C   4     104.770  89.225  34.1410  0.00  0.00     0.000 C
ATOM     59  C2  SGN C   4     103.738  88.266  34.7560  0.00  0.00     0.000 C
ATOM     60  C3  SGN C   4     104.394  86.947  35.1850  0.00  0.00     0.000 C
ATOM     61  C4  SGN C   4     105.147  86.348  34.0090  0.00  0.00     0.000 C
ATOM     62  C5  SGN C   4     106.132  87.363  33.4310  0.00  0.00     0.000 C
ATOM     63  O5  SGN C   4     105.453  88.582  33.0740  0.00  0.00     0.000 O
BRANCH 59 66
ATOM     64   N  SGN C   4     103.069  89.067  35.7870  0.00  0.00     0.000 N
ATOM     66  HD  SGN C   4     103.380  88.410  35.3160  0.00  0.00     0.000 HD
ATOM     66   O  SGN C   4     101.117  90.002  36.9040  0.00  0.00     0.000 OA
ATOM     67   O  SGN C   4     101.185  89.881  34.4500  0.00  0.00     0.000 OA
ATOM     68   S  SGN C   4     101.468  89.158  35.8120  0.00  0.00     0.000 S
ATOM     69   O  SGN C   4     100.944  87.841  35.7540  0.00  0.00     0.000 OA
ENDBRANCH 59 66
BRANCH 62 70
ATOM     70   C  SGN C   4     106.795  86.842  32.1810  0.00  0.00     0.000 C
ATOM     71   S  SGN C   4     106.420  86.402  29.6830  0.00  0.00     0.000 S
ATOM     72   O  SGN C   4     107.711  86.998  29.3990  0.00  0.00     0.000 OA
ATOM     73   O  SGN C   4     106.488  84.977  29.9360  0.00  0.00     0.000 OA
ATOM     74   O  SGN C   4     105.391  86.779  28.7410  0.00  0.00     0.000 OA
ATOM     75   O  SGN C   4     105.955  87.075  31.0440  0.00  0.00     0.000 O
ENDBRANCH 62 70
ENDBRANCH 57 61
ENDBRANCH 41 57
ENDBRANCH 40 44
ENDBRANCH 20 40
ENDBRANCH 19 23
ENDBRANCH 1 19
TORSDOF 14
ENDMDL
MODEL 34
REMARK VINA RESULT:       0.1    104.513    108.860
ROOT
ATOM      1  C1  IDS C   1      27.774  41.492 107.3690  0.00  0.00     0.000 C
ATOM      2  C2  IDS C   1      27.937  42.495 106.2410  0.00  0.00     0.000 C
ATOM      3  C3  IDS C   1      29.329  42.399 105.6280  0.00  0.00     0.000 C
ATOM      4  C4  IDS C   1      29.668  40.956 105.2550  0.00  0.00     0.000 C
ATOM      5  C5  IDS C   1      29.377  40.015 106.4410  0.00  0.00     0.000 C
ATOM      6  O5  IDS C   1      28.034  40.175 106.8860  0.00  0.00     0.000 O
ATOM      7   O  IDS C   1      30.291  42.917 106.5480  0.00  0.00     0.000 O
ATOM      9  HD  IDS C   1      30.781  42.360 106.1010  0.00  0.00     0.000 HD
ATOM      9   O  IDS C   1      28.868  40.564 104.1290  0.00  0.00     0.000 O
ATOM     11  HD  IDS C   1      29.358  40.008 103.6810  0.00  0.00     0.000 HD
ENDROOT
BRANCH 2 11
ATOM     11   O  IDS C   1      26.954  42.222 105.1690  0.00  0.00     0.000 O
ATOM     12   S  IDS C   1      25.886  43.332 104.7420  0.00  0.00     0.000 S
ATOM     13   O  IDS C   1      25.753  43.099 103.3210  0.00  0.00     0.000 OA
ATOM     14   O  IDS C   1      26.407  44.641 105.0520  0.00  0.00     0.000 OA
ATOM     15   O  IDS C   1      24.699  43.001 105.4910  0.00  0.00     0.000 OA
ENDBRANCH 2 11
BRANCH 5 16
ATOM     16   C  IDS C   1      29.581  38.548 106.1080  0.00  0.00     0.000 C
ATOM     17   O  IDS C   1      29.033  37.711 106.7930  0.00  0.00     0.000 OA
ATOM     18   O  IDS C   1      30.284  38.217 105.1930  0.00  0.00     0.000 OA
ENDBRANCH 5 16
BRANCH 1 19
ATOM     19  O4  SGN C   2      28.276  41.783 108.5730  0.00  0.00     0.000 O
BRANCH 19 23
ATOM     20  C1  SGN C   2      27.648  41.547 112.6930  0.00  0.00     0.000 C
ATOM     21  C2  SGN C   2      28.052  40.247 111.9870  0.00  0.00     0.000 C
ATOM     22  C3  SGN C   2      28.657  40.568 110.6220  0.00  0.00     0.000 C
ATOM     23  C4  SGN C   2      27.664  41.381 109.7990  0.00  0.00     0.000 C
ATOM     24  C5  SGN C   2      27.227  42.620 110.5860  0.00  0.00     0.000 C
ATOM     25  O5  SGN C   2      26.713  42.226 111.8710  0.00  0.00     0.000 O
ATOM     26   O  SGN C   2      29.023  39.372 109.9450  0.00  0.00     0.000 O
ATOM     28  HD  SGN C   2      29.279  38.605 109.6330  0.00  0.00     0.000 HD
BRANCH 21 30
ATOM     28   N  SGN C   2      28.134  39.825 113.3910  0.00  0.00     0.000 N
ATOM     30  HD  SGN C   2      28.919  39.751 113.7480  0.00  0.00     0.000 HD
ATOM     30   S  SGN C   2      28.345  38.288 113.7840  0.00  0.00     0.000 S
ATOM     31   O  SGN C   2      29.504  37.873 113.0680  0.00  0.00     0.000 OA
ATOM     32   O  SGN C   2      28.308  38.176 115.1950  0.00  0.00     0.000 OA
ATOM     33   O  SGN C   2      27.063  37.575 113.2340  0.00  0.00     0.000 OA
ENDBRANCH 21 30
BRANCH 24 34
ATOM     34   C  SGN C   2      26.131  43.411 109.9130  0.00  0.00     0.000 C
ATOM     35   O  SGN C   2      26.690  44.626 109.3820  0.00  0.00     0.000 O
ATOM     36   S  SGN C   2      25.671  45.811 109.0580  0.00  0.00     0.000 S
ATOM     37   O  SGN C   2      24.935  46.013 110.2900  0.00  0.00     0.000 OA
ATOM     38   O  SGN C   2      26.491  46.939 108.6880  0.00  0.00     0.000 OA
ATOM     39   O  SGN C   2      24.869  45.295 107.9750  0.00  0.00     0.000 OA
ENDBRANCH 24 34
BRANCH 20 40
ATOM     40  O4  IDS C   3      28.621  42.388 113.0370  0.00  0.00     0.000 O
BRANCH 40 44
ATOM     41  C1  IDS C   3      31.298  44.081 114.5830  0.00  0.00     0.000 C
ATOM     42  C2  IDS C   3      30.849  42.701 115.0540  0.00  0.00     0.000 C
ATOM     43  C3  IDS C   3      29.345  42.695 115.3200  0.00  0.00     0.000 C
ATOM     44  C4  IDS C   3      28.565  43.280 114.1530  0.00  0.00     0.000 C
ATOM     45  C5  IDS C   3      29.161  44.647 113.7560  0.00  0.00     0.000 C
ATOM     46  O5  IDS C   3      30.547  44.490 113.4440  0.00  0.00     0.000 O
ATOM     47   O  IDS C   3      29.071  43.434 116.5070  0.00  0.00     0.000 O
ATOM     49  HD  IDS C   3      29.359  42.732 116.0890  0.00  0.00     0.000 HD
BRANCH 42 49
ATOM     49   O  IDS C   3      31.152  41.686 114.0190  0.00  0.00     0.000 O
ATOM     50   S  IDS C   3      32.133  40.468 114.3660  0.00  0.00     0.000 S
ATOM     51   O  IDS C   3      31.341  39.644 115.2530  0.00  0.00     0.000 OA
ATOM     52   O  IDS C   3      33.333  40.981 115.0050  0.00  0.00     0.000 OA
ATOM     53   O  IDS C   3      32.424  39.820 113.1050  0.00  0.00     0.000 OA
ENDBRANCH 42 49
BRANCH 45 54
ATOM     54   C  IDS C   3      28.461  45.286 112.5670  0.00  0.00     0.000 C
ATOM     55   O  IDS C   3      29.087  45.532 111.5680  0.00  0.00     0.000 OA
ATOM     56   O  IDS C   3      27.280  45.563 112.6340  0.00  0.00     0.000 OA
ENDBRANCH 45 54
BRANCH 41 57
ATOM     57  O4  SGN C   4      31.388  44.856 115.6710  0.00  0.00     0.000 O
BRANCH 57 61
ATOM     58  C1  SGN C   4      32.641  48.730 116.6470  0.00  0.00     0.000 C
ATOM     59  C2  SGN C   4      31.346  48.608 115.8270  0.00  0.00     0.000 C
ATOM     60  C3  SGN C   4      30.783  47.182 115.8890  0.00  0.00     0.000 C
ATOM     61  C4  SGN C   4      31.858  46.193 115.4700  0.00  0.00     0.000 C
ATOM     62  C5  SGN C   4      33.123  46.391 116.3040  0.00  0.00     0.000 C
ATOM     63  O5  SGN C   4      33.579  47.754 116.2190  0.00  0.00     0.000 O
BRANCH 59 66
ATOM     64   N  SGN C   4      30.505  49.704 116.3200  0.00  0.00     0.000 N
ATOM     66  HD  SGN C   4      30.783  48.966 115.9630  0.00  0.00     0.000 HD
ATOM     66   O  SGN C   4      29.094  51.671 116.0440  0.00  0.00     0.000 OA
ATOM     67   O  SGN C   4      31.105  51.399 114.6560  0.00  0.00     0.000 OA
ATOM     68   S  SGN C   4      29.834  50.725 115.2800  0.00  0.00     0.000 S
ATOM     69   O  SGN C   4      29.173  49.971 114.2760  0.00  0.00     0.000 OA
ENDBRANCH 59 66
BRANCH 62 70
ATOM     70   C  SGN C   4      34.249  45.514 115.8190  0.00  0.00     0.000 C
ATOM     71   S  SGN C   4      35.619  44.883 113.7460  0.00  0.00     0.000 S
ATOM     72   O  SGN C   4      36.831  44.975 114.5360  0.00  0.00     0.000 OA
ATOM     73   O  SGN C   4      35.020  43.564 113.7660  0.00  0.00     0.000 OA
ATOM     74   O  SGN C   4      35.750  45.443 112.4210  0.00  0.00     0.000 OA
ATOM     75   O  SGN C   4      34.589  45.851 114.4690  0.00  0.00     0.000 O
ENDBRANCH 62 70
ENDBRANCH 57 61
ENDBRANCH 41 57
ENDBRANCH 40 44
ENDBRANCH 20 40
ENDBRANCH 19 23
ENDBRANCH 1 19
TORSDOF 14
ENDMDL
MODEL 35
REMARK VINA RESULT:       0.1    107.019    113.912
ROOT
ATOM      1  C1  IDS C   1      23.725  40.805  99.2650  0.00  0.00     0.000 C
ATOM      2  C2  IDS C   1      25.090  41.185  98.7190  0.00  0.00     0.000 C
ATOM      3  C3  IDS C   1      25.209  40.806  97.2480  0.00  0.00     0.000 C
ATOM      4  C4  IDS C   1      24.026  41.343  96.4420  0.00  0.00     0.000 C
ATOM      5  C5  IDS C   1      22.698  40.980  97.1370  0.00  0.00     0.000 C
ATOM      6  O5  IDS C   1      22.704  41.428  98.4880  0.00  0.00     0.000 O
ATOM      7   O  IDS C   1      25.291  39.384  97.1280  0.00  0.00     0.000 O
ATOM      9  HD  IDS C   1      24.947  39.590  96.3600  0.00  0.00     0.000 HD
ATOM      9   O  IDS C   1      24.138  42.771  96.3460  0.00  0.00     0.000 O
ATOM     11  HD  IDS C   1      23.793  42.977  95.5780  0.00  0.00     0.000 HD
ENDROOT
BRANCH 2 11
ATOM     11   O  IDS C   1      25.293  42.647  98.8240  0.00  0.00     0.000 O
ATOM     12   S  IDS C   1      26.497  43.241  99.6920  0.00  0.00     0.000 S
ATOM     13   O  IDS C   1      26.866  44.418  98.9390  0.00  0.00     0.000 OA
ATOM     14   O  IDS C   1      27.557  42.265  99.7710  0.00  0.00     0.000 OA
ATOM     15   O  IDS C   1      25.906  43.541 100.9730  0.00  0.00     0.000 OA
ENDBRANCH 2 11
BRANCH 5 16
ATOM     16   C  IDS C   1      21.481  41.579  96.4560  0.00  0.00     0.000 C
ATOM     17   O  IDS C   1      20.459  41.710  97.0950  0.00  0.00     0.000 OA
ATOM     18   O  IDS C   1      21.520  41.904  95.3010  0.00  0.00     0.000 OA
ENDBRANCH 5 16
BRANCH 1 19
ATOM     19  O4  SGN C   2      23.498  39.536  99.6190  0.00  0.00     0.000 O
BRANCH 19 23
ATOM     20  C1  SGN C   2      21.636  37.038 102.3960  0.00  0.00     0.000 C
ATOM     21  C2  SGN C   2      20.724  37.721 101.3700  0.00  0.00     0.000 C
ATOM     22  C3  SGN C   2      21.557  38.225 100.1950  0.00  0.00     0.000 C
ATOM     23  C4  SGN C   2      22.646  39.162 100.7030  0.00  0.00     0.000 C
ATOM     24  C5  SGN C   2      23.472  38.461 101.7860  0.00  0.00     0.000 C
ATOM     25  O5  SGN C   2      22.603  37.981 102.8280  0.00  0.00     0.000 O
ATOM     26   O  SGN C   2      20.728  38.877  99.2400  0.00  0.00     0.000 O
ATOM     28  HD  SGN C   2      20.147  39.194  98.6800  0.00  0.00     0.000 HD
BRANCH 21 30
ATOM     28   N  SGN C   2      19.774  36.782 101.9830  0.00  0.00     0.000 N
ATOM     30  HD  SGN C   2      19.544  36.083 101.5270  0.00  0.00     0.000 HD
ATOM     30   S  SGN C   2      18.204  36.887 101.6970  0.00  0.00     0.000 S
ATOM     31   O  SGN C   2      18.078  36.873 100.2790  0.00  0.00     0.000 OA
ATOM     32   O  SGN C   2      17.539  35.909 102.4760  0.00  0.00     0.000 OA
ATOM     33   O  SGN C   2      17.803  38.286 102.2790  0.00  0.00     0.000 OA
ENDBRANCH 21 30
BRANCH 24 34
ATOM     34   C  SGN C   2      24.484  39.361 102.4550  0.00  0.00     0.000 C
ATOM     35   O  SGN C   2      25.801  39.002 102.0020  0.00  0.00     0.000 O
ATOM     36   S  SGN C   2      27.031  39.474 102.9020  0.00  0.00     0.000 S
ATOM     37   O  SGN C   2      26.730  38.977 104.2300  0.00  0.00     0.000 OA
ATOM     38   O  SGN C   2      28.200  38.867 102.3140  0.00  0.00     0.000 OA
ATOM     39   O  SGN C   2      27.008  40.913 102.7970  0.00  0.00     0.000 OA
ENDBRANCH 24 34
BRANCH 20 40
ATOM     40  O4  IDS C   3      22.253  35.919 102.0220  0.00  0.00     0.000 O
BRANCH 40 44
ATOM     41  C1  IDS C   3      23.189  32.630 101.1670  0.00  0.00     0.000 C
ATOM     42  C2  IDS C   3      21.732  33.004 101.4230  0.00  0.00     0.000 C
ATOM     43  C3  IDS C   3      21.595  33.718 102.7650  0.00  0.00     0.000 C
ATOM     44  C4  IDS C   3      22.601  34.850 102.9060  0.00  0.00     0.000 C
ATOM     45  C5  IDS C   3      24.018  34.338 102.5710  0.00  0.00     0.000 C
ATOM     46  O5  IDS C   3      24.024  33.782 101.2540  0.00  0.00     0.000 O
ATOM     47   O  IDS C   3      21.771  32.778 103.8220  0.00  0.00     0.000 O
ATOM     49  HD  IDS C   3      21.310  33.137 103.1830  0.00  0.00     0.000 HD
BRANCH 42 49
ATOM     49   O  IDS C   3      21.242  33.904 100.3540  0.00  0.00     0.000 O
ATOM     50   S  IDS C   3      19.974  33.475  99.4740  0.00  0.00     0.000 S
ATOM     51   O  IDS C   3      18.868  33.610 100.3950  0.00  0.00     0.000 OA
ATOM     52   O  IDS C   3      20.149  32.109  99.0090  0.00  0.00     0.000 OA
ATOM     53   O  IDS C   3      19.913  34.419  98.3780  0.00  0.00     0.000 OA
ENDBRANCH 42 49
BRANCH 45 54
ATOM     54   C  IDS C   3      25.083  35.421 102.6480  0.00  0.00     0.000 C
ATOM     55   O  IDS C   3      25.755  35.667 101.6810  0.00  0.00     0.000 OA
ATOM     56   O  IDS C   3      25.263  36.021 103.6900  0.00  0.00     0.000 OA
ENDBRANCH 45 54
BRANCH 41 57
ATOM     57  O4  SGN C   4      23.444  31.531 101.8890  0.00  0.00     0.000 O
BRANCH 57 61
ATOM     58  C1  SGN C   4      26.570  28.796 102.4120  0.00  0.00     0.000 C
ATOM     59  C2  SGN C   4      26.805  30.222 102.9350  0.00  0.00     0.000 C
ATOM     60  C3  SGN C   4      25.483  30.991 103.0610  0.00  0.00     0.000 C
ATOM     61  C4  SGN C   4      24.743  30.949 101.7350  0.00  0.00     0.000 C
ATOM     62  C5  SGN C   4      24.571  29.506 101.2620  0.00  0.00     0.000 C
ATOM     63  O5  SGN C   4      25.846  28.841 101.1910  0.00  0.00     0.000 O
BRANCH 59 66
ATOM     64   N  SGN C   4      27.611  30.031 104.1450  0.00  0.00     0.000 N
ATOM     66  HD  SGN C   4      27.081  30.355 103.5420  0.00  0.00     0.000 HD
ATOM     66   O  SGN C   4      29.531  30.459 105.5830  0.00  0.00     0.000 OA
ATOM     67   O  SGN C   4      29.832  30.299 103.1480  0.00  0.00     0.000 OA
ATOM     68   S  SGN C   4      28.973  30.858 104.3350  0.00  0.00     0.000 S
ATOM     69   O  SGN C   4      28.700  32.230 104.1010  0.00  0.00     0.000 OA
ENDBRANCH 59 66
BRANCH 62 70
ATOM     70   C  SGN C   4      23.959  29.443  99.8850  0.00  0.00     0.000 C
ATOM     71   S  SGN C   4      24.210  30.298  97.4820  0.00  0.00     0.000 S
ATOM     72   O  SGN C   4      23.973  28.954  96.9940  0.00  0.00     0.000 OA
ATOM     73   O  SGN C   4      22.995  31.072  97.6430  0.00  0.00     0.000 OA
ATOM     74   O  SGN C   4      25.255  30.996  96.7690  0.00  0.00     0.000 OA
ATOM     75   O  SGN C   4      24.810  30.101  98.9390  0.00  0.00     0.000 O
ENDBRANCH 62 70
ENDBRANCH 57 61
ENDBRANCH 41 57
ENDBRANCH 40 44
ENDBRANCH 20 40
ENDBRANCH 19 23
ENDBRANCH 1 19
TORSDOF 14
ENDMDL
MODEL 36
REMARK VINA RESULT:       0.1    102.350    107.267
ROOT
ATOM      1  C1  IDS C   1      15.121  57.562  91.4700  0.00  0.00     0.000 C
ATOM      2  C2  IDS C   1      14.500  58.616  92.3700  0.00  0.00     0.000 C
ATOM      3  C3  IDS C   1      13.691  57.967  93.4860  0.00  0.00     0.000 C
ATOM      4  C4  IDS C   1      14.514  56.906  94.2180  0.00  0.00     0.000 C
ATOM      5  C5  IDS C   1      15.172  55.948  93.2050  0.00  0.00     0.000 C
ATOM      6  O5  IDS C   1      15.930  56.680  92.2470  0.00  0.00     0.000 O
ATOM      7   O  IDS C   1      12.503  57.390  92.9400  0.00  0.00     0.000 O
ATOM      9  HD  IDS C   1      12.619  56.889  93.6370  0.00  0.00     0.000 HD
ATOM      9   O  IDS C   1      15.534  57.558  94.9900  0.00  0.00     0.000 O
ATOM     11  HD  IDS C   1      15.650  57.056  95.6870  0.00  0.00     0.000 HD
ENDROOT
BRANCH 2 11
ATOM     11   O  IDS C   1      15.558  59.437  93.0000  0.00  0.00     0.000 O
ATOM     12   S  IDS C   1      15.615  61.016  92.7590  0.00  0.00     0.000 S
ATOM     13   O  IDS C   1      16.104  61.502  94.0300  0.00  0.00     0.000 OA
ATOM     14   O  IDS C   1      14.293  61.499  92.4420  0.00  0.00     0.000 OA
ATOM     15   O  IDS C   1      16.555  61.185  91.6800  0.00  0.00     0.000 OA
ENDBRANCH 2 11
BRANCH 5 16
ATOM     16   C  IDS C   1      16.099  54.935  93.8520  0.00  0.00     0.000 C
ATOM     17   O  IDS C   1      15.931  54.652  95.0190  0.00  0.00     0.000 OA
ATOM     18   O  IDS C   1      16.993  54.433  93.2290  0.00  0.00     0.000 OA
ENDBRANCH 5 16
BRANCH 1 19
ATOM     19  O4  SGN C   2      14.366  56.986  90.5300  0.00  0.00     0.000 O
BRANCH 19 23
ATOM     20  C1  SGN C   2      14.287  55.540  86.6140  0.00  0.00     0.000 C
ATOM     21  C2  SGN C   2      15.017  54.675  87.6490  0.00  0.00     0.000 C
ATOM     22  C3  SGN C   2      14.596  55.089  89.0560  0.00  0.00     0.000 C
ATOM     23  C4  SGN C   2      14.871  56.575  89.2580  0.00  0.00     0.000 C
ATOM     24  C5  SGN C   2      14.193  57.385  88.1500  0.00  0.00     0.000 C
ATOM     25  O5  SGN C   2      14.613  56.898  86.8630  0.00  0.00     0.000 O
ATOM     26   O  SGN C   2      15.276  54.307  90.0300  0.00  0.00     0.000 O
ATOM     28  HD  SGN C   2      15.677  53.744  90.5530  0.00  0.00     0.000 HD
BRANCH 21 30
ATOM     28   N  SGN C   2      15.018  53.769  86.4930  0.00  0.00     0.000 N
ATOM     30  HD  SGN C   2      14.456  53.109  86.4940  0.00  0.00     0.000 HD
ATOM     30   S  SGN C   2      15.864  52.411  86.5050  0.00  0.00     0.000 S
ATOM     31   O  SGN C   2      15.454  51.722  87.6820  0.00  0.00     0.000 OA
ATOM     32   O  SGN C   2      15.733  51.789  85.2400  0.00  0.00     0.000 OA
ATOM     33   O  SGN C   2      17.350  52.891  86.6280  0.00  0.00     0.000 OA
ENDBRANCH 21 30
BRANCH 24 34
ATOM     34   C  SGN C   2      14.531  58.857  88.1800  0.00  0.00     0.000 C
ATOM     35   O  SGN C   2      13.387  59.589  88.6560  0.00  0.00     0.000 O
ATOM     36   S  SGN C   2      13.340  61.151  88.3300  0.00  0.00     0.000 S
ATOM     37   O  SGN C   2      13.512  61.234  86.8930  0.00  0.00     0.000 OA
ATOM     38   O  SGN C   2      12.045  61.603  88.7800  0.00  0.00     0.000 OA
ATOM     39   O  SGN C   2      14.441  61.698  89.0840  0.00  0.00     0.000 OA
ENDBRANCH 24 34
BRANCH 20 40
ATOM     40  O4  IDS C   3      12.964  55.416  86.5320  0.00  0.00     0.000 O
BRANCH 40 44
ATOM     41  C1  IDS C   3       9.652  54.399  85.8800  0.00  0.00     0.000 C
ATOM     42  C2  IDS C   3      10.843  53.510  85.5330  0.00  0.00     0.000 C
ATOM     43  C3  IDS C   3      11.863  54.287  84.7040  0.00  0.00     0.000 C
ATOM     44  C4  IDS C   3      12.202  55.626  85.3400  0.00  0.00     0.000 C
ATOM     45  C5  IDS C   3      10.905  56.390  85.6800  0.00  0.00     0.000 C
ATOM     46  O5  IDS C   3      10.089  55.587  86.5350  0.00  0.00     0.000 O
ATOM     47   O  IDS C   3      11.348  54.491  83.3900  0.00  0.00     0.000 O
ATOM     49  HD  IDS C   3      11.699  53.997  84.0090  0.00  0.00     0.000 HD
BRANCH 42 49
ATOM     49   O  IDS C   3      11.503  53.035  86.7710  0.00  0.00     0.000 O
ATOM     50   S  IDS C   3      11.595  51.463  87.0690  0.00  0.00     0.000 S
ATOM     51   O  IDS C   3      12.574  51.000  86.1110  0.00  0.00     0.000 OA
ATOM     52   O  IDS C   3      10.289  50.856  86.8700  0.00  0.00     0.000 OA
ATOM     53   O  IDS C   3      12.047  51.344  88.4390  0.00  0.00     0.000 OA
ENDBRANCH 42 49
BRANCH 45 54
ATOM     54   C  IDS C   3      11.154  57.728  86.3590  0.00  0.00     0.000 C
ATOM     55   O  IDS C   3      10.710  57.930  87.4590  0.00  0.00     0.000 OA
ATOM     56   O  IDS C   3      11.785  58.592  85.7830  0.00  0.00     0.000 OA
ENDBRANCH 45 54
BRANCH 41 57
ATOM     57  O4  SGN C   4       8.873  54.452  84.7930  0.00  0.00     0.000 O
BRANCH 57 61
ATOM     58  C1  SGN C   4       5.155  56.031  83.6920  0.00  0.00     0.000 C
ATOM     59  C2  SGN C   4       6.288  57.040  83.9450  0.00  0.00     0.000 C
ATOM     60  C3  SGN C   4       7.659  56.350  83.9300  0.00  0.00     0.000 C
ATOM     61  C4  SGN C   4       7.653  55.191  84.9120  0.00  0.00     0.000 C
ATOM     62  C5  SGN C   4       6.488  54.247  84.6210  0.00  0.00     0.000 C
ATOM     63  O5  SGN C   4       5.240  54.965  84.6260  0.00  0.00     0.000 O
BRANCH 59 66
ATOM     64   N  SGN C   4       6.042  58.107  82.9680  0.00  0.00     0.000 N
ATOM     66  HD  SGN C   4       6.415  57.569  83.5360  0.00  0.00     0.000 HD
ATOM     66   O  SGN C   4       5.724  60.428  82.3010  0.00  0.00     0.000 OA
ATOM     67   O  SGN C   4       4.724  59.604  84.3900  0.00  0.00     0.000 OA
ATOM     68   S  SGN C   4       5.982  59.635  83.4540  0.00  0.00     0.000 S
ATOM     69   O  SGN C   4       7.134  59.900  84.2390  0.00  0.00     0.000 OA
ENDBRANCH 59 66
BRANCH 62 70
ATOM     70   C  SGN C   4       6.380  53.161  85.6620  0.00  0.00     0.000 C
ATOM     71   S  SGN C   4       6.195  52.740  88.1840  0.00  0.00     0.000 S
ATOM     72   O  SGN C   4       5.146  51.772  87.9310  0.00  0.00     0.000 OA
ATOM     73   O  SGN C   4       7.524  52.163  88.1730  0.00  0.00     0.000 OA
ATOM     74   O  SGN C   4       5.937  53.587  89.3260  0.00  0.00     0.000 OA
ATOM     75   O  SGN C   4       6.132  53.737  86.9500  0.00  0.00     0.000 O
ENDBRANCH 62 70
ENDBRANCH 57 61
ENDBRANCH 41 57
ENDBRANCH 40 44
ENDBRANCH 20 40
ENDBRANCH 19 23
ENDBRANCH 1 19
TORSDOF 14
ENDMDL
MODEL 37
REMARK VINA RESULT:       0.1     80.258     85.091
ROOT
ATOM      1  C1  IDS C   1      84.412  45.937  20.1970  0.00  0.00     0.000 C
ATOM      2  C2  IDS C   1      85.792  46.364  20.6630  0.00  0.00     0.000 C
ATOM      3  C3  IDS C   1      86.668  45.150  20.9450  0.00  0.00     0.000 C
ATOM      4  C4  IDS C   1      86.663  44.179  19.7630  0.00  0.00     0.000 C
ATOM      5  C5  IDS C   1      85.216  43.890  19.3160  0.00  0.00     0.000 C
ATOM      6  O5  IDS C   1      84.526  45.105  19.0440  0.00  0.00     0.000 O
ATOM      7   O  IDS C   1      86.209  44.497  22.1300  0.00  0.00     0.000 O
ATOM      9  HD  IDS C   1      86.574  43.832  21.7120  0.00  0.00     0.000 HD
ATOM      9   O  IDS C   1      87.390  44.768  18.6730  0.00  0.00     0.000 O
ATOM     11  HD  IDS C   1      87.756  44.103  18.2560  0.00  0.00     0.000 HD
ENDROOT
BRANCH 2 11
ATOM     11   O  IDS C   1      86.460  47.166  19.6120  0.00  0.00     0.000 O
ATOM     12   S  IDS C   1      86.922  48.667  19.9050  0.00  0.00     0.000 S
ATOM     13   O  IDS C   1      88.132  48.774  19.1200  0.00  0.00     0.000 OA
ATOM     14   O  IDS C   1      87.152  48.830  21.3200  0.00  0.00     0.000 OA
ATOM     15   O  IDS C   1      85.842  49.482  19.4080  0.00  0.00     0.000 OA
ENDBRANCH 2 11
BRANCH 5 16
ATOM     16   C  IDS C   1      85.135  43.023  18.0730  0.00  0.00     0.000 C
ATOM     17   O  IDS C   1      86.069  42.298  17.8030  0.00  0.00     0.000 OA
ATOM     18   O  IDS C   1      84.172  43.063  17.3570  0.00  0.00     0.000 OA
ENDBRANCH 5 16
BRANCH 1 19
ATOM     19  O4  SGN C   2      83.510  45.554  21.1060  0.00  0.00     0.000 O
BRANCH 19 23
ATOM     20  C1  SGN C   2      79.485  45.681  22.2030  0.00  0.00     0.000 C
ATOM     21  C2  SGN C   2      79.849  44.748  21.0420  0.00  0.00     0.000 C
ATOM     22  C3  SGN C   2      81.351  44.479  21.0480  0.00  0.00     0.000 C
ATOM     23  C4  SGN C   2      82.109  45.800  20.9780  0.00  0.00     0.000 C
ATOM     24  C5  SGN C   2      81.645  46.726  22.1060  0.00  0.00     0.000 C
ATOM     25  O5  SGN C   2      80.216  46.886  22.0490  0.00  0.00     0.000 O
ATOM     26   O  SGN C   2      81.709  43.627  19.9670  0.00  0.00     0.000 O
ATOM     28  HD  SGN C   2      81.832  43.054  19.3290  0.00  0.00     0.000 HD
BRANCH 21 30
ATOM     28   N  SGN C   2      78.447  44.368  21.2620  0.00  0.00     0.000 N
ATOM     30  HD  SGN C   2      78.289  43.622  21.6720  0.00  0.00     0.000 HD
ATOM     30   S  SGN C   2      77.679  43.406  20.2400  0.00  0.00     0.000 S
ATOM     31   O  SGN C   2      78.500  42.248  20.1240  0.00  0.00     0.000 OA
ATOM     32   O  SGN C   2      76.335  43.280  20.6660  0.00  0.00     0.000 OA
ATOM     33   O  SGN C   2      77.661  44.214  18.8980  0.00  0.00     0.000 OA
ENDBRANCH 21 30
BRANCH 24 34
ATOM     34   C  SGN C   2      82.234  48.115  22.0310  0.00  0.00     0.000 C
ATOM     35   O  SGN C   2      83.223  48.260  23.0650  0.00  0.00     0.000 O
ATOM     36   S  SGN C   2      83.626  49.748  23.4800  0.00  0.00     0.000 S
ATOM     37   O  SGN C   2      82.369  50.396  23.7990  0.00  0.00     0.000 OA
ATOM     38   O  SGN C   2      84.505  49.611  24.6160  0.00  0.00     0.000 OA
ATOM     39   O  SGN C   2      84.274  50.274  22.3030  0.00  0.00     0.000 OA
ENDBRANCH 24 34
BRANCH 20 40
ATOM     40  O4  IDS C   3      79.656  45.220  23.4400  0.00  0.00     0.000 O
BRANCH 40 44
ATOM     41  C1  IDS C   3      79.390  43.603  26.5610  0.00  0.00     0.000 C
ATOM     42  C2  IDS C   3      78.434  43.286  25.4140  0.00  0.00     0.000 C
ATOM     43  C3  IDS C   3      77.819  44.571  24.8650  0.00  0.00     0.000 C
ATOM     44  C4  IDS C   3      78.878  45.622  24.5700  0.00  0.00     0.000 C
ATOM     45  C5  IDS C   3      79.798  45.800  25.7970  0.00  0.00     0.000 C
ATOM     46  O5  IDS C   3      80.379  44.541  26.1440  0.00  0.00     0.000 O
ATOM     47   O  IDS C   3      76.876  45.083  25.8040  0.00  0.00     0.000 O
ATOM     49  HD  IDS C   3      77.123  44.521  25.1930  0.00  0.00     0.000 HD
BRANCH 42 49
ATOM     49   O  IDS C   3      79.161  42.604  24.3190  0.00  0.00     0.000 O
ATOM     50   S  IDS C   3      78.719  41.131  23.8700  0.00  0.00     0.000 S
ATOM     51   O  IDS C   3      77.462  41.353  23.1900  0.00  0.00     0.000 OA
ATOM     52   O  IDS C   3      78.576  40.290  25.0470  0.00  0.00     0.000 OA
ATOM     53   O  IDS C   3      79.761  40.654  22.9860  0.00  0.00     0.000 OA
ENDBRANCH 42 49
BRANCH 45 54
ATOM     54   C  IDS C   3      80.914  46.807  25.5720  0.00  0.00     0.000 C
ATOM     55   O  IDS C   3      82.062  46.456  25.6630  0.00  0.00     0.000 OA
ATOM     56   O  IDS C   3      80.644  47.965  25.3190  0.00  0.00     0.000 OA
ENDBRANCH 45 54
BRANCH 41 57
ATOM     57  O4  SGN C   4      78.639  43.823  27.6470  0.00  0.00     0.000 O
BRANCH 57 61
ATOM     58  C1  SGN C   4      79.198  44.552  31.7320  0.00  0.00     0.000 C
ATOM     59  C2  SGN C   4      79.601  45.679  30.7670  0.00  0.00     0.000 C
ATOM     60  C3  SGN C   4      78.981  45.468  29.3780  0.00  0.00     0.000 C
ATOM     61  C4  SGN C   4      79.338  44.082  28.8690  0.00  0.00     0.000 C
ATOM     62  C5  SGN C   4      78.937  43.017  29.8890  0.00  0.00     0.000 C
ATOM     63  O5  SGN C   4      79.533  43.292  31.1700  0.00  0.00     0.000 O
BRANCH 59 66
ATOM     64   N  SGN C   4      79.266  46.909  31.4920  0.00  0.00     0.000 N
ATOM     66  HD  SGN C   4      79.444  46.333  30.8710  0.00  0.00     0.000 HD
ATOM     66   O  SGN C   4      79.760  49.116  32.3970  0.00  0.00     0.000 OA
ATOM     67   O  SGN C   4      81.452  47.337  32.5100  0.00  0.00     0.000 OA
ATOM     68   S  SGN C   4      80.365  48.068  31.6490  0.00  0.00     0.000 S
ATOM     69   O  SGN C   4      80.904  48.349  30.3670  0.00  0.00     0.000 OA
ENDBRANCH 59 66
BRANCH 62 70
ATOM     70   C  SGN C   4      79.400  41.645  29.4680  0.00  0.00     0.000 C
ATOM     71   S  SGN C   4      81.461  40.299  28.7510  0.00  0.00     0.000 S
ATOM     72   O  SGN C   4      81.058  39.232  29.6460  0.00  0.00     0.000 OA
ATOM     73   O  SGN C   4      80.901  40.174  27.4200  0.00  0.00     0.000 OA
ATOM     74   O  SGN C   4      82.882  40.558  28.7630  0.00  0.00     0.000 OA
ATOM     75   O  SGN C   4      80.829  41.614  29.3780  0.00  0.00     0.000 O
ENDBRANCH 62 70
ENDBRANCH 57 61
ENDBRANCH 41 57
ENDBRANCH 40 44
ENDBRANCH 20 40
ENDBRANCH 19 23
ENDBRANCH 1 19
TORSDOF 14
ENDMDL
MODEL 38
REMARK VINA RESULT:       0.1    116.701    120.574
ROOT
ATOM      1  C1  IDS C   1      38.573   9.054  77.5760  0.00  0.00     0.000 C
ATOM      2  C2  IDS C   1      38.766   7.619  77.1210  0.00  0.00     0.000 C
ATOM      3  C3  IDS C   1      37.884   6.673  77.9270  0.00  0.00     0.000 C
ATOM      4  C4  IDS C   1      36.431   7.149  77.9400  0.00  0.00     0.000 C
ATOM      5  C5  IDS C   1      36.363   8.641  78.3240  0.00  0.00     0.000 C
ATOM      6  O5  IDS C   1      37.197   9.415  77.4670  0.00  0.00     0.000 O
ATOM      7   O  IDS C   1      38.389   6.570  79.2590  0.00  0.00     0.000 O
ATOM      9  HD  IDS C   1      37.551   6.397  79.3920  0.00  0.00     0.000 HD
ATOM      9   O  IDS C   1      35.869   6.968  76.6320  0.00  0.00     0.000 O
ATOM     11  HD  IDS C   1      35.031   6.794  76.7640  0.00  0.00     0.000 HD
ENDROOT
BRANCH 2 11
ATOM     11   O  IDS C   1      38.390   7.480  75.6960  0.00  0.00     0.000 O
ATOM     12   S  IDS C   1      39.458   6.979  74.6180  0.00  0.00     0.000 S
ATOM     13   O  IDS C   1      38.637   6.217  73.7040  0.00  0.00     0.000 OA
ATOM     14   O  IDS C   1      40.462   6.177  75.2760  0.00  0.00     0.000 OA
ATOM     15   O  IDS C   1      39.987   8.190  74.0420  0.00  0.00     0.000 OA
ENDBRANCH 2 11
BRANCH 5 16
ATOM     16   C  IDS C   1      34.960   9.217  78.2460  0.00  0.00     0.000 C
ATOM     17   O  IDS C   1      34.014   8.464  78.3410  0.00  0.00     0.000 OA
ATOM     18   O  IDS C   1      34.786  10.392  78.0780  0.00  0.00     0.000 OA
ENDBRANCH 5 16
BRANCH 1 19
ATOM     19  O4  SGN C   2      39.202   9.476  78.6770  0.00  0.00     0.000 O
BRANCH 19 23
ATOM     20  C1  SGN C   2      41.228  12.664  80.4540  0.00  0.00     0.000 C
ATOM     21  C2  SGN C   2      39.705  12.799  80.3410  0.00  0.00     0.000 C
ATOM     22  C3  SGN C   2      39.083  11.427  80.0910  0.00  0.00     0.000 C
ATOM     23  C4  SGN C   2      39.696  10.807  78.8400  0.00  0.00     0.000 C
ATOM     24  C5  SGN C   2      41.221  10.776  78.9690  0.00  0.00     0.000 C
ATOM     25  O5  SGN C   2      41.714  12.099  79.2480  0.00  0.00     0.000 O
ATOM     26   O  SGN C   2      37.670  11.536  79.9670  0.00  0.00     0.000 O
ATOM     28  HD  SGN C   2      36.816  11.679  79.9730  0.00  0.00     0.000 HD
BRANCH 21 30
ATOM     28   N  SGN C   2      40.016  13.965  81.1780  0.00  0.00     0.000 N
ATOM     30  HD  SGN C   2      39.842  13.914  82.0250  0.00  0.00     0.000 HD
ATOM     30   S  SGN C   2      38.904  15.066  81.5110  0.00  0.00     0.000 S
ATOM     31   O  SGN C   2      37.805  14.339  82.0520  0.00  0.00     0.000 OA
ATOM     32   O  SGN C   2      39.508  16.100  82.2660  0.00  0.00     0.000 OA
ATOM     33   O  SGN C   2      38.538  15.672  80.1140  0.00  0.00     0.000 OA
ENDBRANCH 21 30
BRANCH 24 34
ATOM     34   C  SGN C   2      41.927  10.313  77.7160  0.00  0.00     0.000 C
ATOM     35   O  SGN C   2      42.434   8.983  77.9300  0.00  0.00     0.000 O
ATOM     36   S  SGN C   2      43.593   8.484  76.9520  0.00  0.00     0.000 S
ATOM     37   O  SGN C   2      44.617   9.506  77.0430  0.00  0.00     0.000 OA
ATOM     38   O  SGN C   2      44.013   7.204  77.4690  0.00  0.00     0.000 OA
ATOM     39   O  SGN C   2      42.953   8.409  75.6620  0.00  0.00     0.000 OA
ENDBRANCH 24 34
BRANCH 20 40
ATOM     40  O4  IDS C   3      41.710  11.973  81.4860  0.00  0.00     0.000 O
BRANCH 40 44
ATOM     41  C1  IDS C   3      42.828  10.851  84.6340  0.00  0.00     0.000 C
ATOM     42  C2  IDS C   3      42.120  12.192  84.4710  0.00  0.00     0.000 C
ATOM     43  C3  IDS C   3      42.790  13.017  83.3750  0.00  0.00     0.000 C
ATOM     44  C4  IDS C   3      42.979  12.211  82.1000  0.00  0.00     0.000 C
ATOM     45  C5  IDS C   3      43.660  10.865  82.4250  0.00  0.00     0.000 C
ATOM     46  O5  IDS C   3      42.880  10.157  83.3900  0.00  0.00     0.000 O
ATOM     47   O  IDS C   3      44.051  13.489  83.8430  0.00  0.00     0.000 O
ATOM     49  HD  IDS C   3      43.186  13.507  83.8190  0.00  0.00     0.000 HD
BRANCH 42 49
ATOM     49   O  IDS C   3      40.701  11.977  84.1020  0.00  0.00     0.000 O
ATOM     50   S  IDS C   3      39.540  12.527  85.0590  0.00  0.00     0.000 S
ATOM     51   O  IDS C   3      39.599  13.959  84.8670  0.00  0.00     0.000 OA
ATOM     52   O  IDS C   3      39.820  12.136  86.4310  0.00  0.00     0.000 OA
ATOM     53   O  IDS C   3      38.310  11.943  84.5680  0.00  0.00     0.000 OA
ENDBRANCH 42 49
BRANCH 45 54
ATOM     54   C  IDS C   3      43.851   9.977  81.2060  0.00  0.00     0.000 C
ATOM     55   O  IDS C   3      43.337   8.888  81.1740  0.00  0.00     0.000 OA
ATOM     56   O  IDS C   3      44.535  10.361  80.2760  0.00  0.00     0.000 OA
ENDBRANCH 45 54
BRANCH 41 57
ATOM     57  O4  SGN C   4      43.937  11.078  85.3490  0.00  0.00     0.000 O
BRANCH 57 61
ATOM     58  C1  SGN C   4      47.039   8.866  87.0860  0.00  0.00     0.000 C
ATOM     59  C2  SGN C   4      47.018   8.940  85.5500  0.00  0.00     0.000 C
ATOM     60  C3  SGN C   4      46.116  10.082  85.0620  0.00  0.00     0.000 C
ATOM     61  C4  SGN C   4      44.735   9.936  85.6780  0.00  0.00     0.000 C
ATOM     62  C5  SGN C   4      44.834   9.840  87.2000  0.00  0.00     0.000 C
ATOM     63  O5  SGN C   4      45.713   8.765  87.5840  0.00  0.00     0.000 O
BRANCH 59 66
ATOM     64   N  SGN C   4      48.435   8.970  85.1740  0.00  0.00     0.000 N
ATOM     66  HD  SGN C   4      47.573   9.056  85.1750  0.00  0.00     0.000 HD
ATOM     66   O  SGN C   4      50.383   8.201  83.9300  0.00  0.00     0.000 OA
ATOM     67   O  SGN C   4      48.766   6.571  84.8060  0.00  0.00     0.000 OA
ATOM     68   S  SGN C   4      48.992   7.941  84.0770  0.00  0.00     0.000 S
ATOM     69   O  SGN C   4      48.148   8.001  82.9380  0.00  0.00     0.000 OA
ENDBRANCH 59 66
BRANCH 62 70
ATOM     70   C  SGN C   4      43.491   9.560  87.8260  0.00  0.00     0.000 C
ATOM     71   S  SGN C   4      41.489   7.959  87.7730  0.00  0.00     0.000 S
ATOM     72   O  SGN C   4      41.503   7.917  89.2220  0.00  0.00     0.000 OA
ATOM     73   O  SGN C   4      40.666   9.024  87.2370  0.00  0.00     0.000 OA
ATOM     74   O  SGN C   4      41.249   6.673  87.1600  0.00  0.00     0.000 OA
ATOM     75   O  SGN C   4      42.985   8.302  87.3640  0.00  0.00     0.000 O
ENDBRANCH 62 70
ENDBRANCH 57 61
ENDBRANCH 41 57
ENDBRANCH 40 44
ENDBRANCH 20 40
ENDBRANCH 19 23
ENDBRANCH 1 19
TORSDOF 14
ENDMDL
MODEL 39
REMARK VINA RESULT:       0.1     64.726     69.812
ROOT
ATOM      1  C1  IDS C   1      92.572  79.129   6.7010  0.00  0.00     0.000 C
ATOM      2  C2  IDS C   1      92.129  78.010   5.7740  0.00  0.00     0.000 C
ATOM      3  C3  IDS C   1      91.411  78.572   4.5530  0.00  0.00     0.000 C
ATOM      4  C4  IDS C   1      92.238  79.669   3.8830  0.00  0.00     0.000 C
ATOM      5  C5  IDS C   1      92.711  80.697   4.9310  0.00  0.00     0.000 C
ATOM      6  O5  IDS C   1      93.403  80.045   5.9910  0.00  0.00     0.000 O
ATOM      7   O  IDS C   1      90.133  79.077   4.9430  0.00  0.00     0.000 O
ATOM      9  HD  IDS C   1      90.293  79.567   4.2470  0.00  0.00     0.000 HD
ATOM      9   O  IDS C   1      93.382  79.072   3.2520  0.00  0.00     0.000 O
ATOM     11  HD  IDS C   1      93.542  79.562   2.5560  0.00  0.00     0.000 HD
ENDROOT
BRANCH 2 11
ATOM     11   O  IDS C   1      93.305  77.250   5.2940  0.00  0.00     0.000 O
ATOM     12   S  IDS C   1      93.439  75.686   5.5910  0.00  0.00     0.000 S
ATOM     13   O  IDS C   1      94.102  75.204   4.3990  0.00  0.00     0.000 OA
ATOM     14   O  IDS C   1      92.125  75.119   5.7730  0.00  0.00     0.000 OA
ATOM     15   O  IDS C   1      94.260  75.610   6.7740  0.00  0.00     0.000 OA
ENDBRANCH 2 11
BRANCH 5 16
ATOM     16   C  IDS C   1      93.635  81.756   4.3570  0.00  0.00     0.000 C
ATOM     17   O  IDS C   1      93.583  81.996   3.1700  0.00  0.00     0.000 OA
ATOM     18   O  IDS C   1      94.417  82.335   5.0600  0.00  0.00     0.000 OA
ENDBRANCH 5 16
BRANCH 1 19
ATOM     19  O4  SGN C   2      91.678  79.674   7.5320  0.00  0.00     0.000 O
BRANCH 19 23
ATOM     20  C1  SGN C   2      91.056  81.208  11.3640  0.00  0.00     0.000 C
ATOM     21  C2  SGN C   2      91.840  82.095  10.3900  0.00  0.00     0.000 C
ATOM     22  C3  SGN C   2      91.611  81.618   8.9590  0.00  0.00     0.000 C
ATOM     23  C4  SGN C   2      92.006  80.151   8.8380  0.00  0.00     0.000 C
ATOM     24  C5  SGN C   2      91.261  79.323   9.8890  0.00  0.00     0.000 C
ATOM     25  O5  SGN C   2      91.498  79.871  11.1990  0.00  0.00     0.000 O
ATOM     26   O  SGN C   2      92.345  82.421   8.0420  0.00  0.00     0.000 O
ATOM     28  HD  SGN C   2      92.764  82.997   7.5490  0.00  0.00     0.000 HD
BRANCH 21 30
ATOM     28   N  SGN C   2      91.649  83.029  11.5080  0.00  0.00     0.000 N
ATOM     30  HD  SGN C   2      91.048  83.647  11.4230  0.00  0.00     0.000 HD
ATOM     30   S  SGN C   2      92.399  84.442  11.5470  0.00  0.00     0.000 S
ATOM     31   O  SGN C   2      92.080  85.070  10.3090  0.00  0.00     0.000 OA
ATOM     32   O  SGN C   2      92.083  85.084  12.7680  0.00  0.00     0.000 OA
ATOM     33   O  SGN C   2      93.918  84.065  11.6060  0.00  0.00     0.000 OA
ENDBRANCH 21 30
BRANCH 24 34
ATOM     34   C  SGN C   2      91.698  77.878   9.9450  0.00  0.00     0.000 C
ATOM     35   O  SGN C   2      90.668  77.056   9.3690  0.00  0.00     0.000 O
ATOM     36   S  SGN C   2      90.688  75.503   9.7390  0.00  0.00     0.000 S
ATOM     37   O  SGN C   2      90.700  75.469  11.1880  0.00  0.00     0.000 OA
ATOM     38   O  SGN C   2      89.486  74.950   9.1620  0.00  0.00     0.000 OA
ATOM     39   O  SGN C   2      91.902  75.016   9.1310  0.00  0.00     0.000 OA
ENDBRANCH 24 34
BRANCH 20 40
ATOM     40  O4  IDS C   3      89.728  81.242  11.2940  0.00  0.00     0.000 O
BRANCH 40 44
ATOM     41  C1  IDS C   3      86.303  82.041  11.5370  0.00  0.00     0.000 C
ATOM     42  C2  IDS C   3      87.384  83.019  11.9860  0.00  0.00     0.000 C
ATOM     43  C3  IDS C   3      88.352  82.335  12.9490  0.00  0.00     0.000 C
ATOM     44  C4  IDS C   3      88.850  81.008  12.3980  0.00  0.00     0.000 C
ATOM     45  C5  IDS C   3      87.654  80.147  11.9400  0.00  0.00     0.000 C
ATOM     46  O5  IDS C   3      86.890  80.871  10.9740  0.00  0.00     0.000 O
ATOM     47   O  IDS C   3      87.706  82.129  14.2030  0.00  0.00     0.000 O
ATOM     49  HD  IDS C   3      88.092  82.631  13.6110  0.00  0.00     0.000 HD
BRANCH 42 49
ATOM     49   O  IDS C   3      88.148  83.508  10.8150  0.00  0.00     0.000 O
ATOM     50   S  IDS C   3      88.168  85.074  10.4780  0.00  0.00     0.000 S
ATOM     51   O  IDS C   3      88.999  85.629  11.5240  0.00  0.00     0.000 OA
ATOM     52   O  IDS C   3      86.811  85.593  10.5090  0.00  0.00     0.000 OA
ATOM     53   O  IDS C   3      88.765  85.191   9.1640  0.00  0.00     0.000 OA
ENDBRANCH 42 49
BRANCH 45 54
ATOM     54   C  IDS C   3      88.068  78.814  11.3380  0.00  0.00     0.000 C
ATOM     55   O  IDS C   3      87.767  78.554  10.2020  0.00  0.00     0.000 OA
ATOM     56   O  IDS C   3      88.685  78.010  12.0090  0.00  0.00     0.000 OA
ENDBRANCH 45 54
BRANCH 41 57
ATOM     57  O4  SGN C   4      85.410  81.960  12.5310  0.00  0.00     0.000 O
BRANCH 57 61
ATOM     58  C1  SGN C   4      81.704  80.154  13.2590  0.00  0.00     0.000 C
ATOM     59  C2  SGN C   4      82.921  79.220  13.1660  0.00  0.00     0.000 C
ATOM     60  C3  SGN C   4      84.233  80.004  13.3120  0.00  0.00     0.000 C
ATOM     61  C4  SGN C   4      84.263  81.137  12.2990  0.00  0.00     0.000 C
ATOM     62  C5  SGN C   4      83.012  82.004  12.4290  0.00  0.00     0.000 C
ATOM     63  O5  SGN C   4      81.823  81.201  12.3070  0.00  0.00     0.000 O
BRANCH 59 66
ATOM     64   N  SGN C   4      82.637  78.163  14.1410  0.00  0.00     0.000 N
ATOM     66  HD  SGN C   4      83.036  78.712  13.6030  0.00  0.00     0.000 HD
ATOM     66   O  SGN C   4      82.399  75.842  14.8410  0.00  0.00     0.000 OA
ATOM     67   O  SGN C   4      81.593  76.544  12.6280  0.00  0.00     0.000 OA
ATOM     68   S  SGN C   4      82.734  76.623  13.7000  0.00  0.00     0.000 S
ATOM     69   O  SGN C   4      83.984  76.420  13.0590  0.00  0.00     0.000 OA
ENDBRANCH 59 66
BRANCH 62 70
ATOM     70   C  SGN C   4      82.952  83.055  11.3490  0.00  0.00     0.000 C
ATOM     71   S  SGN C   4      83.023  83.402   8.8100  0.00  0.00     0.000 S
ATOM     72   O  SGN C   4      81.893  84.303   8.9160  0.00  0.00     0.000 OA
ATOM     73   O  SGN C   4      84.303  84.067   8.9490  0.00  0.00     0.000 OA
ATOM     74   O  SGN C   4      82.949  82.513   7.6730  0.00  0.00     0.000 OA
ATOM     75   O  SGN C   4      82.887  82.433  10.0600  0.00  0.00     0.000 O
ENDBRANCH 62 70
ENDBRANCH 57 61
ENDBRANCH 41 57
ENDBRANCH 40 44
ENDBRANCH 20 40
ENDBRANCH 19 23
ENDBRANCH 1 19
TORSDOF 14
ENDMDL
MODEL 40
REMARK VINA RESULT:       0.1     76.883     83.894
ROOT
ATOM      1  C1  IDS C   1      31.850 108.325 109.8280  0.00  0.00     0.000 C
ATOM      2  C2  IDS C   1      32.203 108.867 108.4540  0.00  0.00     0.000 C
ATOM      3  C3  IDS C   1      33.214 110.002 108.5640  0.00  0.00     0.000 C
ATOM      4  C4  IDS C   1      34.414 109.592 109.4180  0.00  0.00     0.000 C
ATOM      5  C5  IDS C   1      33.936 108.972 110.7460  0.00  0.00     0.000 C
ATOM      6  O5  IDS C   1      33.034 107.898 110.4990  0.00  0.00     0.000 O
ATOM      7   O  IDS C   1      32.577 111.155 109.1170  0.00  0.00     0.000 O
ATOM      9  HD  IDS C   1      33.396 111.292 109.3620  0.00  0.00     0.000 HD
ATOM      9   O  IDS C   1      35.194 108.628 108.6950  0.00  0.00     0.000 O
ATOM     11  HD  IDS C   1      36.013 108.764 108.9400  0.00  0.00     0.000 HD
ENDROOT
BRANCH 2 11
ATOM     11   O  IDS C   1      32.812 107.801 107.6270  0.00  0.00     0.000 O
ATOM     12   S  IDS C   1      32.044 107.223 106.3510  0.00  0.00     0.000 S
ATOM     13   O  IDS C   1      33.132 106.939 105.4410  0.00  0.00     0.000 OA
ATOM     14   O  IDS C   1      31.134 108.223 105.8470  0.00  0.00     0.000 OA
ATOM     15   O  IDS C   1      31.376 106.040 106.8340  0.00  0.00     0.000 OA
ENDBRANCH 2 11
BRANCH 5 16
ATOM     16   C  IDS C   1      35.071 108.435 111.5990  0.00  0.00     0.000 C
ATOM     17   O  IDS C   1      34.807 107.910 112.6610  0.00  0.00     0.000 OA
ATOM     18   O  IDS C   1      36.212 108.539 111.2420  0.00  0.00     0.000 OA
ENDBRANCH 5 16
BRANCH 1 19
ATOM     19  O4  SGN C   2      30.961 108.986 110.5770  0.00  0.00     0.000 O
BRANCH 19 23
ATOM     20  C1  SGN C   2      27.985 108.628 113.4820  0.00  0.00     0.000 C
ATOM     21  C2  SGN C   2      29.428 108.403 113.9490  0.00  0.00     0.000 C
ATOM     22  C3  SGN C   2      30.398 108.982 112.9220  0.00  0.00     0.000 C
ATOM     23  C4  SGN C   2      30.136 108.356 111.5580  0.00  0.00     0.000 C
ATOM     24  C5  SGN C   2      28.663 108.532 111.1800  0.00  0.00     0.000 C
ATOM     25  O5  SGN C   2      27.824 107.999 112.2210  0.00  0.00     0.000 O
ATOM     26   O  SGN C   2      31.744 108.768 113.3320  0.00  0.00     0.000 O
ATOM     28  HD  SGN C   2      32.527 108.659 113.6860  0.00  0.00     0.000 HD
BRANCH 21 30
ATOM     28   N  SGN C   2      28.994 108.798 115.2950  0.00  0.00     0.000 N
ATOM     30  HD  SGN C   2      29.512 109.321 115.7510  0.00  0.00     0.000 HD
ATOM     30   S  SGN C   2      29.475 107.993 116.5910  0.00  0.00     0.000 S
ATOM     31   O  SGN C   2      30.897 107.966 116.5110  0.00  0.00     0.000 OA
ATOM     32   O  SGN C   2      28.842 108.551 117.7280  0.00  0.00     0.000 OA
ATOM     33   O  SGN C   2      28.878 106.558 116.3910  0.00  0.00     0.000 OA
ENDBRANCH 21 30
BRANCH 24 34
ATOM     34   C  SGN C   2      28.272 107.815 109.9090  0.00  0.00     0.000 C
ATOM     35   O  SGN C   2      28.188 108.772 108.8390  0.00  0.00     0.000 O
ATOM     36   S  SGN C   2      27.351 108.344 107.5480  0.00  0.00     0.000 S
ATOM     37   O  SGN C   2      26.055 107.948 108.0620  0.00  0.00     0.000 OA
ATOM     38   O  SGN C   2      27.302 109.518 106.7100  0.00  0.00     0.000 OA
ATOM     39   O  SGN C   2      28.113 107.258 106.9830  0.00  0.00     0.000 OA
ENDBRANCH 24 34
BRANCH 20 40
ATOM     40  O4  IDS C   3      27.553 109.884 113.4030  0.00  0.00     0.000 O
BRANCH 40 44
ATOM     41  C1  IDS C   3      26.348 113.191 113.6040  0.00  0.00     0.000 C
ATOM     42  C2  IDS C   3      26.991 112.502 114.8040  0.00  0.00     0.000 C
ATOM     43  C3  IDS C   3      26.330 111.149 115.0560  0.00  0.00     0.000 C
ATOM     44  C4  IDS C   3      26.245 110.318 113.7850  0.00  0.00     0.000 C
ATOM     45  C5  IDS C   3      25.622 111.157 112.6500  0.00  0.00     0.000 C
ATOM     46  O5  IDS C   3      26.393 112.345 112.4580  0.00  0.00     0.000 O
ATOM     47   O  IDS C   3      25.024 111.353 115.5910  0.00  0.00     0.000 O
ATOM     49  HD  IDS C   3      25.888 111.342 115.6580  0.00  0.00     0.000 HD
BRANCH 42 49
ATOM     49   O  IDS C   3      28.435 112.285 114.5530  0.00  0.00     0.000 O
ATOM     50   S  IDS C   3      29.503 112.668 115.6850  0.00  0.00     0.000 S
ATOM     51   O  IDS C   3      29.302 111.649 116.6910  0.00  0.00     0.000 OA
ATOM     52   O  IDS C   3      29.222 114.005 116.1800  0.00  0.00     0.000 OA
ATOM     53   O  IDS C   3      30.801 112.585 115.0500  0.00  0.00     0.000 OA
ENDBRANCH 42 49
BRANCH 45 54
ATOM     54   C  IDS C   3      25.537 110.411 111.3270  0.00  0.00     0.000 C
ATOM     55   O  IDS C   3      26.069 110.869 110.3490  0.00  0.00     0.000 OA
ATOM     56   O  IDS C   3      24.918 109.367 111.2590  0.00  0.00     0.000 OA
ENDBRANCH 45 54
BRANCH 41 57
ATOM     57  O4  SGN C   4      25.196 113.724 114.0290  0.00  0.00     0.000 O
BRANCH 57 61
ATOM     58  C1  SGN C   4      22.657 116.871 112.9440  0.00  0.00     0.000 C
ATOM     59  C2  SGN C   4      23.124 115.939 111.8140  0.00  0.00     0.000 C
ATOM     60  C3  SGN C   4      23.687 114.626 112.3760  0.00  0.00     0.000 C
ATOM     61  C4  SGN C   4      24.774 114.934 113.3920  0.00  0.00     0.000 C
ATOM     62  C5  SGN C   4      24.250 115.887 114.4660  0.00  0.00     0.000 C
ATOM     63  O5  SGN C   4      23.716 117.082 113.8670  0.00  0.00     0.000 O
BRANCH 59 66
ATOM     64   N  SGN C   4      21.970 115.864 110.9120  0.00  0.00     0.000 N
ATOM     66  HD  SGN C   4      22.706 115.696 111.3350  0.00  0.00     0.000 HD
ATOM     66   O  SGN C   4      20.884 116.012 108.7360  0.00  0.00     0.000 OA
ATOM     67   O  SGN C   4      22.605 117.653 109.3630  0.00  0.00     0.000 OA
ATOM     68   S  SGN C   4      22.164 116.148 109.3450  0.00  0.00     0.000 S
ATOM     69   O  SGN C   4      23.244 115.356 108.8770  0.00  0.00     0.000 OA
ENDBRANCH 59 66
BRANCH 62 70
ATOM     70   C  SGN C   4      25.345 116.314 115.4100  0.00  0.00     0.000 C
ATOM     71   S  SGN C   4      27.118 118.119 115.8230  0.00  0.00     0.000 S
ATOM     72   O  SGN C   4      26.719 118.173 117.2150  0.00  0.00     0.000 OA
ATOM     73   O  SGN C   4      28.156 117.143 115.5600  0.00  0.00     0.000 OA
ATOM     74   O  SGN C   4      27.380 119.418 115.2460  0.00  0.00     0.000 OA
ATOM     75   O  SGN C   4      25.826 117.614 115.0500  0.00  0.00     0.000 O
ENDBRANCH 62 70
ENDBRANCH 57 61
ENDBRANCH 41 57
ENDBRANCH 40 44
ENDBRANCH 20 40
ENDBRANCH 19 23
ENDBRANCH 1 19
TORSDOF 14
ENDMDL
MODEL 41
REMARK VINA RESULT:       0.1     88.661     93.755
ROOT
ATOM      1  C1  IDS C   1     101.013  44.157  10.1360  0.00  0.00     0.000 C
ATOM      2  C2  IDS C   1     100.405  43.925   8.7650  0.00  0.00     0.000 C
ATOM      3  C3  IDS C   1      98.897  44.138   8.7980  0.00  0.00     0.000 C
ATOM      4  C4  IDS C   1      98.543  45.482   9.4350  0.00  0.00     0.000 C
ATOM      5  C5  IDS C   1      99.287  45.651  10.7750  0.00  0.00     0.000 C
ATOM      6  O5  IDS C   1     100.688  45.469  10.5930  0.00  0.00     0.000 O
ATOM      7   O  IDS C   1      98.280  43.068   9.5160  0.00  0.00     0.000 O
ATOM      9  HD  IDS C   1      97.703  43.700   9.6450  0.00  0.00     0.000 HD
ATOM      9   O  IDS C   1      98.928  46.538   8.5400  0.00  0.00     0.000 O
ATOM     11  HD  IDS C   1      98.351  47.170   8.6700  0.00  0.00     0.000 HD
ENDROOT
BRANCH 2 11
ATOM     11   O  IDS C   1     100.973  44.880   7.7860  0.00  0.00     0.000 O
ATOM     12   S  IDS C   1     101.776  44.355   6.5090  0.00  0.00     0.000 S
ATOM     13   O  IDS C   1     101.424  45.332   5.5020  0.00  0.00     0.000 OA
ATOM     14   O  IDS C   1     101.333  43.022   6.1790  0.00  0.00     0.000 OA
ATOM     15   O  IDS C   1     103.162  44.411   6.9030  0.00  0.00     0.000 OA
ENDBRANCH 2 11
BRANCH 5 16
ATOM     16   C  IDS C   1      99.076  47.012  11.4110  0.00  0.00     0.000 C
ATOM     17   O  IDS C   1      98.082  47.644  11.1230  0.00  0.00     0.000 OA
ATOM     18   O  IDS C   1      99.883  47.466  12.1750  0.00  0.00     0.000 OA
ENDBRANCH 5 16
BRANCH 1 19
ATOM     19  O4  SGN C   2     100.940  43.186  11.0510  0.00  0.00     0.000 O
BRANCH 19 23
ATOM     20  C1  SGN C   2     102.959  41.228  14.1360  0.00  0.00     0.000 C
ATOM     21  C2  SGN C   2     102.417  42.627  14.4520  0.00  0.00     0.000 C
ATOM     22  C3  SGN C   2     101.362  43.017  13.4200  0.00  0.00     0.000 C
ATOM     23  C4  SGN C   2     101.960  42.940  12.0210  0.00  0.00     0.000 C
ATOM     24  C5  SGN C   2     102.564  41.552  11.7890  0.00  0.00     0.000 C
ATOM     25  O5  SGN C   2     103.512  41.252  12.8300  0.00  0.00     0.000 O
ATOM     26   O  SGN C   2     100.858  44.320  13.6900  0.00  0.00     0.000 O
ATOM     28  HD  SGN C   2     100.558  45.085  13.9620  0.00  0.00     0.000 HD
BRANCH 21 30
ATOM     28   N  SGN C   2     102.171  42.356  15.8750  0.00  0.00     0.000 N
ATOM     30  HD  SGN C   2     101.555  42.815  16.2750  0.00  0.00     0.000 HD
ATOM     30   S  SGN C   2     102.879  43.223  17.0190  0.00  0.00     0.000 S
ATOM     31   O  SGN C   2     102.574  44.578  16.7070  0.00  0.00     0.000 OA
ATOM     32   O  SGN C   2     102.515  42.687  18.2780  0.00  0.00     0.000 OA
ATOM     33   O  SGN C   2     104.407  42.936  16.8230  0.00  0.00     0.000 OA
ENDBRANCH 21 30
BRANCH 24 34
ATOM     34   C  SGN C   2     103.312  41.426  10.4830  0.00  0.00     0.000 C
ATOM     35   O  SGN C   2     102.562  40.579   9.5940  0.00  0.00     0.000 O
ATOM     36   S  SGN C   2     103.355  39.929   8.3710  0.00  0.00     0.000 S
ATOM     37   O  SGN C   2     104.487  39.257   8.9790  0.00  0.00     0.000 OA
ATOM     38   O  SGN C   2     102.423  39.026   7.7390  0.00  0.00     0.000 OA
ATOM     39   O  SGN C   2     103.717  41.059   7.5500  0.00  0.00     0.000 OA
ENDBRANCH 24 34
BRANCH 20 40
ATOM     40  O4  IDS C   3     102.115  40.204  14.2360  0.00  0.00     0.000 O
BRANCH 40 44
ATOM     41  C1  IDS C   3      99.947  37.514  14.9350  0.00  0.00     0.000 C
ATOM     42  C2  IDS C   3     100.274  38.570  15.9870  0.00  0.00     0.000 C
ATOM     43  C3  IDS C   3     101.785  38.735  16.1230  0.00  0.00     0.000 C
ATOM     44  C4  IDS C   3     102.455  38.922  14.7700  0.00  0.00     0.000 C
ATOM     45  C5  IDS C   3     101.994  37.815  13.7990  0.00  0.00     0.000 C
ATOM     46  O5  IDS C   3     100.569  37.836  13.6940  0.00  0.00     0.000 O
ATOM     47   O  IDS C   3     102.329  37.593  16.7800  0.00  0.00     0.000 O
ATOM     49  HD  IDS C   3     101.891  38.340  16.7760  0.00  0.00     0.000 HD
BRANCH 42 49
ATOM     49   O  IDS C   3      99.688  39.874  15.5990  0.00  0.00     0.000 O
ATOM     50   S  IDS C   3      98.777  40.678  16.6450  0.00  0.00     0.000 S
ATOM     51   O  IDS C   3      99.731  41.152  17.6230  0.00  0.00     0.000 OA
ATOM     52   O  IDS C   3      97.791  39.777  17.2180  0.00  0.00     0.000 OA
ATOM     53   O  IDS C   3      98.161  41.751  15.8930  0.00  0.00     0.000 OA
ENDBRANCH 42 49
BRANCH 45 54
ATOM     54   C  IDS C   3     102.588  37.951  12.4060  0.00  0.00     0.000 C
ATOM     55   O  IDS C   3     101.864  37.939  11.4440  0.00  0.00     0.000 OA
ATOM     56   O  IDS C   3     103.791  38.054  12.2660  0.00  0.00     0.000 OA
ENDBRANCH 45 54
BRANCH 41 57
ATOM     57  O4  SGN C   4     100.123  36.319  15.5120  0.00  0.00     0.000 O
BRANCH 57 61
ATOM     58  C1  SGN C   4      98.986  32.348  14.8310  0.00  0.00     0.000 C
ATOM     59  C2  SGN C   4      99.611  33.101  13.6450  0.00  0.00     0.000 C
ATOM     60  C3  SGN C   4     100.346  34.364  14.1160  0.00  0.00     0.000 C
ATOM     61  C4  SGN C   4      99.403  35.220  14.9450  0.00  0.00     0.000 C
ATOM     62  C5  SGN C   4      98.798  34.401  16.0850  0.00  0.00     0.000 C
ATOM     63  O5  SGN C   4      98.148  33.223  15.5730  0.00  0.00     0.000 O
BRANCH 59 66
ATOM     64   N  SGN C   4     100.386  32.077  12.9370  0.00  0.00     0.000 N
ATOM     66  HD  SGN C   4     100.085  32.831  13.2390  0.00  0.00     0.000 HD
ATOM     66   O  SGN C   4     101.052  30.818  10.9610  0.00  0.00     0.000 OA
ATOM     67   O  SGN C   4      98.689  31.401  11.3050  0.00  0.00     0.000 OA
ATOM     68   S  SGN C   4     100.183  31.873  11.3590  0.00  0.00     0.000 S
ATOM     69   O  SGN C   4     100.291  33.138  10.7270  0.00  0.00     0.000 OA
ENDBRANCH 59 66
BRANCH 62 70
ATOM     70   C  SGN C   4      97.758  35.189  16.8420  0.00  0.00     0.000 C
ATOM     71   S  SGN C   4      95.268  35.795  16.8890  0.00  0.00     0.000 S
ATOM     72   O  SGN C   4      95.248  35.541  18.3160  0.00  0.00     0.000 OA
ATOM     73   O  SGN C   4      95.607  37.164  16.5540  0.00  0.00     0.000 OA
ATOM     74   O  SGN C   4      94.101  35.298  16.1970  0.00  0.00     0.000 OA
ATOM     75   O  SGN C   4      96.452  34.894  16.3340  0.00  0.00     0.000 O
ENDBRANCH 62 70
ENDBRANCH 57 61
ENDBRANCH 41 57
ENDBRANCH 40 44
ENDBRANCH 20 40
ENDBRANCH 19 23
ENDBRANCH 1 19
TORSDOF 14
ENDMDL
MODEL 42
REMARK VINA RESULT:       0.1     26.058     31.359
ROOT
ATOM      1  C1  IDS C   1     100.166 115.575  40.5250  0.00  0.00     0.000 C
ATOM      2  C2  IDS C   1     100.622 116.541  41.6040  0.00  0.00     0.000 C
ATOM      3  C3  IDS C   1     100.819 117.938  41.0310  0.00  0.00     0.000 C
ATOM      4  C4  IDS C   1      99.588 118.392  40.2460  0.00  0.00     0.000 C
ATOM      5  C5  IDS C   1      99.159 117.298  39.2480  0.00  0.00     0.000 C
ATOM      6  O5  IDS C   1      98.967 116.058  39.9200  0.00  0.00     0.000 O
ATOM      7   O  IDS C   1     101.978 117.951  40.1940  0.00  0.00     0.000 O
ATOM      9  HD  IDS C   1     101.517 118.593  39.8390  0.00  0.00     0.000 HD
ATOM      9   O  IDS C   1      98.515 118.645  41.1670  0.00  0.00     0.000 O
ATOM     11  HD  IDS C   1      98.055 119.286  40.8120  0.00  0.00     0.000 HD
ENDROOT
BRANCH 2 11
ATOM     11   O  IDS C   1      99.602 116.633  42.6720  0.00  0.00     0.000 O
ATOM     12   S  IDS C   1      99.959 116.228  44.1760  0.00  0.00     0.000 S
ATOM     13   O  IDS C   1      99.162 117.160  44.9420  0.00  0.00     0.000 OA
ATOM     14   O  IDS C   1     101.377 116.389  44.3910  0.00  0.00     0.000 OA
ATOM     15   O  IDS C   1      99.518 114.860  44.2980  0.00  0.00     0.000 OA
ENDBRANCH 2 11
BRANCH 5 16
ATOM     16   C  IDS C   1      97.873 117.628  38.5130  0.00  0.00     0.000 C
ATOM     17   O  IDS C   1      96.815 117.465  39.0830  0.00  0.00     0.000 OA
ATOM     18   O  IDS C   1      97.896 118.029  37.3820  0.00  0.00     0.000 OA
ENDBRANCH 5 16
BRANCH 1 19
ATOM     19  O4  SGN C   2     101.073 115.057  39.6920  0.00  0.00     0.000 O
BRANCH 19 23
ATOM     20  C1  SGN C   2     102.238 111.643  37.5920  0.00  0.00     0.000 C
ATOM     21  C2  SGN C   2     101.043 112.419  37.0270  0.00  0.00     0.000 C
ATOM     22  C3  SGN C   2     101.016 113.826  37.6180  0.00  0.00     0.000 C
ATOM     23  C4  SGN C   2     100.975 113.743  39.1390  0.00  0.00     0.000 C
ATOM     24  C5  SGN C   2     102.139 112.886  39.6450  0.00  0.00     0.000 C
ATOM     25  O5  SGN C   2     102.110 111.598  39.0040  0.00  0.00     0.000 O
ATOM     26   O  SGN C   2      99.903 114.557  37.1160  0.00  0.00     0.000 O
ATOM     28  HD  SGN C   2      99.246 114.951  36.7130  0.00  0.00     0.000 HD
BRANCH 21 30
ATOM     28   N  SGN C   2     101.271 111.453  35.9450  0.00  0.00     0.000 N
ATOM     30  HD  SGN C   2     101.664 111.734  35.2260  0.00  0.00     0.000 HD
ATOM     30   S  SGN C   2     100.235 111.302  34.7350  0.00  0.00     0.000 S
ATOM     31   O  SGN C   2     100.077 112.616  34.2090  0.00  0.00     0.000 OA
ATOM     32   O  SGN C   2     100.675 110.251  33.8950  0.00  0.00     0.000 OA
ATOM     33   O  SGN C   2      98.915 110.815  35.4250  0.00  0.00     0.000 OA
ENDBRANCH 21 30
BRANCH 24 34
ATOM     34   C  SGN C   2     102.098 112.624  41.1320  0.00  0.00     0.000 C
ATOM     35   O  SGN C   2     103.121 113.406  41.7730  0.00  0.00     0.000 O
ATOM     36   S  SGN C   2     103.575 112.949  43.2340  0.00  0.00     0.000 S
ATOM     37   O  SGN C   2     103.933 111.551  43.0880  0.00  0.00     0.000 OA
ATOM     38   O  SGN C   2     104.693 113.795  43.5760  0.00  0.00     0.000 OA
ATOM     39   O  SGN C   2     102.406 113.172  44.0480  0.00  0.00     0.000 OA
ENDBRANCH 24 34
BRANCH 20 40
ATOM     40  O4  IDS C   3     103.457 112.074  37.2770  0.00  0.00     0.000 O
BRANCH 40 44
ATOM     41  C1  IDS C   3     106.526 112.820  35.7100  0.00  0.00     0.000 C
ATOM     42  C2  IDS C   3     105.384 112.152  34.9500  0.00  0.00     0.000 C
ATOM     43  C3  IDS C   3     104.887 110.924  35.7090  0.00  0.00     0.000 C
ATOM     44  C4  IDS C   3     104.612 111.239  37.1710  0.00  0.00     0.000 C
ATOM     45  C5  IDS C   3     105.830 111.953  37.7930  0.00  0.00     0.000 C
ATOM     46  O5  IDS C   3     106.125 113.133  37.0420  0.00  0.00     0.000 O
ATOM     47   O  IDS C   3     105.857 109.883  35.6100  0.00  0.00     0.000 O
ATOM     49  HD  IDS C   3     105.224 110.376  35.2840  0.00  0.00     0.000 HD
BRANCH 42 49
ATOM     49   O  IDS C   3     104.255 113.098  34.7910  0.00  0.00     0.000 O
ATOM     50   S  IDS C   3     103.771 113.516  33.3220  0.00  0.00     0.000 S
ATOM     51   O  IDS C   3     103.121 112.321  32.8330  0.00  0.00     0.000 OA
ATOM     52   O  IDS C   3     104.924 113.892  32.5220  0.00  0.00     0.000 OA
ATOM     53   O  IDS C   3     102.853 114.621  33.5050  0.00  0.00     0.000 OA
ENDBRANCH 42 49
BRANCH 45 54
ATOM     54   C  IDS C   3     105.623 112.341  39.2490  0.00  0.00     0.000 C
ATOM     55   O  IDS C   3     105.395 111.487  40.0670  0.00  0.00     0.000 OA
ATOM     56   O  IDS C   3     105.670 113.510  39.5780  0.00  0.00     0.000 OA
ENDBRANCH 45 54
BRANCH 41 57
ATOM     57  O4  SGN C   4     107.630 112.104  35.4670  0.00  0.00     0.000 O
BRANCH 57 61
ATOM     58  C1  SGN C   4     111.734 112.334  36.2600  0.00  0.00     0.000 C
ATOM     59  C2  SGN C   4     110.817 112.008  37.4510  0.00  0.00     0.000 C
ATOM     60  C3  SGN C   4     109.431 111.552  36.9740  0.00  0.00     0.000 C
ATOM     61  C4  SGN C   4     108.850 112.593  36.0320  0.00  0.00     0.000 C
ATOM     62  C5  SGN C   4     109.825 112.887  34.8920  0.00  0.00     0.000 C
ATOM     63  O5  SGN C   4     111.108 113.285  35.4120  0.00  0.00     0.000 O
BRANCH 59 66
ATOM     64   N  SGN C   4     111.606 111.081  38.2680  0.00  0.00     0.000 N
ATOM     66  HD  SGN C   4     110.954 111.522  37.9050  0.00  0.00     0.000 HD
ATOM     66   O  SGN C   4     112.606 110.312  40.3520  0.00  0.00     0.000 OA
ATOM     67   O  SGN C   4     112.608 112.708  39.8000  0.00  0.00     0.000 OA
ATOM     68   S  SGN C   4     111.799 111.365  39.8350  0.00  0.00     0.000 S
ATOM     69   O  SGN C   4     110.524 111.609  40.4060  0.00  0.00     0.000 OA
ENDBRANCH 59 66
BRANCH 62 70
ATOM     70   C  SGN C   4     109.331 114.012  34.0180  0.00  0.00     0.000 C
ATOM     71   S  SGN C   4     108.541 116.451  34.0540  0.00  0.00     0.000 S
ATOM     72   O  SGN C   4     109.379 116.724  32.9030  0.00  0.00     0.000 OA
ATOM     73   O  SGN C   4     107.206 116.011  33.7010  0.00  0.00     0.000 OA
ATOM     74   O  SGN C   4     108.565 117.499  35.0480  0.00  0.00     0.000 OA
ATOM     75   O  SGN C   4     109.238 115.222  34.7790  0.00  0.00     0.000 O
ENDBRANCH 62 70
ENDBRANCH 57 61
ENDBRANCH 41 57
ENDBRANCH 40 44
ENDBRANCH 20 40
ENDBRANCH 19 23
ENDBRANCH 1 19
TORSDOF 14
ENDMDL
MODEL 43
REMARK VINA RESULT:       0.1     89.829     94.685
ROOT
ATOM      1  C1  IDS C   1      20.324  91.424 109.8720  0.00  0.00     0.000 C
ATOM      2  C2  IDS C   1      21.817  91.151 109.8240  0.00  0.00     0.000 C
ATOM      3  C3  IDS C   1      22.411  91.625 108.5030  0.00  0.00     0.000 C
ATOM      4  C4  IDS C   1      22.015  93.072 108.2070  0.00  0.00     0.000 C
ATOM      5  C5  IDS C   1      20.493  93.254 108.3770  0.00  0.00     0.000 C
ATOM      6  O5  IDS C   1      20.080  92.814 109.6660  0.00  0.00     0.000 O
ATOM      7   O  IDS C   1      21.978  90.762 107.4500  0.00  0.00     0.000 O
ATOM      9  HD  IDS C   1      22.115  91.496 107.0100  0.00  0.00     0.000 HD
ATOM      9   O  IDS C   1      22.704  93.940 109.1200  0.00  0.00     0.000 O
ATOM     11  HD  IDS C   1      22.841  94.673 108.6800  0.00  0.00     0.000 HD
ENDROOT
BRANCH 2 11
ATOM     11   O  IDS C   1      22.505  91.881 110.9130  0.00  0.00     0.000 O
ATOM     12   S  IDS C   1      23.317  91.087 112.0370  0.00  0.00     0.000 S
ATOM     13   O  IDS C   1      24.411  91.990 112.3190  0.00  0.00     0.000 OA
ATOM     14   O  IDS C   1      23.756  89.819 111.5050  0.00  0.00     0.000 OA
ATOM     15   O  IDS C   1      22.388  90.953 113.1310  0.00  0.00     0.000 OA
ENDBRANCH 2 11
BRANCH 5 16
ATOM     16   C  IDS C   1      20.039  94.693 108.2120  0.00  0.00     0.000 C
ATOM     17   O  IDS C   1      20.193  95.464 109.1350  0.00  0.00     0.000 OA
ATOM     18   O  IDS C   1      19.523  95.062 107.1930  0.00  0.00     0.000 OA
ENDBRANCH 5 16
BRANCH 1 19
ATOM     19  O4  SGN C   2      19.491  90.586 109.2480  0.00  0.00     0.000 O
BRANCH 19 23
ATOM     20  C1  SGN C   2      15.784  88.675 109.4300  0.00  0.00     0.000 C
ATOM     21  C2  SGN C   2      15.769  90.167 109.0770  0.00  0.00     0.000 C
ATOM     22  C3  SGN C   2      17.160  90.605 108.6270  0.00  0.00     0.000 C
ATOM     23  C4  SGN C   2      18.176  90.287 109.7190  0.00  0.00     0.000 C
ATOM     24  C5  SGN C   2      18.089  88.805 110.0930  0.00  0.00     0.000 C
ATOM     25  O5  SGN C   2      16.738  88.473 110.4600  0.00  0.00     0.000 O
ATOM     26   O  SGN C   2      17.168  91.993 108.3110  0.00  0.00     0.000 O
ATOM     28  HD  SGN C   2      17.071  92.820 108.0750  0.00  0.00     0.000 HD
BRANCH 21 30
ATOM     28   N  SGN C   2      14.361  89.822 108.8410  0.00  0.00     0.000 N
ATOM     30  HD  SGN C   2      14.098  89.731 108.0200  0.00  0.00     0.000 HD
ATOM     30   S  SGN C   2      13.266  90.953 108.5560  0.00  0.00     0.000 S
ATOM     31   O  SGN C   2      13.784  91.714 107.4700  0.00  0.00     0.000 OA
ATOM     32   O  SGN C   2      11.998  90.332 108.4430  0.00  0.00     0.000 OA
ATOM     33   O  SGN C   2      13.245  91.802 109.8730  0.00  0.00     0.000 OA
ENDBRANCH 21 30
BRANCH 24 34
ATOM     34   C  SGN C   2      18.956  88.425 111.2710  0.00  0.00     0.000 C
ATOM     35   O  SGN C   2      20.078  87.660 110.7970  0.00  0.00     0.000 O
ATOM     36   S  SGN C   2      20.851  86.766 111.8710  0.00  0.00     0.000 S
ATOM     37   O  SGN C   2      19.821  85.949 112.4810  0.00  0.00     0.000 OA
ATOM     38   O  SGN C   2      21.818  86.004 111.1180  0.00  0.00     0.000 OA
ATOM     39   O  SGN C   2      21.441  87.730 112.7670  0.00  0.00     0.000 OA
ENDBRANCH 24 34
BRANCH 20 40
ATOM     40  O4  IDS C   3      16.016  87.812 108.4430  0.00  0.00     0.000 O
BRANCH 40 44
ATOM     41  C1  IDS C   3      15.822  85.670 105.6500  0.00  0.00     0.000 C
ATOM     42  C2  IDS C   3      14.672  86.601 106.0230  0.00  0.00     0.000 C
ATOM     43  C3  IDS C   3      14.293  86.416 107.4900  0.00  0.00     0.000 C
ATOM     44  C4  IDS C   3      15.511  86.476 108.3980  0.00  0.00     0.000 C
ATOM     45  C5  IDS C   3      16.606  85.523 107.8720  0.00  0.00     0.000 C
ATOM     46  O5  IDS C   3      16.930  85.869 106.5240  0.00  0.00     0.000 O
ATOM     47   O  IDS C   3      13.627  85.166 107.6530  0.00  0.00     0.000 O
ATOM     49  HD  IDS C   3      13.655  85.993 107.3970  0.00  0.00     0.000 HD
BRANCH 42 49
ATOM     49   O  IDS C   3      15.070  88.013 105.8110  0.00  0.00     0.000 O
ATOM     50   S  IDS C   3      14.252  88.920 104.7740  0.00  0.00     0.000 S
ATOM     51   O  IDS C   3      12.995  89.149 105.4500  0.00  0.00     0.000 OA
ATOM     52   O  IDS C   3      14.090  88.197 103.5230  0.00  0.00     0.000 OA
ATOM     53   O  IDS C   3      15.030  90.130 104.6060  0.00  0.00     0.000 OA
ENDBRANCH 42 49
BRANCH 45 54
ATOM     54   C  IDS C   3      17.879  85.551 108.7030  0.00  0.00     0.000 C
ATOM     55   O  IDS C   3      18.920  85.872 108.1900  0.00  0.00     0.000 OA
ATOM     56   O  IDS C   3      17.845  85.234 109.8760  0.00  0.00     0.000 OA
ENDBRANCH 45 54
BRANCH 41 57
ATOM     57  O4  SGN C   4      15.296  84.454 105.4610  0.00  0.00     0.000 O
BRANCH 57 61
ATOM     58  C1  SGN C   4      16.558  80.671 104.1870  0.00  0.00     0.000 C
ATOM     59  C2  SGN C   4      17.067  81.144 105.5590  0.00  0.00     0.000 C
ATOM     60  C3  SGN C   4      16.232  82.319 106.0850  0.00  0.00     0.000 C
ATOM     61  C4  SGN C   4      16.195  83.423 105.0410  0.00  0.00     0.000 C
ATOM     62  C5  SGN C   4      15.709  82.876 103.7000  0.00  0.00     0.000 C
ATOM     63  O5  SGN C   4      16.521  81.763 103.2810  0.00  0.00     0.000 O
BRANCH 59 66
ATOM     64   N  SGN C   4      17.119  79.919 106.3640  0.00  0.00     0.000 N
ATOM     66  HD  SGN C   4      17.077  80.747 106.1100  0.00  0.00     0.000 HD
ATOM     66   O  SGN C   4      18.215  78.315 107.8330  0.00  0.00     0.000 OA
ATOM     67   O  SGN C   4      19.464  79.328 105.9740  0.00  0.00     0.000 OA
ATOM     68   S  SGN C   4      18.461  79.544 107.1600  0.00  0.00     0.000 S
ATOM     69   O  SGN C   4      18.869  80.678 107.9080  0.00  0.00     0.000 OA
ENDBRANCH 59 66
BRANCH 62 70
ATOM     70   C  SGN C   4      15.790  83.920 102.6140  0.00  0.00     0.000 C
ATOM     71   S  SGN C   4      17.379  85.564 101.4560  0.00  0.00     0.000 S
ATOM     72   O  SGN C   4      16.870  85.129 100.1700  0.00  0.00     0.000 OA
ATOM     73   O  SGN C   4      16.633  86.668 102.0250  0.00  0.00     0.000 OA
ATOM     74   O  SGN C   4      18.811  85.758 101.4740  0.00  0.00     0.000 OA
ATOM     75   O  SGN C   4      17.151  84.325 102.4220  0.00  0.00     0.000 O
ENDBRANCH 62 70
ENDBRANCH 57 61
ENDBRANCH 41 57
ENDBRANCH 40 44
ENDBRANCH 20 40
ENDBRANCH 19 23
ENDBRANCH 1 19
TORSDOF 14
ENDMDL
MODEL 44
REMARK VINA RESULT:       0.1     90.035     94.435
ROOT
ATOM      1  C1  IDS C   1      19.542  90.859 108.3450  0.00  0.00     0.000 C
ATOM      2  C2  IDS C   1      21.024  90.527 108.3510  0.00  0.00     0.000 C
ATOM      3  C3  IDS C   1      21.727  91.174 107.1640  0.00  0.00     0.000 C
ATOM      4  C4  IDS C   1      21.406  92.666 107.0780  0.00  0.00     0.000 C
ATOM      5  C5  IDS C   1      19.883  92.891 107.1770  0.00  0.00     0.000 C
ATOM      6  O5  IDS C   1      19.363  92.274 108.3490  0.00  0.00     0.000 O
ATOM      7   O  IDS C   1      21.339  90.509 105.9600  0.00  0.00     0.000 O
ATOM      9  HD  IDS C   1      21.533  91.295 105.6530  0.00  0.00     0.000 HD
ATOM      9   O  IDS C   1      22.058  93.347 108.1610  0.00  0.00     0.000 O
ATOM     11  HD  IDS C   1      22.253  94.133 107.8540  0.00  0.00     0.000 HD
ENDROOT
BRANCH 2 11
ATOM     11   O  IDS C   1      21.658  91.043 109.5850  0.00  0.00     0.000 O
ATOM     12   S  IDS C   1      22.359  90.046 110.6170  0.00  0.00     0.000 S
ATOM     13   O  IDS C   1      23.462  90.841 111.1100  0.00  0.00     0.000 OA
ATOM     14   O  IDS C   1      22.788  88.858 109.9190  0.00  0.00     0.000 OA
ATOM     15   O  IDS C   1      21.350  89.785 111.6130  0.00  0.00     0.000 OA
ENDBRANCH 2 11
BRANCH 5 16
ATOM     16   C  IDS C   1      19.495  94.358 107.2150  0.00  0.00     0.000 C
ATOM     17   O  IDS C   1      19.609  94.966 108.2580  0.00  0.00     0.000 OA
ATOM     18   O  IDS C   1      19.066  94.907 106.2370  0.00  0.00     0.000 OA
ENDBRANCH 5 16
BRANCH 1 19
ATOM     19  O4  SGN C   2      18.726  90.169 107.5420  0.00  0.00     0.000 O
BRANCH 19 23
ATOM     20  C1  SGN C   2      14.949  88.431 107.1760  0.00  0.00     0.000 C
ATOM     21  C2  SGN C   2      15.012  89.959 107.0670  0.00  0.00     0.000 C
ATOM     22  C3  SGN C   2      16.447  90.396 106.7840  0.00  0.00     0.000 C
ATOM     23  C4  SGN C   2      17.370  89.863 107.8740  0.00  0.00     0.000 C
ATOM     24  C5  SGN C   2      17.203  88.346 108.0000  0.00  0.00     0.000 C
ATOM     25  O5  SGN C   2      15.818  88.024 108.2210  0.00  0.00     0.000 O
ATOM     26   O  SGN C   2      16.528  91.814 106.6950  0.00  0.00     0.000 O
ATOM     28  HD  SGN C   2      16.478  92.672 106.5890  0.00  0.00     0.000 HD
BRANCH 21 30
ATOM     28   N  SGN C   2      13.613  89.721 106.6880  0.00  0.00     0.000 N
ATOM     30  HD  SGN C   2      13.406  89.773 105.8490  0.00  0.00     0.000 HD
ATOM     30   S  SGN C   2      12.583  90.933 106.5180  0.00  0.00     0.000 S
ATOM     31   O  SGN C   2      13.205  91.830 105.6030  0.00  0.00     0.000 OA
ATOM     32   O  SGN C   2      11.305  90.399 106.2260  0.00  0.00     0.000 OA
ATOM     33   O  SGN C   2      12.499  91.565 107.9490  0.00  0.00     0.000 OA
ENDBRANCH 21 30
BRANCH 24 34
ATOM     34   C  SGN C   2      17.970  87.745 109.1550  0.00  0.00     0.000 C
ATOM     35   O  SGN C   2      19.095  87.012 108.6380  0.00  0.00     0.000 O
ATOM     36   S  SGN C   2      19.756  85.925 109.6030  0.00  0.00     0.000 S
ATOM     37   O  SGN C   2      18.656  85.072 110.0060  0.00  0.00     0.000 OA
ATOM     38   O  SGN C   2      20.746  85.246 108.8020  0.00  0.00     0.000 OA
ATOM     39   O  SGN C   2      20.315  86.708 110.6780  0.00  0.00     0.000 OA
ENDBRANCH 24 34
BRANCH 20 40
ATOM     40  O4  IDS C   3      15.219  87.724 106.0820  0.00  0.00     0.000 O
BRANCH 40 44
ATOM     41  C1  IDS C   3      15.147  86.059 102.9750  0.00  0.00     0.000 C
ATOM     42  C2  IDS C   3      14.007  86.973 103.4170  0.00  0.00     0.000 C
ATOM     43  C3  IDS C   3      13.518  86.577 104.8090  0.00  0.00     0.000 C
ATOM     44  C4  IDS C   3      14.671  86.436 105.7910  0.00  0.00     0.000 C
ATOM     45  C5  IDS C   3      15.764  85.528 105.1910  0.00  0.00     0.000 C
ATOM     46  O5  IDS C   3      16.196  86.065 103.9390  0.00  0.00     0.000 O
ATOM     47   O  IDS C   3      12.798  85.350 104.7260  0.00  0.00     0.000 O
ATOM     49  HD  IDS C   3      12.874  86.204 104.6080  0.00  0.00     0.000 HD
BRANCH 42 49
ATOM     49   O  IDS C   3      14.470  88.379 103.4600  0.00  0.00     0.000 O
ATOM     50   S  IDS C   3      13.762  89.476 102.5310  0.00  0.00     0.000 S
ATOM     51   O  IDS C   3      12.468  89.655 103.1530  0.00  0.00     0.000 OA
ATOM     52   O  IDS C   3      13.663  88.967 101.1730  0.00  0.00     0.000 OA
ATOM     53   O  IDS C   3      14.592  90.659 102.6090  0.00  0.00     0.000 OA
ENDBRANCH 42 49
BRANCH 45 54
ATOM     54   C  IDS C   3      16.975  85.365 106.0960  0.00  0.00     0.000 C
ATOM     55   O  IDS C   3      18.061  85.713 105.7090  0.00  0.00     0.000 OA
ATOM     56   O  IDS C   3      16.847  84.869 107.1990  0.00  0.00     0.000 OA
ENDBRANCH 45 54
BRANCH 41 57
ATOM     57  O4  SGN C   4      14.591  84.913 102.5610  0.00  0.00     0.000 O
BRANCH 57 61
ATOM     58  C1  SGN C   4      15.804  81.322 100.7820  0.00  0.00     0.000 C
ATOM     59  C2  SGN C   4      16.231  81.550 102.2420  0.00  0.00     0.000 C
ATOM     60  C3  SGN C   4      15.403  82.666 102.8940  0.00  0.00     0.000 C
ATOM     61  C4  SGN C   4      15.480  83.920 102.0400  0.00  0.00     0.000 C
ATOM     62  C5  SGN C   4      15.072  83.615 100.6000  0.00  0.00     0.000 C
ATOM     63  O5  SGN C   4      15.871  82.544 100.0620  0.00  0.00     0.000 O
BRANCH 59 66
ATOM     64   N  SGN C   4      16.181  80.213 102.8420  0.00  0.00     0.000 N
ATOM     66  HD  SGN C   4      16.186  81.070 102.7220  0.00  0.00     0.000 HD
ATOM     66   O  SGN C   4      17.109  78.347 104.1030  0.00  0.00     0.000 OA
ATOM     67   O  SGN C   4      18.524  79.580 102.5160  0.00  0.00     0.000 OA
ATOM     68   S  SGN C   4      17.447  79.654 103.6530  0.00  0.00     0.000 S
ATOM     69   O  SGN C   4      17.842  80.636 104.5980  0.00  0.00     0.000 OA
ENDBRANCH 59 66
BRANCH 62 70
ATOM     70   C  SGN C   4      15.268  84.811  99.7020  0.00  0.00     0.000 C
ATOM     71   S  SGN C   4      16.994  86.540  98.9280  0.00  0.00     0.000 S
ATOM     72   O  SGN C   4      16.563  86.337  97.5590  0.00  0.00     0.000 OA
ATOM     73   O  SGN C   4      16.250  87.575  99.6170  0.00  0.00     0.000 OA
ATOM     74   O  SGN C   4      18.427  86.661  99.0700  0.00  0.00     0.000 OA
ATOM     75   O  SGN C   4      16.653  85.177  99.6670  0.00  0.00     0.000 O
ENDBRANCH 62 70
ENDBRANCH 57 61
ENDBRANCH 41 57
ENDBRANCH 40 44
ENDBRANCH 20 40
ENDBRANCH 19 23
ENDBRANCH 1 19
TORSDOF 14
ENDMDL
MODEL 45
REMARK VINA RESULT:       0.1     68.249     71.871
ROOT
ATOM      1  C1  IDS C   1      99.045  47.212  45.8890  0.00  0.00     0.000 C
ATOM      2  C2  IDS C   1      98.444  46.292  46.9360  0.00  0.00     0.000 C
ATOM      3  C3  IDS C   1      98.553  44.835  46.5030  0.00  0.00     0.000 C
ATOM      4  C4  IDS C   1      99.984  44.488  46.0920  0.00  0.00     0.000 C
ATOM      5  C5  IDS C   1     100.525  45.538  45.1010  0.00  0.00     0.000 C
ATOM      6  O5  IDS C   1     100.403  46.847  45.6470  0.00  0.00     0.000 O
ATOM      7   O  IDS C   1      97.650  44.590  45.4240  0.00  0.00     0.000 O
ATOM      9  HD  IDS C   1      98.253  43.989  45.2670  0.00  0.00     0.000 HD
ATOM      9   O  IDS C   1     100.814  44.466  47.2640  0.00  0.00     0.000 O
ATOM     11  HD  IDS C   1     101.417  43.865  47.1070  0.00  0.00     0.000 HD
ENDROOT
BRANCH 2 11
ATOM     11   O  IDS C   1      99.169  46.435  48.2190  0.00  0.00     0.000 O
ATOM     12   S  IDS C   1      98.409  46.939  49.5310  0.00  0.00     0.000 S
ATOM     13   O  IDS C   1      99.076  46.195  50.5760  0.00  0.00     0.000 OA
ATOM     14   O  IDS C   1      97.005  46.623  49.4220  0.00  0.00     0.000 OA
ATOM     15   O  IDS C   1      98.670  48.356  49.5790  0.00  0.00     0.000 OA
ENDBRANCH 2 11
BRANCH 5 16
ATOM     16   C  IDS C   1     101.982  45.324  44.7360  0.00  0.00     0.000 C
ATOM     17   O  IDS C   1     102.249  44.840  43.6560  0.00  0.00     0.000 OA
ATOM     18   O  IDS C   1     102.858  45.611  45.5040  0.00  0.00     0.000 OA
ENDBRANCH 5 16
BRANCH 1 19
ATOM     19  O4  SGN C   2      98.323  47.525  44.8090  0.00  0.00     0.000 O
BRANCH 19 23
ATOM     20  C1  SGN C   2      97.345  50.550  42.1030  0.00  0.00     0.000 C
ATOM     21  C2  SGN C   2      98.724  49.900  41.9350  0.00  0.00     0.000 C
ATOM     22  C3  SGN C   2      98.760  48.567  42.6780  0.00  0.00     0.000 C
ATOM     23  C4  SGN C   2      98.408  48.787  44.1440  0.00  0.00     0.000 C
ATOM     24  C5  SGN C   2      97.065  49.515  44.2530  0.00  0.00     0.000 C
ATOM     25  O5  SGN C   2      97.109  50.735  43.4890  0.00  0.00     0.000 O
ATOM     26   O  SGN C   2     100.038  47.957  42.5450  0.00  0.00     0.000 O
ATOM     28  HD  SGN C   2     100.816  47.624  42.3590  0.00  0.00     0.000 HD
BRANCH 21 30
ATOM     28   N  SGN C   2      98.667  50.726  40.7220  0.00  0.00     0.000 N
ATOM     30  HD  SGN C   2      98.503  50.330  39.9690  0.00  0.00     0.000 HD
ATOM     30   S  SGN C   2      99.951  50.915  39.7860  0.00  0.00     0.000 S
ATOM     31   O  SGN C   2     100.387  49.595  39.4740  0.00  0.00     0.000 OA
ATOM     32   O  SGN C   2      99.619  51.814  38.7440  0.00  0.00     0.000 OA
ATOM     33   O  SGN C   2     100.989  51.642  40.7070  0.00  0.00     0.000 OA
ENDBRANCH 21 30
BRANCH 24 34
ATOM     34   C  SGN C   2      96.701  49.910  45.6650  0.00  0.00     0.000 C
ATOM     35   O  SGN C   2      95.636  49.060  46.1280  0.00  0.00     0.000 O
ATOM     36   S  SGN C   2      94.783  49.580  47.3730  0.00  0.00     0.000 S
ATOM     37   O  SGN C   2      94.331  50.902  46.9840  0.00  0.00     0.000 OA
ATOM     38   O  SGN C   2      93.709  48.630  47.5320  0.00  0.00     0.000 OA
ATOM     39   O  SGN C   2      95.725  49.582  48.4650  0.00  0.00     0.000 OA
ENDBRANCH 24 34
BRANCH 20 40
ATOM     40  O4  IDS C   3      96.302  49.928  41.5600  0.00  0.00     0.000 O
BRANCH 40 44
ATOM     41  C1  IDS C   3      93.826  48.630  39.4120  0.00  0.00     0.000 C
ATOM     42  C2  IDS C   3      95.038  49.381  38.8700  0.00  0.00     0.000 C
ATOM     43  C3  IDS C   3      95.187  50.728  39.5740  0.00  0.00     0.000 C
ATOM     44  C4  IDS C   3      95.123  50.583  41.0860  0.00  0.00     0.000 C
ATOM     45  C5  IDS C   3      93.877  49.764  41.4830  0.00  0.00     0.000 C
ATOM     46  O5  IDS C   3      93.914  48.494  40.8280  0.00  0.00     0.000 O
ATOM     47   O  IDS C   3      94.162  51.611  39.1260  0.00  0.00     0.000 O
ATOM     49  HD  IDS C   3      94.908  51.184  39.0190  0.00  0.00     0.000 HD
BRANCH 42 49
ATOM     49   O  IDS C   3      96.270  48.590  39.0960  0.00  0.00     0.000 O
ATOM     50   S  IDS C   3      97.153  48.121  37.8440  0.00  0.00     0.000 S
ATOM     51   O  IDS C   3      97.765  49.350  37.3890  0.00  0.00     0.000 OA
ATOM     52   O  IDS C   3      96.288  47.523  36.8400  0.00  0.00     0.000 OA
ATOM     53   O  IDS C   3      98.114  47.173  38.3670  0.00  0.00     0.000 OA
ENDBRANCH 42 49
BRANCH 45 54
ATOM     54   C  IDS C   3      93.757  49.537  42.9810  0.00  0.00     0.000 C
ATOM     55   O  IDS C   3      93.748  48.415  43.4170  0.00  0.00     0.000 OA
ATOM     56   O  IDS C   3      93.653  50.488  43.7320  0.00  0.00     0.000 OA
ENDBRANCH 45 54
BRANCH 41 57
ATOM     57  O4  SGN C   4      92.744  49.163  38.8320  0.00  0.00     0.000 O
BRANCH 57 61
ATOM     58  C1  SGN C   4      88.617  48.469  38.6910  0.00  0.00     0.000 C
ATOM     59  C2  SGN C   4      89.184  48.998  40.0180  0.00  0.00     0.000 C
ATOM     60  C3  SGN C   4      90.587  49.591  39.8250  0.00  0.00     0.000 C
ATOM     61  C4  SGN C   4      91.483  48.565  39.1520  0.00  0.00     0.000 C
ATOM     62  C5  SGN C   4      90.845  48.063  37.8580  0.00  0.00     0.000 C
ATOM     63  O5  SGN C   4      89.525  47.545  38.1110  0.00  0.00     0.000 O
BRANCH 59 66
ATOM     64   N  SGN C   4      88.129  49.876  40.5340  0.00  0.00     0.000 N
ATOM     66  HD  SGN C   4      88.891  49.496  40.3770  0.00  0.00     0.000 HD
ATOM     66   O  SGN C   4      86.585  50.665  42.2450  0.00  0.00     0.000 OA
ATOM     67   O  SGN C   4      86.973  48.255  41.9610  0.00  0.00     0.000 OA
ATOM     68   S  SGN C   4      87.600  49.690  42.0380  0.00  0.00     0.000 S
ATOM     69   O  SGN C   4      88.722  49.657  42.9050  0.00  0.00     0.000 OA
ENDBRANCH 59 66
BRANCH 62 70
ATOM     70   C  SGN C   4      91.650  46.947  37.2390  0.00  0.00     0.000 C
ATOM     71   S  SGN C   4      92.682  44.649  37.7120  0.00  0.00     0.000 S
ATOM     72   O  SGN C   4      92.167  44.173  36.4440  0.00  0.00     0.000 OA
ATOM     73   O  SGN C   4      94.004  45.235  37.6120  0.00  0.00     0.000 OA
ATOM     74   O  SGN C   4      92.550  43.691  38.7860  0.00  0.00     0.000 OA
ATOM     75   O  SGN C   4      91.703  45.827  38.1300  0.00  0.00     0.000 O
ENDBRANCH 62 70
ENDBRANCH 57 61
ENDBRANCH 41 57
ENDBRANCH 40 44
ENDBRANCH 20 40
ENDBRANCH 19 23
ENDBRANCH 1 19
TORSDOF 14
ENDMDL
MODEL 46
REMARK VINA RESULT:       0.1     96.822    103.302
ROOT
ATOM      1  C1  IDS C   1      14.503  66.311  91.5810  0.00  0.00     0.000 C
ATOM      2  C2  IDS C   1      13.583  67.269  92.3150  0.00  0.00     0.000 C
ATOM      3  C3  IDS C   1      14.320  67.957  93.4580  0.00  0.00     0.000 C
ATOM      4  C4  IDS C   1      15.633  68.574  92.9770  0.00  0.00     0.000 C
ATOM      5  C5  IDS C   1      16.442  67.541  92.1660  0.00  0.00     0.000 C
ATOM      6  O5  IDS C   1      15.652  67.011  91.1060  0.00  0.00     0.000 O
ATOM      7   O  IDS C   1      14.564  67.013  94.5030  0.00  0.00     0.000 O
ATOM      9  HD  IDS C   1      15.216  67.568  94.6330  0.00  0.00     0.000 HD
ATOM      9   O  IDS C   1      15.339  69.708  92.1470  0.00  0.00     0.000 O
ATOM     11  HD  IDS C   1      15.991  70.262  92.2760  0.00  0.00     0.000 HD
ENDROOT
BRANCH 2 11
ATOM     11   O  IDS C   1      13.101  68.322  91.3930  0.00  0.00     0.000 O
ATOM     12   S  IDS C   1      11.566  68.377  90.9530  0.00  0.00     0.000 S
ATOM     13   O  IDS C   1      11.332  69.800  90.8360  0.00  0.00     0.000 OA
ATOM     14   O  IDS C   1      10.754  67.753  91.9690  0.00  0.00     0.000 OA
ATOM     15   O  IDS C   1      11.527  67.683  89.6890  0.00  0.00     0.000 OA
ENDBRANCH 2 11
BRANCH 5 16
ATOM     16   C  IDS C   1      17.707  68.116  91.5560  0.00  0.00     0.000 C
ATOM     17   O  IDS C   1      18.413  67.394  90.8840  0.00  0.00     0.000 OA
ATOM     18   O  IDS C   1      18.017  69.260  91.7460  0.00  0.00     0.000 OA
ENDBRANCH 5 16
BRANCH 1 19
ATOM     19  O4  SGN C   2      14.731  65.102  92.1030  0.00  0.00     0.000 O
BRANCH 19 23
ATOM     20  C1  SGN C   2      15.569  61.102  91.2520  0.00  0.00     0.000 C
ATOM     21  C2  SGN C   2      16.705  62.104  91.0160  0.00  0.00     0.000 C
ATOM     22  C3  SGN C   2      16.410  63.403  91.7620  0.00  0.00     0.000 C
ATOM     23  C4  SGN C   2      15.060  63.955  91.3180  0.00  0.00     0.000 C
ATOM     24  C5  SGN C   2      13.979  62.885  91.4930  0.00  0.00     0.000 C
ATOM     25  O5  SGN C   2      14.360  61.686  90.7960  0.00  0.00     0.000 O
ATOM     26   O  SGN C   2      17.447  64.352  91.5410  0.00  0.00     0.000 O
ATOM     28  HD  SGN C   2      18.149  64.842  91.4120  0.00  0.00     0.000 HD
BRANCH 21 30
ATOM     28   N  SGN C   2      17.413  60.836  90.7970  0.00  0.00     0.000 N
ATOM     30  HD  SGN C   2      17.917  60.537  91.4350  0.00  0.00     0.000 HD
ATOM     30   S  SGN C   2      18.917  60.809  90.2530  0.00  0.00     0.000 S
ATOM     31   O  SGN C   2      19.653  61.647  91.1390  0.00  0.00     0.000 OA
ATOM     32   O  SGN C   2      19.305  59.460  90.0710  0.00  0.00     0.000 OA
ATOM     33   O  SGN C   2      18.818  61.454  88.8290  0.00  0.00     0.000 OA
ENDBRANCH 21 30
BRANCH 24 34
ATOM     34   C  SGN C   2      12.631  63.288  90.9410  0.00  0.00     0.000 C
ATOM     35   O  SGN C   2      11.750  63.594  92.0370  0.00  0.00     0.000 O
ATOM     36   S  SGN C   2      10.183  63.580  91.7320  0.00  0.00     0.000 S
ATOM     37   O  SGN C   2       9.933  62.278  91.1450  0.00  0.00     0.000 OA
ATOM     38   O  SGN C   2       9.537  63.767  93.0090  0.00  0.00     0.000 OA
ATOM     39   O  SGN C   2       9.996  64.680  90.8180  0.00  0.00     0.000 OA
ENDBRANCH 24 34
BRANCH 20 40
ATOM     40  O4  IDS C   3      15.396  60.650  92.4920  0.00  0.00     0.000 O
BRANCH 40 44
ATOM     41  C1  IDS C   3      15.664  58.896  95.5380  0.00  0.00     0.000 C
ATOM     42  C2  IDS C   3      16.674  58.697  94.4120  0.00  0.00     0.000 C
ATOM     43  C3  IDS C   3      15.954  58.382  93.1030  0.00  0.00     0.000 C
ATOM     44  C4  IDS C   3      14.838  59.375  92.8210  0.00  0.00     0.000 C
ATOM     45  C5  IDS C   3      13.928  59.509  94.0600  0.00  0.00     0.000 C
ATOM     46  O5  IDS C   3      14.715  59.899  95.1880  0.00  0.00     0.000 O
ATOM     47   O  IDS C   3      15.425  57.060  93.1600  0.00  0.00     0.000 O
ATOM     49  HD  IDS C   3      16.079  57.622  93.0770  0.00  0.00     0.000 HD
BRANCH 42 49
ATOM     49   O  IDS C   3      17.478  59.927  94.2260  0.00  0.00     0.000 O
ATOM     50   S  IDS C   3      19.053  59.898  94.5180  0.00  0.00     0.000 S
ATOM     51   O  IDS C   3      19.582  59.125  93.4170  0.00  0.00     0.000 OA
ATOM     52   O  IDS C   3      19.294  59.269  95.8070  0.00  0.00     0.000 OA
ATOM     53   O  IDS C   3      19.488  61.278  94.4980  0.00  0.00     0.000 OA
ENDBRANCH 42 49
BRANCH 45 54
ATOM     54   C  IDS C   3      12.804  60.516  93.8760  0.00  0.00     0.000 C
ATOM     55   O  IDS C   3      11.972  60.333  93.0270  0.00  0.00     0.000 OA
ATOM     56   O  IDS C   3      12.760  61.510  94.5750  0.00  0.00     0.000 OA
ENDBRANCH 45 54
BRANCH 41 57
ATOM     57  O4  SGN C   4      15.274  57.678  95.9330  0.00  0.00     0.000 O
BRANCH 57 61
ATOM     58  C1  SGN C   4      13.252  55.949  99.1660  0.00  0.00     0.000 C
ATOM     59  C2  SGN C   4      12.521  57.074  98.4150  0.00  0.00     0.000 C
ATOM     60  C3  SGN C   4      13.160  57.331  97.0440  0.00  0.00     0.000 C
ATOM     61  C4  SGN C   4      14.647  57.589  97.2170  0.00  0.00     0.000 C
ATOM     62  C5  SGN C   4      15.302  56.448  97.9950  0.00  0.00     0.000 C
ATOM     63  O5  SGN C   4      14.637  56.248  99.2570  0.00  0.00     0.000 O
BRANCH 59 66
ATOM     64   N  SGN C   4      11.111  56.674  98.4590  0.00  0.00     0.000 N
ATOM     66  HD  SGN C   4      11.865  57.038  98.2390  0.00  0.00     0.000 HD
ATOM     66   O  SGN C   4       8.745  57.048  98.9020  0.00  0.00     0.000 OA
ATOM     67   O  SGN C   4      10.438  57.927 100.4530  0.00  0.00     0.000 OA
ATOM     68   S  SGN C   4      10.000  57.716  98.9620  0.00  0.00     0.000 S
ATOM     69   O  SGN C   4      10.175  58.933  98.2530  0.00  0.00     0.000 OA
ENDBRANCH 59 66
BRANCH 62 70
ATOM     70   C  SGN C   4      16.750  56.742  98.2970  0.00  0.00     0.000 C
ATOM     71   S  SGN C   4      18.318  57.786 100.0350  0.00  0.00     0.000 S
ATOM     72   O  SGN C   4      19.200  56.642  99.9060  0.00  0.00     0.000 OA
ATOM     73   O  SGN C   4      18.622  58.853  99.1030  0.00  0.00     0.000 OA
ATOM     74   O  SGN C   4      18.149  58.233 101.3990  0.00  0.00     0.000 OA
ATOM     75   O  SGN C   4      16.883  57.238  99.6340  0.00  0.00     0.000 O
ENDBRANCH 62 70
ENDBRANCH 57 61
ENDBRANCH 41 57
ENDBRANCH 40 44
ENDBRANCH 20 40
ENDBRANCH 19 23
ENDBRANCH 1 19
TORSDOF 14
ENDMDL
MODEL 47
REMARK VINA RESULT:       0.1     96.685    101.387
ROOT
ATOM      1  C1  IDS C   1      83.185  24.923  14.2930  0.00  0.00     0.000 C
ATOM      2  C2  IDS C   1      81.707  24.635  14.1000  0.00  0.00     0.000 C
ATOM      3  C3  IDS C   1      81.218  25.186  12.7660  0.00  0.00     0.000 C
ATOM      4  C4  IDS C   1      82.115  24.726  11.6160  0.00  0.00     0.000 C
ATOM      5  C5  IDS C   1      83.596  24.981  11.9600  0.00  0.00     0.000 C
ATOM      6  O5  IDS C   1      83.930  24.377  13.2050  0.00  0.00     0.000 O
ATOM      7   O  IDS C   1      81.176  26.613  12.8270  0.00  0.00     0.000 O
ATOM      9  HD  IDS C   1      81.293  26.492  11.9770  0.00  0.00     0.000 HD
ATOM      9   O  IDS C   1      81.912  23.321  11.4000  0.00  0.00     0.000 O
ATOM     11  HD  IDS C   1      82.028  23.200  10.5500  0.00  0.00     0.000 HD
ENDROOT
BRANCH 2 11
ATOM     11   O  IDS C   1      81.468  23.174  14.0970  0.00  0.00     0.000 O
ATOM     12   S  IDS C   1      80.653  22.481  15.2850  0.00  0.00     0.000 S
ATOM     13   O  IDS C   1      79.950  21.421  14.5960  0.00  0.00     0.000 OA
ATOM     14   O  IDS C   1      79.767  23.449  15.8850  0.00  0.00     0.000 OA
ATOM     15   O  IDS C   1      81.669  22.003  16.1900  0.00  0.00     0.000 OA
ENDBRANCH 2 11
BRANCH 5 16
ATOM     16   C  IDS C   1      84.556  24.444  10.9140  0.00  0.00     0.000 C
ATOM     17   O  IDS C   1      85.749  24.524  11.1190  0.00  0.00     0.000 OA
ATOM     18   O  IDS C   1      84.147  23.963   9.8930  0.00  0.00     0.000 OA
ENDBRANCH 5 16
BRANCH 1 19
ATOM     19  O4  SGN C   2      83.561  26.137  14.7060  0.00  0.00     0.000 O
BRANCH 19 23
ATOM     20  C1  SGN C   2      86.379  28.291  16.9070  0.00  0.00     0.000 C
ATOM     21  C2  SGN C   2      86.857  27.700  15.5760  0.00  0.00     0.000 C
ATOM     22  C3  SGN C   2      85.652  27.339  14.7100  0.00  0.00     0.000 C
ATOM     23  C4  SGN C   2      84.745  26.378  15.4690  0.00  0.00     0.000 C
ATOM     24  C5  SGN C   2      84.369  26.979  16.8250  0.00  0.00     0.000 C
ATOM     25  O5  SGN C   2      85.561  27.329  17.5520  0.00  0.00     0.000 O
ATOM     26   O  SGN C   2      86.077  26.773  13.4750  0.00  0.00     0.000 O
ATOM     28  HD  SGN C   2      86.419  26.504  12.7260  0.00  0.00     0.000 HD
BRANCH 21 30
ATOM     28   N  SGN C   2      87.867  28.763  15.5010  0.00  0.00     0.000 N
ATOM     30  HD  SGN C   2      88.019  29.124  14.7280  0.00  0.00     0.000 HD
ATOM     30   S  SGN C   2      89.384  28.440  15.1060  0.00  0.00     0.000 S
ATOM     31   O  SGN C   2      89.309  27.733  13.8720  0.00  0.00     0.000 OA
ATOM     32   O  SGN C   2      90.134  29.638  15.1900  0.00  0.00     0.000 OA
ATOM     33   O  SGN C   2      89.885  27.503  16.2570  0.00  0.00     0.000 OA
ENDBRANCH 21 30
BRANCH 24 34
ATOM     34   C  SGN C   2      83.590  26.036  17.7130  0.00  0.00     0.000 C
ATOM     35   O  SGN C   2      82.203  26.416  17.6950  0.00  0.00     0.000 O
ATOM     36   S  SGN C   2      81.290  25.885  18.8920  0.00  0.00     0.000 S
ATOM     37   O  SGN C   2      81.980  26.303  20.0960  0.00  0.00     0.000 OA
ATOM     38   O  SGN C   2      80.007  26.521  18.7150  0.00  0.00     0.000 OA
ATOM     39   O  SGN C   2      81.262  24.455  18.7000  0.00  0.00     0.000 OA
ENDBRANCH 24 34
BRANCH 20 40
ATOM     40  O4  IDS C   3      85.736  29.456  16.8670  0.00  0.00     0.000 O
BRANCH 40 44
ATOM     41  C1  IDS C   3      84.409  32.719  16.7340  0.00  0.00     0.000 C
ATOM     42  C2  IDS C   3      85.776  32.389  16.1420  0.00  0.00     0.000 C
ATOM     43  C3  IDS C   3      86.643  31.672  17.1740  0.00  0.00     0.000 C
ATOM     44  C4  IDS C   3      85.905  30.509  17.8190  0.00  0.00     0.000 C
ATOM     45  C5  IDS C   3      84.525  30.979  18.3250  0.00  0.00     0.000 C
ATOM     46  O5  IDS C   3      83.785  31.542  17.2400  0.00  0.00     0.000 O
ATOM     47   O  IDS C   3      87.054  32.601  18.1740  0.00  0.00     0.000 O
ATOM     49  HD  IDS C   3      87.097  32.260  17.3790  0.00  0.00     0.000 HD
BRANCH 42 49
ATOM     49   O  IDS C   3      85.621  31.509  14.9600  0.00  0.00     0.000 O
ATOM     50   S  IDS C   3      86.407  31.850  13.6070  0.00  0.00     0.000 S
ATOM     51   O  IDS C   3      87.781  31.536  13.9320  0.00  0.00     0.000 OA
ATOM     52   O  IDS C   3      86.219  33.254  13.2800  0.00  0.00     0.000 OA
ATOM     53   O  IDS C   3      85.854  30.977  12.5940  0.00  0.00     0.000 OA
ENDBRANCH 42 49
BRANCH 45 54
ATOM     54   C  IDS C   3      83.701  29.865  18.9510  0.00  0.00     0.000 C
ATOM     55   O  IDS C   3      82.597  29.631  18.5320  0.00  0.00     0.000 OA
ATOM     56   O  IDS C   3      84.153  29.226  19.8820  0.00  0.00     0.000 OA
ENDBRANCH 45 54
BRANCH 41 57
ATOM     57  O4  SGN C   4      84.566  33.806  17.5000  0.00  0.00     0.000 O
BRANCH 57 61
ATOM     58  C1  SGN C   4      82.117  36.806  19.0890  0.00  0.00     0.000 C
ATOM     59  C2  SGN C   4      81.554  35.375  19.1020  0.00  0.00     0.000 C
ATOM     60  C3  SGN C   4      82.667  34.340  18.8890  0.00  0.00     0.000 C
ATOM     61  C4  SGN C   4      83.436  34.675  17.6220  0.00  0.00     0.000 C
ATOM     62  C5  SGN C   4      83.939  36.117  17.6650  0.00  0.00     0.000 C
ATOM     63  O5  SGN C   4      82.847  37.028  17.8920  0.00  0.00     0.000 O
BRANCH 59 66
ATOM     64   N  SGN C   4      80.771  35.323  20.3400  0.00  0.00     0.000 N
ATOM     66  HD  SGN C   4      81.242  35.111  19.6450  0.00  0.00     0.000 HD
ATOM     66   O  SGN C   4      78.769  34.841  21.6420  0.00  0.00     0.000 OA
ATOM     67   O  SGN C   4      78.566  35.825  19.3980  0.00  0.00     0.000 OA
ATOM     68   S  SGN C   4      79.268  34.761  20.3110  0.00  0.00     0.000 S
ATOM     69   O  SGN C   4      79.272  33.510  19.6430  0.00  0.00     0.000 OA
ENDBRANCH 59 66
BRANCH 62 70
ATOM     70   C  SGN C   4      84.589  36.517  16.3640  0.00  0.00     0.000 C
ATOM     71   S  SGN C   4      86.759  37.420  15.3420  0.00  0.00     0.000 S
ATOM     72   O  SGN C   4      86.665  36.421  14.2950  0.00  0.00     0.000 OA
ATOM     73   O  SGN C   4      86.078  38.657  15.0180  0.00  0.00     0.000 OA
ATOM     74   O  SGN C   4      88.102  37.608  15.8410  0.00  0.00     0.000 OA
ATOM     75   O  SGN C   4      85.980  36.791  16.5730  0.00  0.00     0.000 O
ENDBRANCH 62 70
ENDBRANCH 57 61
ENDBRANCH 41 57
ENDBRANCH 40 44
ENDBRANCH 20 40
ENDBRANCH 19 23
ENDBRANCH 1 19
TORSDOF 14
ENDMDL
MODEL 48
REMARK VINA RESULT:       0.1    110.981    117.056
ROOT
ATOM      1  C1  IDS C   1      46.583   6.508  86.6400  0.00  0.00     0.000 C
ATOM      2  C2  IDS C   1      47.771   5.701  87.1340  0.00  0.00     0.000 C
ATOM      3  C3  IDS C   1      47.745   5.576  88.6520  0.00  0.00     0.000 C
ATOM      4  C4  IDS C   1      46.386   5.078  89.1430  0.00  0.00     0.000 C
ATOM      5  C5  IDS C   1      45.252   5.907  88.5060  0.00  0.00     0.000 C
ATOM      6  O5  IDS C   1      45.370   5.905  87.0870  0.00  0.00     0.000 O
ATOM      7   O  IDS C   1      48.056   6.841  89.2390  0.00  0.00     0.000 O
ATOM      9  HD  IDS C   1      47.576   6.487  89.8670  0.00  0.00     0.000 HD
ATOM      9   O  IDS C   1      46.233   3.699  88.7720  0.00  0.00     0.000 O
ATOM     11  HD  IDS C   1      45.753   3.345  89.4000  0.00  0.00     0.000 HD
ENDROOT
BRANCH 2 11
ATOM     11   O  IDS C   1      47.730   4.334  86.5700  0.00  0.00     0.000 O
ATOM     12   S  IDS C   1      48.823   3.860  85.5050  0.00  0.00     0.000 S
ATOM     13   O  IDS C   1      48.988   2.462  85.8370  0.00  0.00     0.000 OA
ATOM     14   O  IDS C   1      50.031   4.628  85.6850  0.00  0.00     0.000 OA
ATOM     15   O  IDS C   1      48.199   4.075  84.2230  0.00  0.00     0.000 OA
ENDBRANCH 2 11
BRANCH 5 16
ATOM     16   C  IDS C   1      43.866   5.397  88.8560  0.00  0.00     0.000 C
ATOM     17   O  IDS C   1      42.900   5.964  88.3920  0.00  0.00     0.000 OA
ATOM     18   O  IDS C   1      43.724   4.459  89.5910  0.00  0.00     0.000 OA
ENDBRANCH 5 16
BRANCH 1 19
ATOM     19  O4  SGN C   2      46.632   7.842  86.7060  0.00  0.00     0.000 O
BRANCH 19 23
ATOM     20  C1  SGN C   2      45.397  11.411  84.9290  0.00  0.00     0.000 C
ATOM     21  C2  SGN C   2      44.320  10.604  85.6650  0.00  0.00     0.000 C
ATOM     22  C3  SGN C   2      44.981   9.598  86.6030  0.00  0.00     0.000 C
ATOM     23  C4  SGN C   2      45.925   8.701  85.8100  0.00  0.00     0.000 C
ATOM     24  C5  SGN C   2      46.922   9.559  85.0270  0.00  0.00     0.000 C
ATOM     25  O5  SGN C   2      46.213  10.505  84.2070  0.00  0.00     0.000 O
ATOM     26   O  SGN C   2      43.996   8.828  87.2830  0.00  0.00     0.000 O
ATOM     28  HD  SGN C   2      43.337   8.455  87.7020  0.00  0.00     0.000 HD
BRANCH 21 30
ATOM     28   N  SGN C   2      43.575  11.832  85.3560  0.00  0.00     0.000 N
ATOM     30  HD  SGN C   2      43.461  12.408  85.9920  0.00  0.00     0.000 HD
ATOM     30   S  SGN C   2      42.003  11.940  85.6350  0.00  0.00     0.000 S
ATOM     31   O  SGN C   2      41.839  11.586  87.0050  0.00  0.00     0.000 OA
ATOM     32   O  SGN C   2      41.551  13.199  85.1720  0.00  0.00     0.000 OA
ATOM     33   O  SGN C   2      41.375  10.854  84.6980  0.00  0.00     0.000 OA
ENDBRANCH 21 30
BRANCH 24 34
ATOM     34   C  SGN C   2      47.806   8.764  84.0950  0.00  0.00     0.000 C
ATOM     35   O  SGN C   2      49.127   8.683  84.6590  0.00  0.00     0.000 O
ATOM     36   S  SGN C   2      50.319   8.317  83.6620  0.00  0.00     0.000 S
ATOM     37   O  SGN C   2      50.215   9.287  82.5900  0.00  0.00     0.000 OA
ATOM     38   O  SGN C   2      51.529   8.447  84.4380  0.00  0.00     0.000 OA
ATOM     39   O  SGN C   2      50.031   6.963  83.2570  0.00  0.00     0.000 OA
ENDBRANCH 24 34
BRANCH 20 40
ATOM     40  O4  IDS C   3      46.170  12.212  85.6580  0.00  0.00     0.000 O
BRANCH 40 44
ATOM     41  C1  IDS C   3      47.449  14.907  87.5360  0.00  0.00     0.000 C
ATOM     42  C2  IDS C   3      46.005  14.892  87.0440  0.00  0.00     0.000 C
ATOM     43  C3  IDS C   3      45.958  14.614  85.5440  0.00  0.00     0.000 C
ATOM     44  C4  IDS C   3      46.796  13.401  85.1690  0.00  0.00     0.000 C
ATOM     45  C5  IDS C   3      48.209  13.532  85.7740  0.00  0.00     0.000 C
ATOM     46  O5  IDS C   3      48.109  13.692  87.1910  0.00  0.00     0.000 O
ATOM     47   O  IDS C   3      46.421  15.761  84.8350  0.00  0.00     0.000 O
ATOM     49  HD  IDS C   3      45.825  15.331  85.2930  0.00  0.00     0.000 HD
BRANCH 42 49
ATOM     49   O  IDS C   3      45.239  13.836  87.7460  0.00  0.00     0.000 O
ATOM     50   S  IDS C   3      44.040  14.244  88.7270  0.00  0.00     0.000 S
ATOM     51   O  IDS C   3      43.007  14.696  87.8210  0.00  0.00     0.000 OA
ATOM     52   O  IDS C   3      44.489  15.293  89.6280  0.00  0.00     0.000 OA
ATOM     53   O  IDS C   3      43.678  13.036  89.4370  0.00  0.00     0.000 OA
ENDBRANCH 42 49
BRANCH 45 54
ATOM     54   C  IDS C   3      49.103  12.338  85.4800  0.00  0.00     0.000 C
ATOM     55   O  IDS C   3      49.534  11.677  86.3890  0.00  0.00     0.000 OA
ATOM     56   O  IDS C   3      49.394  12.066  84.3310  0.00  0.00     0.000 OA
ENDBRANCH 45 54
BRANCH 41 57
ATOM     57  O4  SGN C   4      47.965  16.096  87.2020  0.00  0.00     0.000 O
BRANCH 57 61
ATOM     58  C1  SGN C   4      51.340  18.398  88.1200  0.00  0.00     0.000 C
ATOM     59  C2  SGN C   4      51.594  16.967  87.6170  0.00  0.00     0.000 C
ATOM     60  C3  SGN C   4      50.345  16.388  86.9380  0.00  0.00     0.000 C
ATOM     61  C4  SGN C   4      49.159  16.493  87.8820  0.00  0.00     0.000 C
ATOM     62  C5  SGN C   4      48.984  17.933  88.3640  0.00  0.00     0.000 C
ATOM     63  O5  SGN C   4      50.199  18.418  88.9660  0.00  0.00     0.000 O
BRANCH 59 66
ATOM     64   N  SGN C   4      52.820  17.077  86.8200  0.00  0.00     0.000 N
ATOM     66  HD  SGN C   4      52.066  16.811  87.1530  0.00  0.00     0.000 HD
ATOM     66   O  SGN C   4      55.086  16.436  86.1960  0.00  0.00     0.000 OA
ATOM     67   O  SGN C   4      54.441  16.510  88.5670  0.00  0.00     0.000 OA
ATOM     68   S  SGN C   4      54.050  16.088  87.1080  0.00  0.00     0.000 S
ATOM     69   O  SGN C   4      53.559  14.757  87.1290  0.00  0.00     0.000 OA
ENDBRANCH 59 66
BRANCH 62 70
ATOM     70   C  SGN C   4      47.898  18.041  89.4050  0.00  0.00     0.000 C
ATOM     71   S  SGN C   4      47.464  18.053  91.9310  0.00  0.00     0.000 S
ATOM     72   O  SGN C   4      46.583  19.192  91.7600  0.00  0.00     0.000 OA
ATOM     73   O  SGN C   4      46.786  16.779  91.8090  0.00  0.00     0.000 OA
ATOM     74   O  SGN C   4      48.315  18.151  93.0950  0.00  0.00     0.000 OA
ATOM     75   O  SGN C   4      48.477  18.138  90.7110  0.00  0.00     0.000 O
ENDBRANCH 62 70
ENDBRANCH 57 61
ENDBRANCH 41 57
ENDBRANCH 40 44
ENDBRANCH 20 40
ENDBRANCH 19 23
ENDBRANCH 1 19
TORSDOF 14
ENDMDL
MODEL 49
REMARK VINA RESULT:       0.1     69.019     74.481
ROOT
ATOM      1  C1  IDS C   1      96.249  40.701  48.0810  0.00  0.00     0.000 C
ATOM      2  C2  IDS C   1      96.868  41.584  47.0120  0.00  0.00     0.000 C
ATOM      3  C3  IDS C   1      97.974  42.451  47.6010  0.00  0.00     0.000 C
ATOM      4  C4  IDS C   1      98.974  41.609  48.3920  0.00  0.00     0.000 C
ATOM      5  C5  IDS C   1      98.231  40.685  49.3780  0.00  0.00     0.000 C
ATOM      6  O5  IDS C   1      97.260  39.902  48.6930  0.00  0.00     0.000 O
ATOM      7   O  IDS C   1      97.397  43.457  48.4350  0.00  0.00     0.000 O
ATOM      9  HD  IDS C   1      98.179  43.378  48.7980  0.00  0.00     0.000 HD
ATOM      9   O  IDS C   1      99.739  40.810  47.4760  0.00  0.00     0.000 O
ATOM     11  HD  IDS C   1     100.522  40.731  47.8390  0.00  0.00     0.000 HD
ENDROOT
BRANCH 2 11
ATOM     11   O  IDS C   1      97.470  40.751  45.9470  0.00  0.00     0.000 O
ATOM     12   S  IDS C   1      96.822  40.706  44.4860  0.00  0.00     0.000 S
ATOM     13   O  IDS C   1      97.986  40.567  43.6390  0.00  0.00     0.000 OA
ATOM     14   O  IDS C   1      96.094  41.928  44.2480  0.00  0.00     0.000 OA
ATOM     15   O  IDS C   1      95.979  39.536  44.4990  0.00  0.00     0.000 OA
ENDBRANCH 2 11
BRANCH 5 16
ATOM     16   C  IDS C   1      99.153  39.734  50.1200  0.00  0.00     0.000 C
ATOM     17   O  IDS C   1      98.669  38.934  50.8920  0.00  0.00     0.000 OA
ATOM     18   O  IDS C   1     100.342  39.779  49.9590  0.00  0.00     0.000 OA
ENDBRANCH 5 16
BRANCH 1 19
ATOM     19  O4  SGN C   2      95.339  41.224  48.9070  0.00  0.00     0.000 O
BRANCH 19 23
ATOM     20  C1  SGN C   2      91.932  40.446  51.1910  0.00  0.00     0.000 C
ATOM     21  C2  SGN C   2      93.251  39.861  51.7080  0.00  0.00     0.000 C
ATOM     22  C3  SGN C   2      94.427  40.572  51.0430  0.00  0.00     0.000 C
ATOM     23  C4  SGN C   2      94.306  40.456  49.5280  0.00  0.00     0.000 C
ATOM     24  C5  SGN C   2      92.938  40.974  49.0750  0.00  0.00     0.000 C
ATOM     25  O5  SGN C   2      91.895  40.280  49.7830  0.00  0.00     0.000 O
ATOM     26   O  SGN C   2      95.660  40.030  51.5000  0.00  0.00     0.000 O
ATOM     28  HD  SGN C   2      96.363  39.693  51.8790  0.00  0.00     0.000 HD
BRANCH 21 30
ATOM     28   N  SGN C   2      92.358  39.552  52.8330  0.00  0.00     0.000 N
ATOM     30  HD  SGN C   2      92.402  40.055  53.5360  0.00  0.00     0.000 HD
ATOM     30   S  SGN C   2      92.846  38.639  54.0520  0.00  0.00     0.000 S
ATOM     31   O  SGN C   2      94.048  39.244  54.5190  0.00  0.00     0.000 OA
ATOM     32   O  SGN C   2      91.758  38.453  54.9380  0.00  0.00     0.000 OA
ATOM     33   O  SGN C   2      93.142  37.249  53.3920  0.00  0.00     0.000 OA
ENDBRANCH 21 30
BRANCH 24 34
ATOM     34   C  SGN C   2      92.667  40.763  47.6030  0.00  0.00     0.000 C
ATOM     35   O  SGN C   2      92.725  42.033  46.9310  0.00  0.00     0.000 O
ATOM     36   S  SGN C   2      92.021  42.130  45.5010  0.00  0.00     0.000 S
ATOM     37   O  SGN C   2      90.666  41.664  45.7250  0.00  0.00     0.000 OA
ATOM     38   O  SGN C   2      92.095  43.521  45.1250  0.00  0.00     0.000 OA
ATOM     39   O  SGN C   2      92.809  41.258  44.6650  0.00  0.00     0.000 OA
ENDBRANCH 24 34
BRANCH 20 40
ATOM     40  O4  IDS C   3      91.663  41.715  51.4890  0.00  0.00     0.000 O
BRANCH 40 44
ATOM     41  C1  IDS C   3      90.687  44.692  53.1050  0.00  0.00     0.000 C
ATOM     42  C2  IDS C   3      90.706  43.355  53.8390  0.00  0.00     0.000 C
ATOM     43  C3  IDS C   3      89.923  42.306  53.0540  0.00  0.00     0.000 C
ATOM     44  C4  IDS C   3      90.347  42.263  51.5940  0.00  0.00     0.000 C
ATOM     45  C5  IDS C   3      90.327  43.687  50.9990  0.00  0.00     0.000 C
ATOM     46  O5  IDS C   3      91.173  44.539  51.7740  0.00  0.00     0.000 O
ATOM     47   O  IDS C   3      88.529  42.589  53.1460  0.00  0.00     0.000 O
ATOM     49  HD  IDS C   3      89.276  42.299  53.4730  0.00  0.00     0.000 HD
BRANCH 42 49
ATOM     49   O  IDS C   3      92.101  42.882  54.0010  0.00  0.00     0.000 O
ATOM     50   S  IDS C   3      92.733  42.762  55.4680  0.00  0.00     0.000 S
ATOM     51   O  IDS C   3      92.050  41.619  56.0320  0.00  0.00     0.000 OA
ATOM     52   O  IDS C   3      92.475  43.987  56.2070  0.00  0.00     0.000 OA
ATOM     53   O  IDS C   3      94.149  42.533  55.2730  0.00  0.00     0.000 OA
ENDBRANCH 42 49
BRANCH 45 54
ATOM     54   C  IDS C   3      90.778  43.740  49.5480  0.00  0.00     0.000 C
ATOM     55   O  IDS C   3      91.773  44.351  49.2540  0.00  0.00     0.000 OA
ATOM     56   O  IDS C   3      90.124  43.181  48.6890  0.00  0.00     0.000 OA
ENDBRANCH 45 54
BRANCH 41 57
ATOM     57  O4  SGN C   4      89.498  45.256  53.3490  0.00  0.00     0.000 O
BRANCH 57 61
ATOM     58  C1  SGN C   4      87.701  49.020  52.9780  0.00  0.00     0.000 C
ATOM     59  C2  SGN C   4      88.343  48.432  51.7100  0.00  0.00     0.000 C
ATOM     60  C3  SGN C   4      88.589  46.925  51.8610  0.00  0.00     0.000 C
ATOM     61  C4  SGN C   4      89.396  46.666  53.1220  0.00  0.00     0.000 C
ATOM     62  C5  SGN C   4      88.716  47.301  54.3340  0.00  0.00     0.000 C
ATOM     63  O5  SGN C   4      88.496  48.707  54.1120  0.00  0.00     0.000 O
BRANCH 59 66
ATOM     64   N  SGN C   4      87.468  48.886  50.6250  0.00  0.00     0.000 N
ATOM     66  HD  SGN C   4      88.041  48.445  51.1010  0.00  0.00     0.000 HD
ATOM     66   O  SGN C   4      87.019  49.940  48.4750  0.00  0.00     0.000 OA
ATOM     67   O  SGN C   4      88.697  50.908  49.9890  0.00  0.00     0.000 OA
ATOM     68   S  SGN C   4      88.100  49.611  49.3400  0.00  0.00     0.000 S
ATOM     69   O  SGN C   4      89.164  48.809  48.8520  0.00  0.00     0.000 OA
ENDBRANCH 59 66
BRANCH 62 70
ATOM     70   C  SGN C   4      89.564  47.175  55.5750  0.00  0.00     0.000 C
ATOM     71   S  SGN C   4      91.356  48.361  56.9730  0.00  0.00     0.000 S
ATOM     72   O  SGN C   4      90.611  48.039  58.1740  0.00  0.00     0.000 OA
ATOM     73   O  SGN C   4      92.310  47.337  56.5970  0.00  0.00     0.000 OA
ATOM     74   O  SGN C   4      91.905  49.698  56.9740  0.00  0.00     0.000 OA
ATOM     75   O  SGN C   4      90.265  48.400  55.8190  0.00  0.00     0.000 O
ENDBRANCH 62 70
ENDBRANCH 57 61
ENDBRANCH 41 57
ENDBRANCH 40 44
ENDBRANCH 20 40
ENDBRANCH 19 23
ENDBRANCH 1 19
TORSDOF 14
ENDMDL
MODEL 50
REMARK VINA RESULT:       0.1    110.980    115.494
ROOT
ATOM      1  C1  IDS C   1      11.679  46.801  97.1990  0.00  0.00     0.000 C
ATOM      2  C2  IDS C   1      11.560  48.033  98.0800  0.00  0.00     0.000 C
ATOM      3  C3  IDS C   1      10.291  47.975  98.9210  0.00  0.00     0.000 C
ATOM      4  C4  IDS C   1      10.183  46.645  99.6660  0.00  0.00     0.000 C
ATOM      5  C5  IDS C   1      10.412  45.469  98.6940  0.00  0.00     0.000 C
ATOM      6  O5  IDS C   1      11.649  45.626  98.0070  0.00  0.00     0.000 O
ATOM      7   O  IDS C   1       9.153  48.173  98.0810  0.00  0.00     0.000 O
ATOM      9  HD  IDS C   1       8.802  47.704  98.7190  0.00  0.00     0.000 HD
ATOM      9   O  IDS C   1      11.176  46.607 100.7020  0.00  0.00     0.000 O
ATOM     11  HD  IDS C   1      10.825  46.138 101.3400  0.00  0.00     0.000 HD
ENDROOT
BRANCH 2 11
ATOM     11   O  IDS C   1      12.712  48.111  99.0060  0.00  0.00     0.000 O
ATOM     12   S  IDS C   1      13.639  49.412  99.0440  0.00  0.00     0.000 S
ATOM     13   O  IDS C   1      14.000  49.491 100.4430  0.00  0.00     0.000 OA
ATOM     14   O  IDS C   1      12.880  50.554  98.5930  0.00  0.00     0.000 OA
ATOM     15   O  IDS C   1      14.749  49.092  98.1820  0.00  0.00     0.000 OA
ENDBRANCH 2 11
BRANCH 5 16
ATOM     16   C  IDS C   1      10.434  44.117  99.3830  0.00  0.00     0.000 C
ATOM     17   O  IDS C   1      10.830  43.152  98.7640  0.00  0.00     0.000 OA
ATOM     18   O  IDS C   1      10.051  43.997 100.5140  0.00  0.00     0.000 OA
ENDBRANCH 5 16
BRANCH 1 19
ATOM     19  O4  SGN C   2      10.980  46.747  96.0620  0.00  0.00     0.000 O
BRANCH 19 23
ATOM     20  C1  SGN C   2      11.075  45.672  92.0300  0.00  0.00     0.000 C
ATOM     21  C2  SGN C   2      11.002  44.524  93.0420  0.00  0.00     0.000 C
ATOM     22  C3  SGN C   2      10.541  45.058  94.3960  0.00  0.00     0.000 C
ATOM     23  C4  SGN C   2      11.481  46.167  94.8570  0.00  0.00     0.000 C
ATOM     24  C5  SGN C   2      11.585  47.243  93.7730  0.00  0.00     0.000 C
ATOM     25  O5  SGN C   2      11.981  46.644  92.5260  0.00  0.00     0.000 O
ATOM     26   O  SGN C   2      10.483  44.007  95.3530  0.00  0.00     0.000 O
ATOM     28  HD  SGN C   2      10.408  43.304  95.8530  0.00  0.00     0.000 HD
BRANCH 21 30
ATOM     28   N  SGN C   2      10.363  43.702  92.0060  0.00  0.00     0.000 N
ATOM     30  HD  SGN C   2       9.705  43.191  92.2420  0.00  0.00     0.000 HD
ATOM     30   S  SGN C   2      10.812  42.187  91.7550  0.00  0.00     0.000 S
ATOM     31   O  SGN C   2      10.719  41.552  93.0260  0.00  0.00     0.000 OA
ATOM     32   O  SGN C   2      10.081  41.678  90.6550  0.00  0.00     0.000 OA
ATOM     33   O  SGN C   2      12.306  42.303  91.2980  0.00  0.00     0.000 OA
ENDBRANCH 21 30
BRANCH 24 34
ATOM     34   C  SGN C   2      12.609  48.312  94.0770  0.00  0.00     0.000 C
ATOM     35   O  SGN C   2      11.927  49.515  94.4710  0.00  0.00     0.000 O
ATOM     36   S  SGN C   2      12.750  50.879  94.3800  0.00  0.00     0.000 S
ATOM     37   O  SGN C   2      13.241  50.923  93.0160  0.00  0.00     0.000 OA
ATOM     38   O  SGN C   2      11.804  51.926  94.6830  0.00  0.00     0.000 OA
ATOM     39   O  SGN C   2      13.787  50.728  95.3710  0.00  0.00     0.000 OA
ENDBRANCH 24 34
BRANCH 20 40
ATOM     40  O4  IDS C   3       9.935  46.269  91.6920  0.00  0.00     0.000 O
BRANCH 40 44
ATOM     41  C1  IDS C   3       6.835  47.481  90.5310  0.00  0.00     0.000 C
ATOM     42  C2  IDS C   3       7.180  45.996  90.4810  0.00  0.00     0.000 C
ATOM     43  C3  IDS C   3       8.526  45.786  89.7920  0.00  0.00     0.000 C
ATOM     44  C4  IDS C   3       9.601  46.694  90.3690  0.00  0.00     0.000 C
ATOM     45  C5  IDS C   3       9.095  48.152  90.4020  0.00  0.00     0.000 C
ATOM     46  O5  IDS C   3       7.883  48.218  91.1560  0.00  0.00     0.000 O
ATOM     47   O  IDS C   3       8.386  46.027  88.3940  0.00  0.00     0.000 O
ATOM     49  HD  IDS C   3       8.274  45.545  89.1050  0.00  0.00     0.000 HD
BRANCH 42 49
ATOM     49   O  IDS C   3       7.259  45.445  91.8540  0.00  0.00     0.000 O
ATOM     50   S  IDS C   3       6.481  44.091  92.2120  0.00  0.00     0.000 S
ATOM     51   O  IDS C   3       7.247  43.074  91.5260  0.00  0.00     0.000 OA
ATOM     52   O  IDS C   3       5.112  44.179  91.7290  0.00  0.00     0.000 OA
ATOM     53   O  IDS C   3       6.542  43.967  93.6530  0.00  0.00     0.000 OA
ENDBRANCH 42 49
BRANCH 45 54
ATOM     54   C  IDS C   3      10.098  49.124  91.0040  0.00  0.00     0.000 C
ATOM     55   O  IDS C   3      11.206  49.202  90.5390  0.00  0.00     0.000 OA
ATOM     56   O  IDS C   3       9.783  49.805  91.9600  0.00  0.00     0.000 OA
ENDBRANCH 45 54
BRANCH 41 57
ATOM     57  O4  SGN C   4       6.377  47.818  89.3180  0.00  0.00     0.000 O
BRANCH 57 61
ATOM     58  C1  SGN C   4       3.951  50.782  87.6290  0.00  0.00     0.000 C
ATOM     59  C2  SGN C   4       5.097  51.260  88.5360  0.00  0.00     0.000 C
ATOM     60  C3  SGN C   4       6.135  50.150  88.7500  0.00  0.00     0.000 C
ATOM     61  C4  SGN C   4       5.441  48.899  89.2630  0.00  0.00     0.000 C
ATOM     62  C5  SGN C   4       4.298  48.500  88.3310  0.00  0.00     0.000 C
ATOM     63  O5  SGN C   4       3.379  49.595  88.1570  0.00  0.00     0.000 O
BRANCH 59 66
ATOM     64   N  SGN C   4       5.525  52.518  87.9150  0.00  0.00     0.000 N
ATOM     66  HD  SGN C   4       5.503  51.778  88.3650  0.00  0.00     0.000 HD
ATOM     66   O  SGN C   4       6.116  54.881  87.9460  0.00  0.00     0.000 OA
ATOM     67   O  SGN C   4       4.238  54.068  89.3080  0.00  0.00     0.000 OA
ATOM     68   S  SGN C   4       5.708  53.832  88.8170  0.00  0.00     0.000 S
ATOM     69   O  SGN C   4       6.519  53.498  89.9330  0.00  0.00     0.000 OA
ENDBRANCH 59 66
BRANCH 62 70
ATOM     70   C  SGN C   4       3.509  47.340  88.8860  0.00  0.00     0.000 C
ATOM     71   S  SGN C   4       1.460  46.738  90.3030  0.00  0.00     0.000 S
ATOM     72   O  SGN C   4       1.090  45.740  89.3190  0.00  0.00     0.000 OA
ATOM     73   O  SGN C   4       2.339  46.227  91.3360  0.00  0.00     0.000 OA
ATOM     74   O  SGN C   4       0.336  47.490  90.8140  0.00  0.00     0.000 OA
ATOM     75   O  SGN C   4       2.301  47.814  89.4930  0.00  0.00     0.000 O
ENDBRANCH 62 70
ENDBRANCH 57 61
ENDBRANCH 41 57
ENDBRANCH 40 44
ENDBRANCH 20 40
ENDBRANCH 19 23
ENDBRANCH 1 19
TORSDOF 14
ENDMDL
MODEL 51
REMARK VINA RESULT:       0.1     35.986     39.090
ROOT
ATOM      1  C1  IDS C   1     101.175  83.482  42.8420  0.00  0.00     0.000 C
ATOM      2  C2  IDS C   1      99.819  83.098  42.2770  0.00  0.00     0.000 C
ATOM      3  C3  IDS C   1      99.968  82.454  40.9040  0.00  0.00     0.000 C
ATOM      4  C4  IDS C   1     100.993  81.320  40.9350  0.00  0.00     0.000 C
ATOM      5  C5  IDS C   1     102.294  81.795  41.6120  0.00  0.00     0.000 C
ATOM      6  O5  IDS C   1     102.017  82.333  42.9010  0.00  0.00     0.000 O
ATOM      7   O  IDS C   1     100.350  83.448  39.9510  0.00  0.00     0.000 O
ATOM      9  HD  IDS C   1     100.684  82.738  39.5850  0.00  0.00     0.000 HD
ATOM      9   O  IDS C   1     100.446  80.217  41.6740  0.00  0.00     0.000 O
ATOM     11  HD  IDS C   1     100.781  79.507  41.3070  0.00  0.00     0.000 HD
ENDROOT
BRANCH 2 11
ATOM     11   O  IDS C   1      99.155  82.116  43.1640  0.00  0.00     0.000 O
ATOM     12   S  IDS C   1      97.852  82.521  43.9950  0.00  0.00     0.000 S
ATOM     13   O  IDS C   1      97.097  81.287  44.0020  0.00  0.00     0.000 OA
ATOM     14   O  IDS C   1      97.168  83.596  43.3180  0.00  0.00     0.000 OA
ATOM     15   O  IDS C   1      98.352  82.895  45.2950  0.00  0.00     0.000 OA
ENDBRANCH 2 11
BRANCH 5 16
ATOM     16   C  IDS C   1     103.319  80.689  41.7830  0.00  0.00     0.000 C
ATOM     17   O  IDS C   1     104.376  80.949  42.3180  0.00  0.00     0.000 OA
ATOM     18   O  IDS C   1     103.100  79.579  41.3830  0.00  0.00     0.000 OA
ENDBRANCH 5 16
BRANCH 1 19
ATOM     19  O4  SGN C   2     101.755  84.611  42.4240  0.00  0.00     0.000 O
BRANCH 19 23
ATOM     20  C1  SGN C   2     104.278  87.764  43.4820  0.00  0.00     0.000 C
ATOM     21  C2  SGN C   2     104.940  86.396  43.2800  0.00  0.00     0.000 C
ATOM     22  C3  SGN C   2     104.004  85.481  42.4940  0.00  0.00     0.000 C
ATOM     23  C4  SGN C   2     102.669  85.368  43.2210  0.00  0.00     0.000 C
ATOM     24  C5  SGN C   2     102.095  86.764  43.4740  0.00  0.00     0.000 C
ATOM     25  O5  SGN C   2     103.059  87.568  44.1780  0.00  0.00     0.000 O
ATOM     26   O  SGN C   2     104.596  84.200  42.3110  0.00  0.00     0.000 O
ATOM     28  HD  SGN C   2     105.053  83.476  42.1850  0.00  0.00     0.000 HD
BRANCH 21 30
ATOM     28   N  SGN C   2     106.125  87.248  43.4450  0.00  0.00     0.000 N
ATOM     30  HD  SGN C   2     106.564  87.475  42.7340  0.00  0.00     0.000 HD
ATOM     30   S  SGN C   2     107.591  86.617  43.5590  0.00  0.00     0.000 S
ATOM     31   O  SGN C   2     107.731  85.781  42.4150  0.00  0.00     0.000 OA
ATOM     32   O  SGN C   2     108.515  87.666  43.7860  0.00  0.00     0.000 OA
ATOM     33   O  SGN C   2     107.536  85.763  44.8720  0.00  0.00     0.000 OA
ENDBRANCH 21 30
BRANCH 24 34
ATOM     34   C  SGN C   2     100.843  86.761  44.3200  0.00  0.00     0.000 C
ATOM     35   O  SGN C   2      99.709  87.033  43.4780  0.00  0.00     0.000 O
ATOM     36   S  SGN C   2      98.377  87.541  44.1960  0.00  0.00     0.000 S
ATOM     37   O  SGN C   2      98.794  88.688  44.9780  0.00  0.00     0.000 OA
ATOM     38   O  SGN C   2      97.463  87.875  43.1300  0.00  0.00     0.000 OA
ATOM     39   O  SGN C   2      97.957  86.412  44.9900  0.00  0.00     0.000 OA
ENDBRANCH 24 34
BRANCH 20 40
ATOM     40  O4  IDS C   3     104.050  88.503  42.3990  0.00  0.00     0.000 O
BRANCH 40 44
ATOM     41  C1  IDS C   3     104.389  90.657  39.6290  0.00  0.00     0.000 C
ATOM     42  C2  IDS C   3     105.595  90.236  40.4640  0.00  0.00     0.000 C
ATOM     43  C3  IDS C   3     105.332  90.498  41.9450  0.00  0.00     0.000 C
ATOM     44  C4  IDS C   3     103.992  89.931  42.3880  0.00  0.00     0.000 C
ATOM     45  C5  IDS C   3     102.880  90.400  41.4260  0.00  0.00     0.000 C
ATOM     46  O5  IDS C   3     103.208  90.007  40.0910  0.00  0.00     0.000 O
ATOM     47   O  IDS C   3     105.371  91.901  42.1920  0.00  0.00     0.000 O
ATOM     49  HD  IDS C   3     105.750  91.139  42.0300  0.00  0.00     0.000 HD
BRANCH 42 49
ATOM     49   O  IDS C   3     105.863  88.791  40.2790  0.00  0.00     0.000 O
ATOM     50   S  IDS C   3     107.219  88.321  39.5660  0.00  0.00     0.000 S
ATOM     51   O  IDS C   3     108.233  88.604  40.5580  0.00  0.00     0.000 OA
ATOM     52   O  IDS C   3     107.409  89.080  38.3410  0.00  0.00     0.000 OA
ATOM     53   O  IDS C   3     107.062  86.905  39.3090  0.00  0.00     0.000 OA
ENDBRANCH 42 49
BRANCH 45 54
ATOM     54   C  IDS C   3     101.508  89.844  41.7750  0.00  0.00     0.000 C
ATOM     55   O  IDS C   3     101.004  90.120  42.8320  0.00  0.00     0.000 OA
ATOM     56   O  IDS C   3     100.934  89.111  40.9940  0.00  0.00     0.000 OA
ENDBRANCH 45 54
BRANCH 41 57
ATOM     57  O4  SGN C   4     104.446  91.989  39.5030  0.00  0.00     0.000 O
BRANCH 57 61
ATOM     58  C1  SGN C   4     102.949  94.934  36.9320  0.00  0.00     0.000 C
ATOM     59  C2  SGN C   4     101.927  93.950  37.5260  0.00  0.00     0.000 C
ATOM     60  C3  SGN C   4     102.511  93.208  38.7360  0.00  0.00     0.000 C
ATOM     61  C4  SGN C   4     103.824  92.552  38.3440  0.00  0.00     0.000 C
ATOM     62  C5  SGN C   4     104.777  93.580  37.7360  0.00  0.00     0.000 C
ATOM     63  O5  SGN C   4     104.156  94.252  36.6250  0.00  0.00     0.000 O
BRANCH 59 66
ATOM     64   N  SGN C   4     100.723  94.762  37.7310  0.00  0.00     0.000 N
ATOM     66  HD  SGN C   4     101.327  94.143  37.7810  0.00  0.00     0.000 HD
ATOM     66   O  SGN C   4      98.347  95.246  37.4940  0.00  0.00     0.000 OA
ATOM     67   O  SGN C   4      99.597  94.283  35.6090  0.00  0.00     0.000 OA
ATOM     68   S  SGN C   4      99.314  94.259  37.1510  0.00  0.00     0.000 S
ATOM     69   O  SGN C   4      99.114  92.916  37.5620  0.00  0.00     0.000 OA
ENDBRANCH 59 66
BRANCH 62 70
ATOM     70   C  SGN C   4     106.035  92.930  37.2170  0.00  0.00     0.000 C
ATOM     71   S  SGN C   4     107.244  92.210  35.0740  0.00  0.00     0.000 S
ATOM     72   O  SGN C   4     108.471  92.785  35.5910  0.00  0.00     0.000 OA
ATOM     73   O  SGN C   4     107.058  90.823  35.4490  0.00  0.00     0.000 OA
ATOM     74   O  SGN C   4     107.033  92.468  33.6680  0.00  0.00     0.000 OA
ATOM     75   O  SGN C   4     106.083  93.025  35.7880  0.00  0.00     0.000 O
ENDBRANCH 62 70
ENDBRANCH 57 61
ENDBRANCH 41 57
ENDBRANCH 40 44
ENDBRANCH 20 40
ENDBRANCH 19 23
ENDBRANCH 1 19
TORSDOF 14
ENDMDL
MODEL 52
REMARK VINA RESULT:       0.1    102.322    105.768
ROOT
ATOM      1  C1  IDS C   1      79.748  24.439  12.1670  0.00  0.00     0.000 C
ATOM      2  C2  IDS C   1      78.472  24.128  11.4050  0.00  0.00     0.000 C
ATOM      3  C3  IDS C   1      78.769  23.272  10.1800  0.00  0.00     0.000 C
ATOM      4  C4  IDS C   1      79.607  22.049  10.5510  0.00  0.00     0.000 C
ATOM      5  C5  IDS C   1      80.823  22.472  11.4000  0.00  0.00     0.000 C
ATOM      6  O5  IDS C   1      80.402  23.225  12.5320  0.00  0.00     0.000 O
ATOM      7   O  IDS C   1      79.444  24.063   9.2000  0.00  0.00     0.000 O
ATOM      9  HD  IDS C   1      79.737  23.273   8.9980  0.00  0.00     0.000 HD
ATOM      9   O  IDS C   1      78.794  21.137  11.3050  0.00  0.00     0.000 O
ATOM     11  HD  IDS C   1      79.087  20.347  11.1030  0.00  0.00     0.000 HD
ENDROOT
BRANCH 2 11
ATOM     11   O  IDS C   1      77.536  23.371  12.2660  0.00  0.00     0.000 O
ATOM     12   S  IDS C   1      76.175  24.038  12.7720  0.00  0.00     0.000 S
ATOM     13   O  IDS C   1      75.269  22.911  12.7910  0.00  0.00     0.000 OA
ATOM     14   O  IDS C   1      75.774  25.069  11.8450  0.00  0.00     0.000 OA
ATOM     15   O  IDS C   1      76.487  24.546  14.0850  0.00  0.00     0.000 OA
ENDBRANCH 2 11
BRANCH 5 16
ATOM     16   C  IDS C   1      81.641  21.297  11.9040  0.00  0.00     0.000 C
ATOM     17   O  IDS C   1      82.614  21.516  12.5950  0.00  0.00     0.000 OA
ATOM     18   O  IDS C   1      81.344  20.171  11.6130  0.00  0.00     0.000 OA
ENDBRANCH 5 16
BRANCH 1 19
ATOM     19  O4  SGN C   2      80.542  25.421  11.7290  0.00  0.00     0.000 O
BRANCH 19 23
ATOM     20  C1  SGN C   2      83.250  28.396  12.8420  0.00  0.00     0.000 C
ATOM     21  C2  SGN C   2      83.743  26.948  12.9470  0.00  0.00     0.000 C
ATOM     22  C3  SGN C   2      82.842  26.036  12.1180  0.00  0.00     0.000 C
ATOM     23  C4  SGN C   2      81.398  26.182  12.5830  0.00  0.00     0.000 C
ATOM     24  C5  SGN C   2      80.985  27.656  12.5410  0.00  0.00     0.000 C
ATOM     25  O5  SGN C   2      81.912  28.444  13.3100  0.00  0.00     0.000 O
ATOM     26   O  SGN C   2      83.276  24.684  12.2170  0.00  0.00     0.000 O
ATOM     28  HD  SGN C   2      83.644  23.902  12.2740  0.00  0.00     0.000 HD
BRANCH 21 30
ATOM     28   N  SGN C   2      84.986  27.678  13.2270  0.00  0.00     0.000 N
ATOM     30  HD  SGN C   2      85.570  27.745  12.5900  0.00  0.00     0.000 HD
ATOM     30   S  SGN C   2      86.309  26.913  13.7000  0.00  0.00     0.000 S
ATOM     31   O  SGN C   2      86.531  25.903  12.7200  0.00  0.00     0.000 OA
ATOM     32   O  SGN C   2      87.314  27.874  13.9650  0.00  0.00     0.000 OA
ATOM     33   O  SGN C   2      85.909  26.277  15.0750  0.00  0.00     0.000 OA
ENDBRANCH 21 30
BRANCH 24 34
ATOM     34   C  SGN C   2      79.617  27.920  13.1240  0.00  0.00     0.000 C
ATOM     35   O  SGN C   2      78.696  28.186  12.0520  0.00  0.00     0.000 O
ATOM     36   S  SGN C   2      77.341  28.942  12.4310  0.00  0.00     0.000 S
ATOM     37   O  SGN C   2      77.768  30.139  13.1260  0.00  0.00     0.000 OA
ATOM     38   O  SGN C   2      76.682  29.211  11.1760  0.00  0.00     0.000 OA
ATOM     39   O  SGN C   2      76.638  27.999  13.2660  0.00  0.00     0.000 OA
ENDBRANCH 24 34
BRANCH 20 40
ATOM     40  O4  IDS C   3      83.319  28.985  11.6500  0.00  0.00     0.000 O
BRANCH 40 44
ATOM     41  C1  IDS C   3      84.429  30.647   8.7460  0.00  0.00     0.000 C
ATOM     42  C2  IDS C   3      85.400  30.224   9.8450  0.00  0.00     0.000 C
ATOM     43  C3  IDS C   3      84.921  30.733  11.2020  0.00  0.00     0.000 C
ATOM     44  C4  IDS C   3      83.460  30.393  11.4470  0.00  0.00     0.000 C
ATOM     45  C5  IDS C   3      82.608  30.832  10.2370  0.00  0.00     0.000 C
ATOM     46  O5  IDS C   3      83.107  30.209   9.0520  0.00  0.00     0.000 O
ATOM     47   O  IDS C   3      85.109  32.145  11.2710  0.00  0.00     0.000 O
ATOM     49  HD  IDS C   3      85.402  31.330  11.2830  0.00  0.00     0.000 HD
BRANCH 42 49
ATOM     49   O  IDS C   3      85.496  28.747   9.9000  0.00  0.00     0.000 O
ATOM     50   S  IDS C   3      86.878  28.027   9.5260  0.00  0.00     0.000 S
ATOM     51   O  IDS C   3      87.732  28.341  10.6500  0.00  0.00     0.000 OA
ATOM     52   O  IDS C   3      87.381  28.568   8.2740  0.00  0.00     0.000 OA
ATOM     53   O  IDS C   3      86.576  26.615   9.4260  0.00  0.00     0.000 OA
ENDBRANCH 42 49
BRANCH 45 54
ATOM     54   C  IDS C   3      81.133  30.491  10.3830  0.00  0.00     0.000 C
ATOM     55   O  IDS C   3      80.495  30.978  11.2810  0.00  0.00     0.000 OA
ATOM     56   O  IDS C   3      80.609  29.718   9.6060  0.00  0.00     0.000 OA
ENDBRANCH 45 54
BRANCH 41 57
ATOM     57  O4  SGN C   4      84.689  31.929   8.4660  0.00  0.00     0.000 O
BRANCH 57 61
ATOM     58  C1  SGN C   4      84.082  34.603   5.3020  0.00  0.00     0.000 C
ATOM     59  C2  SGN C   4      82.848  33.840   5.8080  0.00  0.00     0.000 C
ATOM     60  C3  SGN C   4      83.103  33.228   7.1920  0.00  0.00     0.000 C
ATOM     61  C4  SGN C   4      84.362  32.378   7.1470  0.00  0.00     0.000 C
ATOM     62  C5  SGN C   4      85.538  33.190   6.6080  0.00  0.00     0.000 C
ATOM     63  O5  SGN C   4      85.219  33.753   5.3210  0.00  0.00     0.000 O
BRANCH 59 66
ATOM     64   N  SGN C   4      81.749  34.802   5.6730  0.00  0.00     0.000 N
ATOM     66  HD  SGN C   4      82.244  34.135   5.9170  0.00  0.00     0.000 HD
ATOM     66   O  SGN C   4      79.541  35.507   4.9260  0.00  0.00     0.000 OA
ATOM     67   O  SGN C   4      80.956  34.139   3.4530  0.00  0.00     0.000 OA
ATOM     68   S  SGN C   4      80.407  34.378   4.9020  0.00  0.00     0.000 S
ATOM     69   O  SGN C   4      79.957  33.143   5.4350  0.00  0.00     0.000 OA
ENDBRANCH 59 66
BRANCH 62 70
ATOM     70   C  SGN C   4      86.766  32.333   6.4260  0.00  0.00     0.000 C
ATOM     71   S  SGN C   4      88.221  31.169   4.6650  0.00  0.00     0.000 S
ATOM     72   O  SGN C   4      89.405  31.675   5.3300  0.00  0.00     0.000 OA
ATOM     73   O  SGN C   4      87.783  29.884   5.1710  0.00  0.00     0.000 OA
ATOM     74   O  SGN C   4      88.295  31.234   3.2230  0.00  0.00     0.000 OA
ATOM     75   O  SGN C   4      87.076  32.206   5.0330  0.00  0.00     0.000 O
ENDBRANCH 62 70
ENDBRANCH 57 61
ENDBRANCH 41 57
ENDBRANCH 40 44
ENDBRANCH 20 40
ENDBRANCH 19 23
ENDBRANCH 1 19
TORSDOF 14
ENDMDL
MODEL 53
REMARK VINA RESULT:       0.1    125.139    129.122
ROOT
ATOM      1  C1  IDS C   1      27.732   9.464  83.7770  0.00  0.00     0.000 C
ATOM      2  C2  IDS C   1      28.399  10.825  83.8740  0.00  0.00     0.000 C
ATOM      3  C3  IDS C   1      27.663  11.850  83.0200  0.00  0.00     0.000 C
ATOM      4  C4  IDS C   1      26.165  11.850  83.3260  0.00  0.00     0.000 C
ATOM      5  C5  IDS C   1      25.614  10.410  83.2920  0.00  0.00     0.000 C
ATOM      6  O5  IDS C   1      26.363   9.569  84.1640  0.00  0.00     0.000 O
ATOM      7   O  IDS C   1      27.891  11.571  81.6380  0.00  0.00     0.000 O
ATOM      9  HD  IDS C   1      27.124  11.970  81.5950  0.00  0.00     0.000 HD
ATOM      9   O  IDS C   1      25.956  12.410  84.6310  0.00  0.00     0.000 O
ATOM     11  HD  IDS C   1      25.188  12.809  84.5890  0.00  0.00     0.000 HD
ENDROOT
BRANCH 2 11
ATOM     11   O  IDS C   1      28.377  11.306  85.2730  0.00  0.00     0.000 O
ATOM     12   S  IDS C   1      29.731  11.422  86.1150  0.00  0.00     0.000 S
ATOM     13   O  IDS C   1      29.481  12.584  86.9380  0.00  0.00     0.000 OA
ATOM     14   O  IDS C   1      30.842  11.600  85.2110  0.00  0.00     0.000 OA
ATOM     15   O  IDS C   1      29.799  10.192  86.8630  0.00  0.00     0.000 OA
ENDBRANCH 2 11
BRANCH 5 16
ATOM     16   C  IDS C   1      24.155  10.317  83.7000  0.00  0.00     0.000 C
ATOM     17   O  IDS C   1      23.623   9.227  83.7220  0.00  0.00     0.000 OA
ATOM     18   O  IDS C   1      23.530  11.302  83.9810  0.00  0.00     0.000 OA
ENDBRANCH 5 16
BRANCH 1 19
ATOM     19  O4  SGN C   2      27.981   8.693  82.7140  0.00  0.00     0.000 O
BRANCH 19 23
ATOM     20  C1  SGN C   2      28.338   4.771  81.3320  0.00  0.00     0.000 C
ATOM     21  C2  SGN C   2      26.921   5.254  81.6620  0.00  0.00     0.000 C
ATOM     22  C3  SGN C   2      26.897   6.779  81.7240  0.00  0.00     0.000 C
ATOM     23  C4  SGN C   2      27.919   7.267  82.7450  0.00  0.00     0.000 C
ATOM     24  C5  SGN C   2      29.297   6.686  82.4200  0.00  0.00     0.000 C
ATOM     25  O5  SGN C   2      29.215   5.251  82.3370  0.00  0.00     0.000 O
ATOM     26   O  SGN C   2      25.592   7.245  82.0450  0.00  0.00     0.000 O
ATOM     28  HD  SGN C   2      24.759   7.446  82.1750  0.00  0.00     0.000 HD
BRANCH 21 30
ATOM     28   N  SGN C   2      26.628   3.951  81.0510  0.00  0.00     0.000 N
ATOM     30  HD  SGN C   2      26.347   3.940  80.2320  0.00  0.00     0.000 HD
ATOM     30   S  SGN C   2      25.146   3.347  81.0550  0.00  0.00     0.000 S
ATOM     31   O  SGN C   2      24.325   4.362  80.4870  0.00  0.00     0.000 OA
ATOM     32   O  SGN C   2      25.184   2.059  80.4700  0.00  0.00     0.000 OA
ATOM     33   O  SGN C   2      24.820   3.151  82.5750  0.00  0.00     0.000 OA
ENDBRANCH 21 30
BRANCH 24 34
ATOM     34   C  SGN C   2      30.347   6.993  83.4620  0.00  0.00     0.000 C
ATOM     35   O  SGN C   2      31.240   7.996  82.9440  0.00  0.00     0.000 O
ATOM     36   S  SGN C   2      32.665   8.132  83.6500  0.00  0.00     0.000 S
ATOM     37   O  SGN C   2      33.225   6.795  83.6120  0.00  0.00     0.000 OA
ATOM     38   O  SGN C   2      33.402   9.086  82.8570  0.00  0.00     0.000 OA
ATOM     39   O  SGN C   2      32.352   8.598  84.9790  0.00  0.00     0.000 OA
ENDBRANCH 24 34
BRANCH 20 40
ATOM     40  O4  IDS C   3      28.832   5.082  80.1360  0.00  0.00     0.000 O
BRANCH 40 44
ATOM     41  C1  IDS C   3      29.586   5.164  76.6930  0.00  0.00     0.000 C
ATOM     42  C2  IDS C   3      28.540   4.207  77.2580  0.00  0.00     0.000 C
ATOM     43  C3  IDS C   3      29.124   3.409  78.4210  0.00  0.00     0.000 C
ATOM     44  C4  IDS C   3      29.810   4.310  79.4350  0.00  0.00     0.000 C
ATOM     45  C5  IDS C   3      30.799   5.252  78.7160  0.00  0.00     0.000 C
ATOM     46  O5  IDS C   3      30.103   6.005  77.7210  0.00  0.00     0.000 O
ATOM     47   O  IDS C   3      30.051   2.450  77.9180  0.00  0.00     0.000 O
ATOM     49  HD  IDS C   3      29.248   2.740  78.0570  0.00  0.00     0.000 HD
BRANCH 42 49
ATOM     49   O  IDS C   3      27.366   4.967  77.7470  0.00  0.00     0.000 O
ATOM     50   S  IDS C   3      25.949   4.792  77.0220  0.00  0.00     0.000 S
ATOM     51   O  IDS C   3      25.531   3.466  77.4230  0.00  0.00     0.000 OA
ATOM     52   O  IDS C   3      26.124   4.910  75.5840  0.00  0.00     0.000 OA
ATOM     53   O  IDS C   3      25.098   5.835  77.5540  0.00  0.00     0.000 OA
ENDBRANCH 42 49
BRANCH 45 54
ATOM     54   C  IDS C   3      31.502   6.219  79.6570  0.00  0.00     0.000 C
ATOM     55   O  IDS C   3      32.212   5.791  80.5300  0.00  0.00     0.000 OA
ATOM     56   O  IDS C   3      31.331   7.416  79.5350  0.00  0.00     0.000 OA
ENDBRANCH 45 54
BRANCH 41 57
ATOM     57  O4  SGN C   4      30.399   4.440  75.9140  0.00  0.00     0.000 O
BRANCH 57 61
ATOM     58  C1  SGN C   4      33.102   5.094  72.7840  0.00  0.00     0.000 C
ATOM     59  C2  SGN C   4      33.300   5.935  74.0560  0.00  0.00     0.000 C
ATOM     60  C3  SGN C   4      32.539   5.331  75.2440  0.00  0.00     0.000 C
ATOM     61  C4  SGN C   4      31.079   5.141  74.8680  0.00  0.00     0.000 C
ATOM     62  C5  SGN C   4      30.959   4.324  73.5830  0.00  0.00     0.000 C
ATOM     63  O5  SGN C   4      31.715   4.934  72.5200  0.00  0.00     0.000 O
BRANCH 59 66
ATOM     64   N  SGN C   4      34.755   6.076  74.1710  0.00  0.00     0.000 N
ATOM     66  HD  SGN C   4      33.907   6.040  74.3430  0.00  0.00     0.000 HD
ATOM     66   O  SGN C   4      36.814   7.352  74.4280  0.00  0.00     0.000 OA
ATOM     67   O  SGN C   4      35.007   8.213  73.0010  0.00  0.00     0.000 OA
ATOM     68   S  SGN C   4      35.404   7.532  74.3560  0.00  0.00     0.000 S
ATOM     69   O  SGN C   4      34.730   8.189  75.4180  0.00  0.00     0.000 OA
ENDBRANCH 59 66
BRANCH 62 70
ATOM     70   C  SGN C   4      29.528   4.234  73.1150  0.00  0.00     0.000 C
ATOM     71   S  SGN C   4      27.862   5.161  71.4000  0.00  0.00     0.000 S
ATOM     72   O  SGN C   4      27.402   3.812  71.1390  0.00  0.00     0.000 OA
ATOM     73   O  SGN C   4      27.141   5.816  72.4730  0.00  0.00     0.000 OA
ATOM     74   O  SGN C   4      27.993   5.968  70.2090  0.00  0.00     0.000 OA
ATOM     75   O  SGN C   4      29.357   4.988  71.9090  0.00  0.00     0.000 O
ENDBRANCH 62 70
ENDBRANCH 57 61
ENDBRANCH 41 57
ENDBRANCH 40 44
ENDBRANCH 20 40
ENDBRANCH 19 23
ENDBRANCH 1 19
TORSDOF 14
ENDMDL
MODEL 54
REMARK VINA RESULT:       0.1     94.090     98.316
ROOT
ATOM      1  C1  IDS C   1      89.449  42.271   4.5430  0.00  0.00     0.000 C
ATOM      2  C2  IDS C   1      90.610  42.378   3.5700  0.00  0.00     0.000 C
ATOM      3  C3  IDS C   1      90.462  41.367   2.4390  0.00  0.00     0.000 C
ATOM      4  C4  IDS C   1      89.078  41.455   1.7960  0.00  0.00     0.000 C
ATOM      5  C5  IDS C   1      87.983  41.432   2.8810  0.00  0.00     0.000 C
ATOM      6  O5  IDS C   1      88.217  42.452   3.8470  0.00  0.00     0.000 O
ATOM      7   O  IDS C   1      90.696  40.051   2.9450  0.00  0.00     0.000 O
ATOM      9  HD  IDS C   1      90.174  39.876   2.2760  0.00  0.00     0.000 HD
ATOM      9   O  IDS C   1      88.987  42.681   1.0530  0.00  0.00     0.000 O
ATOM     11  HD  IDS C   1      88.465  42.505   0.3850  0.00  0.00     0.000 HD
ENDROOT
BRANCH 2 11
ATOM     11   O  IDS C   1      90.645  43.728   2.9640  0.00  0.00     0.000 O
ATOM     12   S  IDS C   1      91.827  44.746   3.3110  0.00  0.00     0.000 S
ATOM     13   O  IDS C   1      92.001  45.452   2.0610  0.00  0.00     0.000 OA
ATOM     14   O  IDS C   1      92.999  44.001   3.7050  0.00  0.00     0.000 OA
ATOM     15   O  IDS C   1      91.296  45.570   4.3680  0.00  0.00     0.000 OA
ENDBRANCH 2 11
BRANCH 5 16
ATOM     16   C  IDS C   1      86.585  41.632   2.3270  0.00  0.00     0.000 C
ATOM     17   O  IDS C   1      85.647  41.645   3.0960  0.00  0.00     0.000 OA
ATOM     18   O  IDS C   1      86.403  41.760   1.1470  0.00  0.00     0.000 OA
ENDBRANCH 5 16
BRANCH 1 19
ATOM     19  O4  SGN C   2      89.463  41.304   5.4650  0.00  0.00     0.000 O
BRANCH 19 23
ATOM     20  C1  SGN C   2      88.292  40.230   9.3250  0.00  0.00     0.000 C
ATOM     21  C2  SGN C   2      87.180  40.324   8.2740  0.00  0.00     0.000 C
ATOM     22  C3  SGN C   2      87.789  40.289   6.8750  0.00  0.00     0.000 C
ATOM     23  C4  SGN C   2      88.808  41.414   6.7300  0.00  0.00     0.000 C
ATOM     24  C5  SGN C   2      89.843  41.324   7.8540  0.00  0.00     0.000 C
ATOM     25  O5  SGN C   2      89.179  41.320   9.1310  0.00  0.00     0.000 O
ATOM     26   O  SGN C   2      86.771  40.391   5.8850  0.00  0.00     0.000 O
ATOM     28  HD  SGN C   2      86.090  40.388   5.3500  0.00  0.00     0.000 HD
BRANCH 21 30
ATOM     28   N  SGN C   2      86.435  39.760   9.4070  0.00  0.00     0.000 N
ATOM     30  HD  SGN C   2      86.262  38.911   9.3960  0.00  0.00     0.000 HD
ATOM     30   S  SGN C   2      84.845  39.589   9.3510  0.00  0.00     0.000 S
ATOM     31   O  SGN C   2      84.587  38.848   8.1630  0.00  0.00     0.000 OA
ATOM     32   O  SGN C   2      84.402  39.096  10.6020  0.00  0.00     0.000 OA
ATOM     33   O  SGN C   2      84.310  41.056   9.2220  0.00  0.00     0.000 OA
ENDBRANCH 21 30
BRANCH 24 34
ATOM     34   C  SGN C   2      90.811  42.485   7.8820  0.00  0.00     0.000 C
ATOM     35   O  SGN C   2      92.089  42.039   7.3950  0.00  0.00     0.000 O
ATOM     36   S  SGN C   2      93.359  42.931   7.7690  0.00  0.00     0.000 S
ATOM     37   O  SGN C   2      93.309  43.056   9.2130  0.00  0.00     0.000 OA
ATOM     38   O  SGN C   2      94.505  42.195   7.2960  0.00  0.00     0.000 OA
ATOM     39   O  SGN C   2      93.132  44.171   7.0670  0.00  0.00     0.000 OA
ENDBRANCH 24 34
BRANCH 20 40
ATOM     40  O4  IDS C   3      88.992  39.100   9.3810  0.00  0.00     0.000 O
BRANCH 40 44
ATOM     41  C1  IDS C   3      90.067  35.802  10.0090  0.00  0.00     0.000 C
ATOM     42  C2  IDS C   3      88.664  36.270  10.3870  0.00  0.00     0.000 C
ATOM     43  C3  IDS C   3      88.736  37.550  11.2140  0.00  0.00     0.000 C
ATOM     44  C4  IDS C   3      89.626  38.595  10.5590  0.00  0.00     0.000 C
ATOM     45  C5  IDS C   3      90.987  37.969  10.1900  0.00  0.00     0.000 C
ATOM     46  O5  IDS C   3      90.777  36.840   9.3390  0.00  0.00     0.000 O
ATOM     47   O  IDS C   3      89.225  37.245  12.5180  0.00  0.00     0.000 O
ATOM     49  HD  IDS C   3      88.606  37.250  11.9120  0.00  0.00     0.000 HD
BRANCH 42 49
ATOM     49   O  IDS C   3      87.871  36.539   9.1650  0.00  0.00     0.000 O
ATOM     50   S  IDS C   3      86.594  35.631   8.8320  0.00  0.00     0.000 S
ATOM     51   O  IDS C   3      85.621  36.049   9.8170  0.00  0.00     0.000 OA
ATOM     52   O  IDS C   3      86.951  34.228   8.9610  0.00  0.00     0.000 OA
ATOM     53   O  IDS C   3      86.206  35.971   7.4790  0.00  0.00     0.000 OA
ENDBRANCH 42 49
BRANCH 45 54
ATOM     54   C  IDS C   3      91.927  38.939   9.4910  0.00  0.00     0.000 C
ATOM     55   O  IDS C   3      92.298  39.929  10.0670  0.00  0.00     0.000 OA
ATOM     56   O  IDS C   3      92.286  38.721   8.3500  0.00  0.00     0.000 OA
ENDBRANCH 45 54
BRANCH 41 57
ATOM     57  O4  SGN C   4      90.579  35.193  11.0860  0.00  0.00     0.000 O
BRANCH 57 61
ATOM     58  C1  SGN C   4      93.621  32.449  11.9510  0.00  0.00     0.000 C
ATOM     59  C2  SGN C   4      94.018  33.683  11.1240  0.00  0.00     0.000 C
ATOM     60  C3  SGN C   4      92.953  34.784  11.2250  0.00  0.00     0.000 C
ATOM     61  C4  SGN C   4      91.596  34.215  10.8470  0.00  0.00     0.000 C
ATOM     62  C5  SGN C   4      91.281  32.977  11.6860  0.00  0.00     0.000 C
ATOM     63  O5  SGN C   4      92.331  32.000  11.5620  0.00  0.00     0.000 O
BRANCH 59 66
ATOM     64   N  SGN C   4      95.377  33.997  11.5750  0.00  0.00     0.000 N
ATOM     66  HD  SGN C   4      94.579  34.048  11.2420  0.00  0.00     0.000 HD
ATOM     66   O  SGN C   4      97.741  34.469  11.2250  0.00  0.00     0.000 OA
ATOM     67   O  SGN C   4      96.621  32.747   9.8740  0.00  0.00     0.000 OA
ATOM     68   S  SGN C   4      96.551  34.184  10.4970  0.00  0.00     0.000 S
ATOM     69   O  SGN C   4      96.107  35.096   9.5060  0.00  0.00     0.000 OA
ENDBRANCH 59 66
BRANCH 62 70
ATOM     70   C  SGN C   4      90.002  32.315  11.2380  0.00  0.00     0.000 C
ATOM     71   S  SGN C   4      89.068  30.329   9.9150  0.00  0.00     0.000 S
ATOM     72   O  SGN C   4      88.117  30.084  10.9820  0.00  0.00     0.000 OA
ATOM     73   O  SGN C   4      88.576  31.246   8.9070  0.00  0.00     0.000 OA
ATOM     74   O  SGN C   4      89.649  29.123   9.3710  0.00  0.00     0.000 OA
ATOM     75   O  SGN C   4      90.290  31.055  10.6210  0.00  0.00     0.000 O
ENDBRANCH 62 70
ENDBRANCH 57 61
ENDBRANCH 41 57
ENDBRANCH 40 44
ENDBRANCH 20 40
ENDBRANCH 19 23
ENDBRANCH 1 19
TORSDOF 14
ENDMDL
MODEL 55
REMARK VINA RESULT:       0.1    110.409    114.662
ROOT
ATOM      1  C1  IDS C   1      11.240  45.988  93.9220  0.00  0.00     0.000 C
ATOM      2  C2  IDS C   1      11.063  47.188  94.8340  0.00  0.00     0.000 C
ATOM      3  C3  IDS C   1       9.665  47.205  95.4410  0.00  0.00     0.000 C
ATOM      4  C4  IDS C   1       9.325  45.859  96.0810  0.00  0.00     0.000 C
ATOM      5  C5  IDS C   1       9.632  44.709  95.1010  0.00  0.00     0.000 C
ATOM      6  O5  IDS C   1      10.979  44.787  94.6470  0.00  0.00     0.000 O
ATOM      7   O  IDS C   1       8.711  47.532  94.4290  0.00  0.00     0.000 O
ATOM      9  HD  IDS C   1       8.218  47.070  94.9700  0.00  0.00     0.000 HD
ATOM      9   O  IDS C   1      10.115  45.695  97.2700  0.00  0.00     0.000 O
ATOM     11  HD  IDS C   1       9.622  45.233  97.8110  0.00  0.00     0.000 HD
ENDROOT
BRANCH 2 11
ATOM     11   O  IDS C   1      12.036  47.131  95.9480  0.00  0.00     0.000 O
ATOM     12   S  IDS C   1      13.103  48.301  96.1580  0.00  0.00     0.000 S
ATOM     13   O  IDS C   1      13.222  48.353  97.5980  0.00  0.00     0.000 OA
ATOM     14   O  IDS C   1      12.589  49.524  95.5900  0.00  0.00     0.000 OA
ATOM     15   O  IDS C   1      14.295  47.827  95.5000  0.00  0.00     0.000 OA
ENDBRANCH 2 11
BRANCH 5 16
ATOM     16   C  IDS C   1       9.428  43.333  95.7090  0.00  0.00     0.000 C
ATOM     17   O  IDS C   1       8.676  43.216  96.6530  0.00  0.00     0.000 OA
ATOM     18   O  IDS C   1      10.010  42.377  95.2760  0.00  0.00     0.000 OA
ENDBRANCH 5 16
BRANCH 1 19
ATOM     19  O4  SGN C   2      10.750  46.039  92.6800  0.00  0.00     0.000 O
BRANCH 19 23
ATOM     20  C1  SGN C   2      11.416  45.007  88.6900  0.00  0.00     0.000 C
ATOM     21  C2  SGN C   2      11.000  43.870  89.6310  0.00  0.00     0.000 C
ATOM     22  C3  SGN C   2      10.384  44.451  90.9010  0.00  0.00     0.000 C
ATOM     23  C4  SGN C   2      11.372  45.406  91.5610  0.00  0.00     0.000 C
ATOM     24  C5  SGN C   2      11.821  46.468  90.5530  0.00  0.00     0.000 C
ATOM     25  O5  SGN C   2      12.345  45.831  89.3740  0.00  0.00     0.000 O
ATOM     26   O  SGN C   2      10.007  43.409  91.7940  0.00  0.00     0.000 O
ATOM     28  HD  SGN C   2       9.745  42.718  92.2460  0.00  0.00     0.000 HD
BRANCH 21 30
ATOM     28   N  SGN C   2      10.956  43.180  88.3350  0.00  0.00     0.000 N
ATOM     30  HD  SGN C   2      10.182  43.053  87.9690  0.00  0.00     0.000 HD
ATOM     30   S  SGN C   2      10.717  41.601  88.2450  0.00  0.00     0.000 S
ATOM     31   O  SGN C   2       9.523  41.358  88.9820  0.00  0.00     0.000 OA
ATOM     32   O  SGN C   2      10.800  41.211  86.8860  0.00  0.00     0.000 OA
ATOM     33   O  SGN C   2      11.958  40.985  88.9750  0.00  0.00     0.000 OA
ENDBRANCH 21 30
BRANCH 24 34
ATOM     34   C  SGN C   2      12.914  47.373  91.0720  0.00  0.00     0.000 C
ATOM     35   O  SGN C   2      12.356  48.670  91.3440  0.00  0.00     0.000 O
ATOM     36   S  SGN C   2      13.379  49.893  91.4410  0.00  0.00     0.000 S
ATOM     37   O  SGN C   2      14.131  49.844  90.2020  0.00  0.00     0.000 OA
ATOM     38   O  SGN C   2      12.561  51.075  91.5690  0.00  0.00     0.000 OA
ATOM     39   O  SGN C   2      14.163  49.599  92.6150  0.00  0.00     0.000 OA
ENDBRANCH 24 34
BRANCH 20 40
ATOM     40  O4  IDS C   3      10.450  45.767  88.1800  0.00  0.00     0.000 O
BRANCH 40 44
ATOM     41  C1  IDS C   3       7.795  47.035  86.2370  0.00  0.00     0.000 C
ATOM     42  C2  IDS C   3       8.319  45.615  86.0420  0.00  0.00     0.000 C
ATOM     43  C3  IDS C   3       9.834  45.630  85.8500  0.00  0.00     0.000 C
ATOM     44  C4  IDS C   3      10.530  46.449  86.9250  0.00  0.00     0.000 C
ATOM     45  C5  IDS C   3       9.864  47.836  87.0430  0.00  0.00     0.000 C
ATOM     46  O5  IDS C   3       8.471  47.674  87.3160  0.00  0.00     0.000 O
ATOM     47   O  IDS C   3      10.142  46.157  84.5620  0.00  0.00     0.000 O
ATOM     49  HD  IDS C   3       9.858  45.529  85.0860  0.00  0.00     0.000 HD
BRANCH 42 49
ATOM     49   O  IDS C   3       8.000  44.787  87.2290  0.00  0.00     0.000 O
ATOM     50   S  IDS C   3       6.992  43.551  87.0860  0.00  0.00     0.000 S
ATOM     51   O  IDS C   3       7.760  42.577  86.3430  0.00  0.00     0.000 OA
ATOM     52   O  IDS C   3       5.799  43.980  86.3750  0.00  0.00     0.000 OA
ATOM     53   O  IDS C   3       6.694  43.122  88.4370  0.00  0.00     0.000 OA
ENDBRANCH 42 49
BRANCH 45 54
ATOM     54   C  IDS C   3      10.477  48.708  88.1270  0.00  0.00     0.000 C
ATOM     55   O  IDS C   3      11.633  49.033  88.0490  0.00  0.00     0.000 OA
ATOM     56   O  IDS C   3       9.804  49.059  89.0770  0.00  0.00     0.000 OA
ENDBRANCH 45 54
BRANCH 41 57
ATOM     57  O4  SGN C   4       7.733  47.599  85.0250  0.00  0.00     0.000 O
BRANCH 57 61
ATOM     58  C1  SGN C   4       5.947  50.934  83.2310  0.00  0.00     0.000 C
ATOM     59  C2  SGN C   4       6.815  51.198  84.4720  0.00  0.00     0.000 C
ATOM     60  C3  SGN C   4       7.723  49.999  84.7800  0.00  0.00     0.000 C
ATOM     61  C4  SGN C   4       6.880  48.740  84.8900  0.00  0.00     0.000 C
ATOM     62  C5  SGN C   4       6.023  48.556  83.6380  0.00  0.00     0.000 C
ATOM     63  O5  SGN C   4       5.218  49.727  83.3980  0.00  0.00     0.000 O
BRANCH 59 66
ATOM     64   N  SGN C   4       7.450  52.491  84.1970  0.00  0.00     0.000 N
ATOM     66  HD  SGN C   4       7.268  51.705  84.5100  0.00  0.00     0.000 HD
ATOM     66   O  SGN C   4       8.062  54.785  84.7400  0.00  0.00     0.000 OA
ATOM     67   O  SGN C   4       5.830  53.940  85.3260  0.00  0.00     0.000 OA
ATOM     68   S  SGN C   4       7.373  53.666  85.2870  0.00  0.00     0.000 S
ATOM     69   O  SGN C   4       7.781  53.141  86.5400  0.00  0.00     0.000 OA
ENDBRANCH 59 66
BRANCH 62 70
ATOM     70   C  SGN C   4       5.079  47.389  83.7780  0.00  0.00     0.000 C
ATOM     71   S  SGN C   4       2.693  46.742  84.4560  0.00  0.00     0.000 S
ATOM     72   O  SGN C   4       2.601  45.904  83.2770  0.00  0.00     0.000 OA
ATOM     73   O  SGN C   4       3.222  46.049  85.6130  0.00  0.00     0.000 OA
ATOM     74   O  SGN C   4       1.488  47.493  84.7260  0.00  0.00     0.000 OA
ATOM     75   O  SGN C   4       3.759  47.857  84.0770  0.00  0.00     0.000 O
ENDBRANCH 62 70
ENDBRANCH 57 61
ENDBRANCH 41 57
ENDBRANCH 40 44
ENDBRANCH 20 40
ENDBRANCH 19 23
ENDBRANCH 1 19
TORSDOF 14
ENDMDL
MODEL 56
REMARK VINA RESULT:       0.1    101.168    105.298
ROOT
ATOM      1  C1  IDS C   1      10.702  64.853  96.6130  0.00  0.00     0.000 C
ATOM      2  C2  IDS C   1      10.548  66.035  97.5530  0.00  0.00     0.000 C
ATOM      3  C3  IDS C   1      11.703  67.015  97.3840  0.00  0.00     0.000 C
ATOM      4  C4  IDS C   1      11.900  67.388  95.9150  0.00  0.00     0.000 C
ATOM      5  C5  IDS C   1      11.948  66.117  95.0430  0.00  0.00     0.000 C
ATOM      6  O5  IDS C   1      10.793  65.315  95.2660  0.00  0.00     0.000 O
ATOM      7   O  IDS C   1      12.897  66.440  97.9180  0.00  0.00     0.000 O
ATOM      9  HD  IDS C   1      13.229  66.977  97.3260  0.00  0.00     0.000 HD
ATOM      9   O  IDS C   1      10.804  68.213  95.4920  0.00  0.00     0.000 O
ATOM     11  HD  IDS C   1      11.136  68.750  94.9000  0.00  0.00     0.000 HD
ENDROOT
BRANCH 2 11
ATOM     11   O  IDS C   1       9.294  66.763  97.2570  0.00  0.00     0.000 O
ATOM     12   S  IDS C   1       8.079  66.746  98.2940  0.00  0.00     0.000 S
ATOM     13   O  IDS C   1       7.516  68.068  98.1280  0.00  0.00     0.000 OA
ATOM     14   O  IDS C   1       8.588  66.513  99.6240  0.00  0.00     0.000 OA
ATOM     15   O  IDS C   1       7.215  65.691  97.8240  0.00  0.00     0.000 OA
ENDBRANCH 2 11
BRANCH 5 16
ATOM     16   C  IDS C   1      12.027  66.412  93.5560  0.00  0.00     0.000 C
ATOM     17   O  IDS C   1      12.055  65.483  92.7770  0.00  0.00     0.000 OA
ATOM     18   O  IDS C   1      12.077  67.542  93.1550  0.00  0.00     0.000 OA
ENDBRANCH 5 16
BRANCH 1 19
ATOM     19  O4  SGN C   2      11.534  63.862  96.9470  0.00  0.00     0.000 O
BRANCH 19 23
ATOM     20  C1  SGN C   2      12.278  59.765  96.6580  0.00  0.00     0.000 C
ATOM     21  C2  SGN C   2      12.478  60.589  95.3810  0.00  0.00     0.000 C
ATOM     22  C3  SGN C   2      12.599  62.068  95.7360  0.00  0.00     0.000 C
ATOM     23  C4  SGN C   2      11.365  62.512  96.5130  0.00  0.00     0.000 C
ATOM     24  C5  SGN C   2      11.161  61.603  97.7280  0.00  0.00     0.000 C
ATOM     25  O5  SGN C   2      11.104  60.228  97.3050  0.00  0.00     0.000 O
ATOM     26   O  SGN C   2      12.770  62.850  94.5590  0.00  0.00     0.000 O
ATOM     28  HD  SGN C   2      12.939  63.243  93.8060  0.00  0.00     0.000 HD
BRANCH 21 30
ATOM     28   N  SGN C   2      13.002  59.286  94.9480  0.00  0.00     0.000 N
ATOM     30  HD  SGN C   2      13.861  59.183  94.9190  0.00  0.00     0.000 HD
ATOM     30   S  SGN C   2      13.406  59.020  93.4230  0.00  0.00     0.000 S
ATOM     31   O  SGN C   2      14.317  60.062  93.0880  0.00  0.00     0.000 OA
ATOM     32   O  SGN C   2      13.801  57.666  93.2930  0.00  0.00     0.000 OA
ATOM     33   O  SGN C   2      12.060  59.182  92.6390  0.00  0.00     0.000 OA
ENDBRANCH 21 30
BRANCH 24 34
ATOM     34   C  SGN C   2       9.878  61.871  98.4780  0.00  0.00     0.000 C
ATOM     35   O  SGN C   2      10.190  62.545  99.7110  0.00  0.00     0.000 O
ATOM     36   S  SGN C   2       9.081  62.506 100.8590  0.00  0.00     0.000 S
ATOM     37   O  SGN C   2       8.785  61.098 101.0380  0.00  0.00     0.000 OA
ATOM     38   O  SGN C   2       9.697  63.114 102.0140  0.00  0.00     0.000 OA
ATOM     39   O  SGN C   2       7.987  63.270 100.3130  0.00  0.00     0.000 OA
ENDBRANCH 24 34
BRANCH 20 40
ATOM     40  O4  IDS C   3      13.278  59.736  97.5360  0.00  0.00     0.000 O
BRANCH 40 44
ATOM     41  C1  IDS C   3      16.282  59.006  99.2290  0.00  0.00     0.000 C
ATOM     42  C2  IDS C   3      15.976  58.414  97.8560  0.00  0.00     0.000 C
ATOM     43  C3  IDS C   3      14.604  57.745  97.8610  0.00  0.00     0.000 C
ATOM     44  C4  IDS C   3      13.534  58.658  98.4390  0.00  0.00     0.000 C
ATOM     45  C5  IDS C   3      14.001  59.219  99.7990  0.00  0.00     0.000 C
ATOM     46  O5  IDS C   3      15.247  59.899  99.6310  0.00  0.00     0.000 O
ATOM     47   O  IDS C   3      14.669  56.536  98.6140  0.00  0.00     0.000 O
ATOM     49  HD  IDS C   3      14.829  57.009  97.9060  0.00  0.00     0.000 HD
BRANCH 42 49
ATOM     49   O  IDS C   3      15.980  59.481  96.8290  0.00  0.00     0.000 O
ATOM     50   S  IDS C   3      17.101  59.476  95.6840  0.00  0.00     0.000 S
ATOM     51   O  IDS C   3      16.713  58.366  94.8420  0.00  0.00     0.000 OA
ATOM     52   O  IDS C   3      18.409  59.288  96.2900  0.00  0.00     0.000 OA
ATOM     53   O  IDS C   3      16.991  60.756  95.0160  0.00  0.00     0.000 OA
ENDBRANCH 42 49
BRANCH 45 54
ATOM     54   C  IDS C   3      13.003  60.176 100.4300  0.00  0.00     0.000 C
ATOM     55   O  IDS C   3      13.323  61.318 100.6410  0.00  0.00     0.000 OA
ATOM     56   O  IDS C   3      11.894  59.783 100.7360  0.00  0.00     0.000 OA
ENDBRANCH 45 54
BRANCH 41 57
ATOM     57  O4  SGN C   4      16.671  57.994 100.0140  0.00  0.00     0.000 O
BRANCH 57 61
ATOM     58  C1  SGN C   4      18.874  57.459 103.5340  0.00  0.00     0.000 C
ATOM     59  C2  SGN C   4      17.729  58.484 103.5840  0.00  0.00     0.000 C
ATOM     60  C3  SGN C   4      16.763  58.293 102.4070  0.00  0.00     0.000 C
ATOM     61  C4  SGN C   4      17.541  58.322 101.1020  0.00  0.00     0.000 C
ATOM     62  C5  SGN C   4      18.678  57.302 101.1340  0.00  0.00     0.000 C
ATOM     63  O5  SGN C   4      19.528  57.525 102.2750  0.00  0.00     0.000 O
BRANCH 59 66
ATOM     64   N  SGN C   4      17.191  58.357 104.9430  0.00  0.00     0.000 N
ATOM     66  HD  SGN C   4      17.285  58.524 104.0980  0.00  0.00     0.000 HD
ATOM     66   O  SGN C   4      16.486  59.230 107.1050  0.00  0.00     0.000 OA
ATOM     67   O  SGN C   4      18.502  60.124 106.0190  0.00  0.00     0.000 OA
ATOM     68   S  SGN C   4      17.012  59.664 105.8550  0.00  0.00     0.000 S
ATOM     69   O  SGN C   4      16.308  60.640 105.1050  0.00  0.00     0.000 OA
ENDBRANCH 59 66
BRANCH 62 70
ATOM     70   C  SGN C   4      19.548  57.403  99.9060  0.00  0.00     0.000 C
ATOM     71   S  SGN C   4      21.825  58.221  99.0590  0.00  0.00     0.000 S
ATOM     72   O  SGN C   4      21.989  56.973  98.3390  0.00  0.00     0.000 OA
ATOM     73   O  SGN C   4      21.155  59.246  98.2850  0.00  0.00     0.000 OA
ATOM     74   O  SGN C   4      23.032  58.676  99.7090  0.00  0.00     0.000 OA
ATOM     75   O  SGN C   4      20.854  57.868 100.2650  0.00  0.00     0.000 O
ENDBRANCH 62 70
ENDBRANCH 57 61
ENDBRANCH 41 57
ENDBRANCH 40 44
ENDBRANCH 20 40
ENDBRANCH 19 23
ENDBRANCH 1 19
TORSDOF 14
ENDMDL
MODEL 57
REMARK VINA RESULT:       0.1     33.987     37.640
ROOT
ATOM      1  C1  IDS C   1     100.226  86.737  39.9100  0.00  0.00     0.000 C
ATOM      2  C2  IDS C   1      98.962  86.636  39.0760  0.00  0.00     0.000 C
ATOM      3  C3  IDS C   1      99.300  86.480  37.5980  0.00  0.00     0.000 C
ATOM      4  C4  IDS C   1     100.303  85.347  37.3780  0.00  0.00     0.000 C
ATOM      5  C5  IDS C   1     101.498  85.499  38.3410  0.00  0.00     0.000 C
ATOM      6  O5  IDS C   1     101.045  85.590  39.6870  0.00  0.00     0.000 O
ATOM      7   O  IDS C   1      99.819  87.712  37.0950  0.00  0.00     0.000 O
ATOM      9  HD  IDS C   1     100.198  87.148  36.5580  0.00  0.00     0.000 HD
ATOM      9   O  IDS C   1      99.651  84.092  37.6230  0.00  0.00     0.000 O
ATOM     11  HD  IDS C   1     100.029  83.528  37.0860  0.00  0.00     0.000 HD
ENDROOT
BRANCH 2 11
ATOM     11   O  IDS C   1      98.174  85.452  39.4840  0.00  0.00     0.000 O
ATOM     12   S  IDS C   1      96.768  85.626  40.2240  0.00  0.00     0.000 S
ATOM     13   O  IDS C   1      96.013  84.503  39.7150  0.00  0.00     0.000 OA
ATOM     14   O  IDS C   1      96.194  86.900  39.8670  0.00  0.00     0.000 OA
ATOM     15   O  IDS C   1      97.082  85.518  41.6280  0.00  0.00     0.000 OA
ENDBRANCH 2 11
BRANCH 5 16
ATOM     16   C  IDS C   1     102.482  84.346  38.2610  0.00  0.00     0.000 C
ATOM     17   O  IDS C   1     103.454  84.355  38.9870  0.00  0.00     0.000 OA
ATOM     18   O  IDS C   1     102.315  83.447  37.4840  0.00  0.00     0.000 OA
ENDBRANCH 5 16
BRANCH 1 19
ATOM     19  O4  SGN C   2     100.867  87.908  39.9780  0.00  0.00     0.000 O
BRANCH 19 23
ATOM     20  C1  SGN C   2     103.234  90.389  42.3590  0.00  0.00     0.000 C
ATOM     21  C2  SGN C   2     103.909  89.132  41.7970  0.00  0.00     0.000 C
ATOM     22  C3  SGN C   2     103.089  88.583  40.6330  0.00  0.00     0.000 C
ATOM     23  C4  SGN C   2     101.663  88.306  41.0950  0.00  0.00     0.000 C
ATOM     24  C5  SGN C   2     101.067  89.567  41.7260  0.00  0.00     0.000 C
ATOM     25  O5  SGN C   2     101.926  90.038  42.7810  0.00  0.00     0.000 O
ATOM     26   O  SGN C   2     103.693  87.406  40.1080  0.00  0.00     0.000 O
ATOM     28  HD  SGN C   2     104.159  86.741  39.8070  0.00  0.00     0.000 HD
BRANCH 21 30
ATOM     28   N  SGN C   2     105.064  89.816  42.3940  0.00  0.00     0.000 N
ATOM     30  HD  SGN C   2     105.601  90.242  41.8650  0.00  0.00     0.000 HD
ATOM     30   S  SGN C   2     106.494  89.105  42.4820  0.00  0.00     0.000 S
ATOM     31   O  SGN C   2     106.791  88.689  41.1530  0.00  0.00     0.000 OA
ATOM     32   O  SGN C   2     107.383  89.968  43.1680  0.00  0.00     0.000 OA
ATOM     33   O  SGN C   2     106.247  87.868  43.4110  0.00  0.00     0.000 OA
ENDBRANCH 21 30
BRANCH 24 34
ATOM     34   C  SGN C   2      99.708  89.351  42.3490  0.00  0.00     0.000 C
ATOM     35   O  SGN C   2      98.708  89.951  41.5070  0.00  0.00     0.000 O
ATOM     36   S  SGN C   2      97.290  90.261  42.1730  0.00  0.00     0.000 S
ATOM     37   O  SGN C   2      97.600  91.056  43.3460  0.00  0.00     0.000 OA
ATOM     38   O  SGN C   2      96.540  90.982  41.1740  0.00  0.00     0.000 OA
ATOM     39   O  SGN C   2      96.754  88.957  42.4750  0.00  0.00     0.000 OA
ENDBRANCH 24 34
BRANCH 20 40
ATOM     40  O4  IDS C   3     103.167  91.457  41.5680  0.00  0.00     0.000 O
BRANCH 40 44
ATOM     41  C1  IDS C   3     103.917  94.388  39.7580  0.00  0.00     0.000 C
ATOM     42  C2  IDS C   3     104.986  93.648  40.5560  0.00  0.00     0.000 C
ATOM     43  C3  IDS C   3     104.513  93.416  41.9900  0.00  0.00     0.000 C
ATOM     44  C4  IDS C   3     103.120  92.808  42.0320  0.00  0.00     0.000 C
ATOM     45  C5  IDS C   3     102.162  93.630  41.1440  0.00  0.00     0.000 C
ATOM     46  O5  IDS C   3     102.677  93.687  39.8120  0.00  0.00     0.000 O
ATOM     47   O  IDS C   3     104.526  94.653  42.6980  0.00  0.00     0.000 O
ATOM     49  HD  IDS C   3     104.919  93.969  42.3410  0.00  0.00     0.000 HD
BRANCH 42 49
ATOM     49   O  IDS C   3     105.269  92.334  39.9330  0.00  0.00     0.000 O
ATOM     50   S  IDS C   3     106.709  92.057  39.2870  0.00  0.00     0.000 S
ATOM     51   O  IDS C   3     107.575  91.940  40.4390  0.00  0.00     0.000 OA
ATOM     52   O  IDS C   3     107.074  93.169  38.4250  0.00  0.00     0.000 OA
ATOM     53   O  IDS C   3     106.582  90.817  38.5500  0.00  0.00     0.000 OA
ENDBRANCH 42 49
BRANCH 45 54
ATOM     54   C  IDS C   3     100.750  93.066  41.0980  0.00  0.00     0.000 C
ATOM     55   O  IDS C   3     100.288  92.701  40.0480  0.00  0.00     0.000 OA
ATOM     56   O  IDS C   3     100.089  93.002  42.1160  0.00  0.00     0.000 OA
ENDBRANCH 45 54
BRANCH 41 57
ATOM     57  O4  SGN C   4     103.999  95.680  40.0980  0.00  0.00     0.000 O
BRANCH 57 61
ATOM     58  C1  SGN C   4     102.915  99.391  38.4900  0.00  0.00     0.000 C
ATOM     59  C2  SGN C   4     101.811  98.324  38.5720  0.00  0.00     0.000 C
ATOM     60  C3  SGN C   4     102.205  97.191  39.5290  0.00  0.00     0.000 C
ATOM     61  C4  SGN C   4     103.558  96.630  39.1220  0.00  0.00     0.000 C
ATOM     62  C5  SGN C   4     104.596  97.747  39.0330  0.00  0.00     0.000 C
ATOM     63  O5  SGN C   4     104.150  98.784  38.1390  0.00  0.00     0.000 O
BRANCH 59 66
ATOM     64   N  SGN C   4     100.595  99.086  38.8720  0.00  0.00     0.000 N
ATOM     66  HD  SGN C   4     101.181  98.454  38.7920  0.00  0.00     0.000 HD
ATOM     66   O  SGN C   4      98.283  99.752  38.4900  0.00  0.00     0.000 OA
ATOM     67   O  SGN C   4      99.791  99.403  36.5800  0.00  0.00     0.000 OA
ATOM     68   S  SGN C   4      99.284  98.884  37.9700  0.00  0.00     0.000 S
ATOM     69   O  SGN C   4      99.017  97.494  37.8730  0.00  0.00     0.000 OA
ENDBRANCH 59 66
BRANCH 62 70
ATOM     70   C  SGN C   4     105.913  97.238  38.5020  0.00  0.00     0.000 C
ATOM     71   S  SGN C   4     107.426  97.216  36.4320  0.00  0.00     0.000 S
ATOM     72   O  SGN C   4     108.565  97.509  37.2800  0.00  0.00     0.000 OA
ATOM     73   O  SGN C   4     107.175  95.797  36.2790  0.00  0.00     0.000 OA
ATOM     74   O  SGN C   4     107.431  97.945  35.1850  0.00  0.00     0.000 OA
ATOM     75   O  SGN C   4     106.177  97.808  37.2140  0.00  0.00     0.000 O
ENDBRANCH 62 70
ENDBRANCH 57 61
ENDBRANCH 41 57
ENDBRANCH 40 44
ENDBRANCH 20 40
ENDBRANCH 19 23
ENDBRANCH 1 19
TORSDOF 14
ENDMDL
MODEL 58
REMARK VINA RESULT:       0.1     27.387     33.151
ROOT
ATOM      1  C1  IDS C   1      91.411 115.426  40.5110  0.00  0.00     0.000 C
ATOM      2  C2  IDS C   1      92.399 115.665  41.6390  0.00  0.00     0.000 C
ATOM      3  C3  IDS C   1      93.308 116.845  41.3200  0.00  0.00     0.000 C
ATOM      4  C4  IDS C   1      92.495 118.074  40.9100  0.00  0.00     0.000 C
ATOM      5  C5  IDS C   1      91.463 117.694  39.8300  0.00  0.00     0.000 C
ATOM      6  O5  IDS C   1      90.653 116.611  40.2730  0.00  0.00     0.000 O
ATOM      7   O  IDS C   1      94.218 116.479  40.2800  0.00  0.00     0.000 O
ATOM      9  HD  IDS C   1      94.174 117.335  40.1600  0.00  0.00     0.000 HD
ATOM      9   O  IDS C   1      91.811 118.586  42.0640  0.00  0.00     0.000 O
ATOM     11  HD  IDS C   1      91.767 119.442  41.9440  0.00  0.00     0.000 HD
ENDROOT
BRANCH 2 11
ATOM     11   O  IDS C   1      91.677 115.980  42.8920  0.00  0.00     0.000 O
ATOM     12   S  IDS C   1      91.889 115.086  44.1990  0.00  0.00     0.000 S
ATOM     13   O  IDS C   1      91.776 116.063  45.2600  0.00  0.00     0.000 OA
ATOM     14   O  IDS C   1      93.188 114.459  44.1450  0.00  0.00     0.000 OA
ATOM     15   O  IDS C   1      90.801 114.140  44.1720  0.00  0.00     0.000 OA
ENDBRANCH 2 11
BRANCH 5 16
ATOM     16   C  IDS C   1      90.539 118.839  39.4550  0.00  0.00     0.000 C
ATOM     17   O  IDS C   1      90.915 119.977  39.6370  0.00  0.00     0.000 OA
ATOM     18   O  IDS C   1      89.449 118.626  39.0010  0.00  0.00     0.000 OA
ENDBRANCH 5 16
BRANCH 1 19
ATOM     19  O4  SGN C   2      91.816 114.763  39.4230  0.00  0.00     0.000 O
BRANCH 19 23
ATOM     20  C1  SGN C   2      90.768 111.907  36.5650  0.00  0.00     0.000 C
ATOM     21  C2  SGN C   2      90.116 113.288  36.4240  0.00  0.00     0.000 C
ATOM     22  C3  SGN C   2      90.902 114.314  37.2360  0.00  0.00     0.000 C
ATOM     23  C4  SGN C   2      90.980 113.866  38.6910  0.00  0.00     0.000 C
ATOM     24  C5  SGN C   2      91.555 112.449  38.7690  0.00  0.00     0.000 C
ATOM     25  O5  SGN C   2      90.781 111.562  37.9410  0.00  0.00     0.000 O
ATOM     26   O  SGN C   2      90.302 115.599  37.1290  0.00  0.00     0.000 O
ATOM     28  HD  SGN C   2      89.917 116.356  36.9570  0.00  0.00     0.000 HD
BRANCH 21 30
ATOM     28   N  SGN C   2      89.665 112.646  35.1820  0.00  0.00     0.000 N
ATOM     30  HD  SGN C   2      90.077 112.849  34.4480  0.00  0.00     0.000 HD
ATOM     30   S  SGN C   2      88.608 113.360  34.2160  0.00  0.00     0.000 S
ATOM     31   O  SGN C   2      89.155 114.646  33.9450  0.00  0.00     0.000 OA
ATOM     32   O  SGN C   2      88.309 112.479  33.1490  0.00  0.00     0.000 OA
ATOM     33   O  SGN C   2      87.313 113.477  35.0900  0.00  0.00     0.000 OA
ENDBRANCH 21 30
BRANCH 24 34
ATOM     34   C  SGN C   2      91.534 111.860  40.1600  0.00  0.00     0.000 C
ATOM     35   O  SGN C   2      92.877 111.825  40.6730  0.00  0.00     0.000 O
ATOM     36   S  SGN C   2      93.162 110.836  41.8930  0.00  0.00     0.000 S
ATOM     37   O  SGN C   2      92.692 109.543  41.4370  0.00  0.00     0.000 OA
ATOM     38   O  SGN C   2      94.588 110.885  42.1090  0.00  0.00     0.000 OA
ATOM     39   O  SGN C   2      92.390 111.390  42.9780  0.00  0.00     0.000 OA
ENDBRANCH 24 34
BRANCH 20 40
ATOM     40  O4  IDS C   3      91.990 111.749  36.0620  0.00  0.00     0.000 O
BRANCH 40 44
ATOM     41  C1  IDS C   3      94.730 111.257  33.9000  0.00  0.00     0.000 C
ATOM     42  C2  IDS C   3      93.309 111.409  33.3650  0.00  0.00     0.000 C
ATOM     43  C3  IDS C   3      92.369 110.436  34.0720  0.00  0.00     0.000 C
ATOM     44  C4  IDS C   3      92.516 110.508  35.5840  0.00  0.00     0.000 C
ATOM     45  C5  IDS C   3      94.005 110.390  35.9730  0.00  0.00     0.000 C
ATOM     46  O5  IDS C   3      94.752 111.417  35.3160  0.00  0.00     0.000 O
ATOM     47   O  IDS C   3      92.634 109.110  33.6210  0.00  0.00     0.000 O
ATOM     49  HD  IDS C   3      92.307 109.905  33.5170  0.00  0.00     0.000 HD
BRANCH 42 49
ATOM     49   O  IDS C   3      92.823 112.790  33.5950  0.00  0.00     0.000 O
ATOM     50   S  IDS C   3      92.523 113.744  32.3440  0.00  0.00     0.000 S
ATOM     51   O  IDS C   3      91.317 113.182  31.7780  0.00  0.00     0.000 OA
ATOM     52   O  IDS C   3      93.646 113.700  31.4220  0.00  0.00     0.000 OA
ATOM     53   O  IDS C   3      92.323 115.068  32.8940  0.00  0.00     0.000 OA
ENDBRANCH 42 49
BRANCH 45 54
ATOM     54   C  IDS C   3      94.246 110.493  37.4710  0.00  0.00     0.000 C
ATOM     55   O  IDS C   3      94.933 111.381  37.9050  0.00  0.00     0.000 OA
ATOM     56   O  IDS C   3      93.759 109.670  38.2210  0.00  0.00     0.000 OA
ENDBRANCH 45 54
BRANCH 41 57
ATOM     57  O4  SGN C   4      95.255 110.174  33.3150  0.00  0.00     0.000 O
BRANCH 57 61
ATOM     58  C1  SGN C   4      99.036 108.471  32.7360  0.00  0.00     0.000 C
ATOM     59  C2  SGN C   4      98.636 108.789  34.1860  0.00  0.00     0.000 C
ATOM     60  C3  SGN C   4      97.122 109.011  34.3080  0.00  0.00     0.000 C
ATOM     61  C4  SGN C   4      96.683 110.072  33.3130  0.00  0.00     0.000 C
ATOM     62  C5  SGN C   4      97.138 109.706  31.9020  0.00  0.00     0.000 C
ATOM     63  O5  SGN C   4      98.562 109.489  31.8680  0.00  0.00     0.000 O
BRANCH 59 66
ATOM     64   N  SGN C   4      99.252 107.708  34.9620  0.00  0.00     0.000 N
ATOM     66  HD  SGN C   4      98.738 108.353  34.6980  0.00  0.00     0.000 HD
ATOM     66   O  SGN C   4     100.597 106.822  36.7900  0.00  0.00     0.000 OA
ATOM     67   O  SGN C   4     101.313 108.859  35.6150  0.00  0.00     0.000 OA
ATOM     68   S  SGN C   4     100.130 108.057  36.2590  0.00  0.00     0.000 S
ATOM     69   O  SGN C   4      99.377 108.930  37.0870  0.00  0.00     0.000 OA
ENDBRANCH 59 66
BRANCH 62 70
ATOM     70   C  SGN C   4      96.832 110.807  30.9170  0.00  0.00     0.000 C
ATOM     71   S  SGN C   4      97.825 112.871  29.7660  0.00  0.00     0.000 S
ATOM     72   O  SGN C   4      97.283 112.410  28.5030  0.00  0.00     0.000 OA
ATOM     73   O  SGN C   4      96.909 113.712  30.5110  0.00  0.00     0.000 OA
ATOM     74   O  SGN C   4      99.159 113.415  29.6580  0.00  0.00     0.000 OA
ATOM     75   O  SGN C   4      98.021 111.552  30.6280  0.00  0.00     0.000 O
ENDBRANCH 62 70
ENDBRANCH 57 61
ENDBRANCH 41 57
ENDBRANCH 40 44
ENDBRANCH 20 40
ENDBRANCH 19 23
ENDBRANCH 1 19
TORSDOF 14
ENDMDL
MODEL 59
REMARK VINA RESULT:       0.1    115.102    119.972
ROOT
ATOM      1  C1  IDS C   1      28.322  20.787  76.1820  0.00  0.00     0.000 C
ATOM      2  C2  IDS C   1      28.738  22.247  76.1340  0.00  0.00     0.000 C
ATOM      3  C3  IDS C   1      27.518  23.153  76.0200  0.00  0.00     0.000 C
ATOM      4  C4  IDS C   1      26.481  22.819  77.0920  0.00  0.00     0.000 C
ATOM      5  C5  IDS C   1      26.205  21.302  77.1140  0.00  0.00     0.000 C
ATOM      6  O5  IDS C   1      27.420  20.577  77.2680  0.00  0.00     0.000 O
ATOM      7   O  IDS C   1      26.949  23.025  74.7160  0.00  0.00     0.000 O
ATOM      9  HD  IDS C   1      26.251  23.257  75.1730  0.00  0.00     0.000 HD
ATOM      9   O  IDS C   1      26.984  23.231  78.3720  0.00  0.00     0.000 O
ATOM     11  HD  IDS C   1      26.286  23.463  78.8290  0.00  0.00     0.000 HD
ENDROOT
BRANCH 2 11
ATOM     11   O  IDS C   1      29.457  22.614  77.3740  0.00  0.00     0.000 O
ATOM     12   S  IDS C   1      31.019  22.950  77.3400  0.00  0.00     0.000 S
ATOM     13   O  IDS C   1      31.134  23.974  78.3550  0.00  0.00     0.000 OA
ATOM     14   O  IDS C   1      31.378  23.419  76.0230  0.00  0.00     0.000 OA
ATOM     15   O  IDS C   1      31.665  21.712  77.6980  0.00  0.00     0.000 OA
ENDBRANCH 2 11
BRANCH 5 16
ATOM     16   C  IDS C   1      25.269  20.879  78.2310  0.00  0.00     0.000 C
ATOM     17   O  IDS C   1      24.995  19.704  78.3500  0.00  0.00     0.000 OA
ATOM     18   O  IDS C   1      24.793  21.691  78.9760  0.00  0.00     0.000 OA
ENDBRANCH 5 16
BRANCH 1 19
ATOM     19  O4  SGN C   2      28.017  20.161  75.0410  0.00  0.00     0.000 O
BRANCH 19 23
ATOM     20  C1  SGN C   2      28.035  16.506  73.0250  0.00  0.00     0.000 C
ATOM     21  C2  SGN C   2      27.013  16.658  74.1580  0.00  0.00     0.000 C
ATOM     22  C3  SGN C   2      26.827  18.136  74.4910  0.00  0.00     0.000 C
ATOM     23  C4  SGN C   2      28.174  18.754  74.8490  0.00  0.00     0.000 C
ATOM     24  C5  SGN C   2      29.180  18.499  73.7230  0.00  0.00     0.000 C
ATOM     25  O5  SGN C   2      29.256  17.088  73.4490  0.00  0.00     0.000 O
ATOM     26   O  SGN C   2      25.894  18.295  75.5520  0.00  0.00     0.000 O
ATOM     28  HD  SGN C   2      25.268  18.308  76.1510  0.00  0.00     0.000 HD
BRANCH 21 30
ATOM     28   N  SGN C   2      26.599  15.368  73.5910  0.00  0.00     0.000 N
ATOM     30  HD  SGN C   2      25.903  15.356  73.0750  0.00  0.00     0.000 HD
ATOM     30   S  SGN C   2      25.483  14.469  74.3030  0.00  0.00     0.000 S
ATOM     31   O  SGN C   2      24.359  15.327  74.4700  0.00  0.00     0.000 OA
ATOM     32   O  SGN C   2      25.349  13.261  73.5760  0.00  0.00     0.000 OA
ATOM     33   O  SGN C   2      26.117  14.103  75.6880  0.00  0.00     0.000 OA
ENDBRANCH 21 30
BRANCH 24 34
ATOM     34   C  SGN C   2      30.585  18.946  74.0520  0.00  0.00     0.000 C
ATOM     35   O  SGN C   2      30.878  20.145  73.3120  0.00  0.00     0.000 O
ATOM     36   S  SGN C   2      32.418  20.526  73.1300  0.00  0.00     0.000 S
ATOM     37   O  SGN C   2      33.026  19.340  72.5580  0.00  0.00     0.000 OA
ATOM     38   O  SGN C   2      32.435  21.664  72.2430  0.00  0.00     0.000 OA
ATOM     39   O  SGN C   2      32.864  20.825  74.4690  0.00  0.00     0.000 OA
ENDBRANCH 24 34
BRANCH 20 40
ATOM     40  O4  IDS C   3      27.707  16.996  71.8320  0.00  0.00     0.000 O
BRANCH 40 44
ATOM     41  C1  IDS C   3      26.332  17.469  68.6200  0.00  0.00     0.000 C
ATOM     42  C2  IDS C   3      25.939  16.278  69.4890  0.00  0.00     0.000 C
ATOM     43  C3  IDS C   3      27.185  15.542  69.9770  0.00  0.00     0.000 C
ATOM     44  C4  IDS C   3      28.200  16.497  70.5860  0.00  0.00     0.000 C
ATOM     45  C5  IDS C   3      28.460  17.672  69.6210  0.00  0.00     0.000 C
ATOM     46  O5  IDS C   3      27.226  18.328  69.3230  0.00  0.00     0.000 O
ATOM     47   O  IDS C   3      27.774  14.837  68.8880  0.00  0.00     0.000 O
ATOM     49  HD  IDS C   3      27.166  14.941  69.4950  0.00  0.00     0.000 HD
BRANCH 42 49
ATOM     49   O  IDS C   3      25.169  16.739  70.6680  0.00  0.00     0.000 O
ATOM     50   S  IDS C   3      23.630  16.322  70.8230  0.00  0.00     0.000 S
ATOM     51   O  IDS C   3      23.696  14.914  71.1450  0.00  0.00     0.000 OA
ATOM     52   O  IDS C   3      22.932  16.576  69.5730  0.00  0.00     0.000 OA
ATOM     53   O  IDS C   3      23.108  17.124  71.9090  0.00  0.00     0.000 OA
ENDBRANCH 42 49
BRANCH 45 54
ATOM     54   C  IDS C   3      29.438  18.698  70.1710  0.00  0.00     0.000 C
ATOM     55   O  IDS C   3      29.077  19.834  70.3440  0.00  0.00     0.000 OA
ATOM     56   O  IDS C   3      30.583  18.374  70.4190  0.00  0.00     0.000 OA
ENDBRANCH 45 54
BRANCH 41 57
ATOM     57  O4  SGN C   4      26.639  16.987  67.4100  0.00  0.00     0.000 O
BRANCH 57 61
ATOM     58  C1  SGN C   4      26.943  18.406  63.4830  0.00  0.00     0.000 C
ATOM     59  C2  SGN C   4      27.720  19.180  64.5600  0.00  0.00     0.000 C
ATOM     60  C3  SGN C   4      27.867  18.350  65.8430  0.00  0.00     0.000 C
ATOM     61  C4  SGN C   4      26.496  17.885  66.3050  0.00  0.00     0.000 C
ATOM     62  C5  SGN C   4      25.771  17.151  65.1780  0.00  0.00     0.000 C
ATOM     63  O5  SGN C   4      25.692  17.979  64.0020  0.00  0.00     0.000 O
BRANCH 59 66
ATOM     64   N  SGN C   4      28.944  19.615  63.8790  0.00  0.00     0.000 N
ATOM     66  HD  SGN C   4      28.362  19.391  64.4800  0.00  0.00     0.000 HD
ATOM     66   O  SGN C   4      30.586  21.273  63.1810  0.00  0.00     0.000 OA
ATOM     67   O  SGN C   4      28.192  21.832  63.1600  0.00  0.00     0.000 OA
ATOM     68   S  SGN C   4      29.381  21.158  63.9290  0.00  0.00     0.000 S
ATOM     69   O  SGN C   4      29.357  21.585  65.2820  0.00  0.00     0.000 OA
ENDBRANCH 59 66
BRANCH 62 70
ATOM     70   C  SGN C   4      24.357  16.797  65.5680  0.00  0.00     0.000 C
ATOM     71   S  SGN C   4      21.905  17.469  65.2450  0.00  0.00     0.000 S
ATOM     72   O  SGN C   4      21.563  16.074  65.0490  0.00  0.00     0.000 OA
ATOM     73   O  SGN C   4      21.848  17.884  66.6330  0.00  0.00     0.000 OA
ATOM     74   O  SGN C   4      21.220  18.364  64.3410  0.00  0.00     0.000 OA
ATOM     75   O  SGN C   4      23.427  17.578  64.8080  0.00  0.00     0.000 O
ENDBRANCH 62 70
ENDBRANCH 57 61
ENDBRANCH 41 57
ENDBRANCH 40 44
ENDBRANCH 20 40
ENDBRANCH 19 23
ENDBRANCH 1 19
TORSDOF 14
ENDMDL
MODEL 60
REMARK VINA RESULT:       0.1     87.331     93.081
ROOT
ATOM      1  C1  IDS C   1      23.771  88.966 109.8320  0.00  0.00     0.000 C
ATOM      2  C2  IDS C   1      25.115  88.292 109.6250  0.00  0.00     0.000 C
ATOM      3  C3  IDS C   1      25.739  88.724 108.3040  0.00  0.00     0.000 C
ATOM      4  C4  IDS C   1      25.761  90.247 108.1760  0.00  0.00     0.000 C
ATOM      5  C5  IDS C   1      24.371  90.830 108.4990  0.00  0.00     0.000 C
ATOM      6  O5  IDS C   1      23.927  90.383 109.7750  0.00  0.00     0.000 O
ATOM      7   O  IDS C   1      25.011  88.142 107.2210  0.00  0.00     0.000 O
ATOM      9  HD  IDS C   1      25.328  88.851 106.8380  0.00  0.00     0.000 HD
ATOM      9   O  IDS C   1      26.726  90.778 109.0970  0.00  0.00     0.000 O
ATOM     11  HD  IDS C   1      27.043  91.488 108.7150  0.00  0.00     0.000 HD
ENDROOT
BRANCH 2 11
ATOM     11   O  IDS C   1      26.049  88.671 110.7080  0.00  0.00     0.000 O
ATOM     12   S  IDS C   1      26.685  87.557 111.6610  0.00  0.00     0.000 S
ATOM     13   O  IDS C   1      28.003  88.094 111.9230  0.00  0.00     0.000 OA
ATOM     14   O  IDS C   1      26.720  86.294 110.9640  0.00  0.00     0.000 OA
ATOM     15   O  IDS C   1      25.831  87.541 112.8220  0.00  0.00     0.000 OA
ENDBRANCH 2 11
BRANCH 5 16
ATOM     16   C  IDS C   1      24.344  92.348 108.5050  0.00  0.00     0.000 C
ATOM     17   O  IDS C   1      25.184  92.950 107.8710  0.00  0.00     0.000 OA
ATOM     18   O  IDS C   1      23.518  92.946 109.1380  0.00  0.00     0.000 OA
ENDBRANCH 5 16
BRANCH 1 19
ATOM     19  O4  SGN C   2      22.694  88.472 109.2130  0.00  0.00     0.000 O
BRANCH 19 23
ATOM     20  C1  SGN C   2      18.618  87.645 109.5680  0.00  0.00     0.000 C
ATOM     21  C2  SGN C   2      19.004  89.116 109.3750  0.00  0.00     0.000 C
ATOM     22  C3  SGN C   2      20.429  89.209 108.8350  0.00  0.00     0.000 C
ATOM     23  C4  SGN C   2      21.383  88.488 109.7800  0.00  0.00     0.000 C
ATOM     24  C5  SGN C   2      20.904  87.052 110.0060  0.00  0.00     0.000 C
ATOM     25  O5  SGN C   2      19.542  87.059 110.4710  0.00  0.00     0.000 O
ATOM     26   O  SGN C   2      20.809  90.570 108.6650  0.00  0.00     0.000 O
ATOM     28  HD  SGN C   2      20.936  91.415 108.5270  0.00  0.00     0.000 HD
BRANCH 21 30
ATOM     28   N  SGN C   2      17.541  89.203 109.2700  0.00  0.00     0.000 N
ATOM     30  HD  SGN C   2      17.195  89.274 108.4790  0.00  0.00     0.000 HD
ATOM     30   S  SGN C   2      16.798  90.617 109.1920  0.00  0.00     0.000 S
ATOM     31   O  SGN C   2      17.420  91.311 108.1150  0.00  0.00     0.000 OA
ATOM     32   O  SGN C   2      15.401  90.390 109.1740  0.00  0.00     0.000 OA
ATOM     33   O  SGN C   2      17.134  91.299 110.5630  0.00  0.00     0.000 OA
ENDBRANCH 21 30
BRANCH 24 34
ATOM     34   C  SGN C   2      21.704  86.301 111.0450  0.00  0.00     0.000 C
ATOM     35   O  SGN C   2      22.529  85.326 110.3840  0.00  0.00     0.000 O
ATOM     36   S  SGN C   2      23.087  84.125 111.2760  0.00  0.00     0.000 S
ATOM     37   O  SGN C   2      21.911  83.550 111.8980  0.00  0.00     0.000 OA
ATOM     38   O  SGN C   2      23.745  83.229 110.3550  0.00  0.00     0.000 OA
ATOM     39   O  SGN C   2      23.985  84.768 112.2040  0.00  0.00     0.000 OA
ENDBRANCH 24 34
BRANCH 20 40
ATOM     40  O4  IDS C   3      18.528  86.884 108.4790  0.00  0.00     0.000 O
BRANCH 40 44
ATOM     41  C1  IDS C   3      17.434  85.316 105.5180  0.00  0.00     0.000 C
ATOM     42  C2  IDS C   3      16.629  86.435 106.1720  0.00  0.00     0.000 C
ATOM     43  C3  IDS C   3      16.393  86.126 107.6480  0.00  0.00     0.000 C
ATOM     44  C4  IDS C   3      17.682  85.739 108.3560  0.00  0.00     0.000 C
ATOM     45  C5  IDS C   3      18.409  84.637 107.5580  0.00  0.00     0.000 C
ATOM     46  O5  IDS C   3      18.651  85.095 106.2260  0.00  0.00     0.000 O
ATOM     47   O  IDS C   3      15.440  85.072 107.7640  0.00  0.00     0.000 O
ATOM     49  HD  IDS C   3      15.658  85.895 107.6060  0.00  0.00     0.000 HD
BRANCH 42 49
ATOM     49   O  IDS C   3      17.363  87.718 106.0680  0.00  0.00     0.000 O
ATOM     50   S  IDS C   3      16.759  88.908 105.1830  0.00  0.00     0.000 S
ATOM     51   O  IDS C   3      15.632  89.367 105.9640  0.00  0.00     0.000 OA
ATOM     52   O  IDS C   3      16.364  88.391 103.8830  0.00  0.00     0.000 OA
ATOM     53   O  IDS C   3      17.810  89.898 105.0770  0.00  0.00     0.000 OA
ENDBRANCH 42 49
BRANCH 45 54
ATOM     54   C  IDS C   3      19.733  84.218 108.1780  0.00  0.00     0.000 C
ATOM     55   O  IDS C   3      19.748  83.730 109.2790  0.00  0.00     0.000 OA
ATOM     56   O  IDS C   3      20.770  84.393 107.5690  0.00  0.00     0.000 OA
ENDBRANCH 45 54
BRANCH 41 57
ATOM     57  O4  SGN C   4      16.582  84.314 105.2710  0.00  0.00     0.000 O
BRANCH 57 61
ATOM     58  C1  SGN C   4      16.346  80.986 102.7410  0.00  0.00     0.000 C
ATOM     59  C2  SGN C   4      17.628  81.129 103.5770  0.00  0.00     0.000 C
ATOM     60  C3  SGN C   4      17.429  82.119 104.7330  0.00  0.00     0.000 C
ATOM     61  C4  SGN C   4      16.914  83.440 104.1870  0.00  0.00     0.000 C
ATOM     62  C5  SGN C   4      15.658  83.219 103.3440  0.00  0.00     0.000 C
ATOM     63  O5  SGN C   4      15.912  82.263 102.2970  0.00  0.00     0.000 O
BRANCH 59 66
ATOM     64   N  SGN C   4      17.998  79.750 103.9080  0.00  0.00     0.000 N
ATOM     66  HD  SGN C   4      17.917  80.612 103.9110  0.00  0.00     0.000 HD
ATOM     66   O  SGN C   4      19.542  77.869 104.0280  0.00  0.00     0.000 OA
ATOM     67   O  SGN C   4      19.539  79.330 102.0510  0.00  0.00     0.000 OA
ATOM     68   S  SGN C   4      19.488  79.230 103.6150  0.00  0.00     0.000 S
ATOM     69   O  SGN C   4      20.403  80.163 104.1670  0.00  0.00     0.000 OA
ENDBRANCH 59 66
BRANCH 62 70
ATOM     70   C  SGN C   4      15.204  84.495 102.6810  0.00  0.00     0.000 C
ATOM     71   S  SGN C   4      15.123  85.731 100.4370  0.00  0.00     0.000 S
ATOM     72   O  SGN C   4      13.739  86.079 100.6950  0.00  0.00     0.000 OA
ATOM     73   O  SGN C   4      16.065  86.704 100.9520  0.00  0.00     0.000 OA
ATOM     74   O  SGN C   4      15.376  85.343  99.0680  0.00  0.00     0.000 OA
ATOM     75   O  SGN C   4      15.365  84.396 101.2610  0.00  0.00     0.000 O
ENDBRANCH 62 70
ENDBRANCH 57 61
ENDBRANCH 41 57
ENDBRANCH 40 44
ENDBRANCH 20 40
ENDBRANCH 19 23
ENDBRANCH 1 19
TORSDOF 14
ENDMDL
MODEL 61
REMARK VINA RESULT:       0.1    100.939    105.042
ROOT
ATOM      1  C1  IDS C   1      10.220  64.785  93.9290  0.00  0.00     0.000 C
ATOM      2  C2  IDS C   1      10.066  65.967  94.8690  0.00  0.00     0.000 C
ATOM      3  C3  IDS C   1      11.221  66.947  94.7000  0.00  0.00     0.000 C
ATOM      4  C4  IDS C   1      11.418  67.320  93.2310  0.00  0.00     0.000 C
ATOM      5  C5  IDS C   1      11.466  66.049  92.3590  0.00  0.00     0.000 C
ATOM      6  O5  IDS C   1      10.311  65.247  92.5820  0.00  0.00     0.000 O
ATOM      7   O  IDS C   1      12.415  66.372  95.2340  0.00  0.00     0.000 O
ATOM      9  HD  IDS C   1      12.747  66.909  94.6420  0.00  0.00     0.000 HD
ATOM      9   O  IDS C   1      10.321  68.146  92.8080  0.00  0.00     0.000 O
ATOM     11  HD  IDS C   1      10.654  68.683  92.2160  0.00  0.00     0.000 HD
ENDROOT
BRANCH 2 11
ATOM     11   O  IDS C   1       8.812  66.695  94.5730  0.00  0.00     0.000 O
ATOM     12   S  IDS C   1       7.679  66.853  95.6890  0.00  0.00     0.000 S
ATOM     13   O  IDS C   1       7.139  68.162  95.3950  0.00  0.00     0.000 OA
ATOM     14   O  IDS C   1       8.282  66.773  96.9970  0.00  0.00     0.000 OA
ATOM     15   O  IDS C   1       6.756  65.778  95.4220  0.00  0.00     0.000 OA
ENDBRANCH 2 11
BRANCH 5 16
ATOM     16   C  IDS C   1      11.544  66.344  90.8720  0.00  0.00     0.000 C
ATOM     17   O  IDS C   1      11.990  67.412  90.5110  0.00  0.00     0.000 OA
ATOM     18   O  IDS C   1      11.158  65.544  90.0650  0.00  0.00     0.000 OA
ENDBRANCH 5 16
BRANCH 1 19
ATOM     19  O4  SGN C   2      11.052  63.794  94.2630  0.00  0.00     0.000 O
BRANCH 19 23
ATOM     20  C1  SGN C   2      11.636  59.661  94.2430  0.00  0.00     0.000 C
ATOM     21  C2  SGN C   2      11.807  60.383  92.9020  0.00  0.00     0.000 C
ATOM     22  C3  SGN C   2      11.995  61.879  93.1410  0.00  0.00     0.000 C
ATOM     23  C4  SGN C   2      10.815  62.424  93.9370  0.00  0.00     0.000 C
ATOM     24  C5  SGN C   2      10.636  61.613  95.2230  0.00  0.00     0.000 C
ATOM     25  O5  SGN C   2      10.510  60.215  94.9050  0.00  0.00     0.000 O
ATOM     26   O  SGN C   2      12.139  62.567  91.9040  0.00  0.00     0.000 O
ATOM     28  HD  SGN C   2      12.287  62.898  91.1180  0.00  0.00     0.000 HD
BRANCH 21 30
ATOM     28   N  SGN C   2      12.262  59.033  92.5430  0.00  0.00     0.000 N
ATOM     30  HD  SGN C   2      13.115  58.895  92.4850  0.00  0.00     0.000 HD
ATOM     30   S  SGN C   2      12.587  58.643  91.0260  0.00  0.00     0.000 S
ATOM     31   O  SGN C   2      13.518  59.623  90.5760  0.00  0.00     0.000 OA
ATOM     32   O  SGN C   2      12.926  57.270  90.9780  0.00  0.00     0.000 OA
ATOM     33   O  SGN C   2      11.213  58.802  90.2900  0.00  0.00     0.000 OA
ENDBRANCH 21 30
BRANCH 24 34
ATOM     34   C  SGN C   2       9.399  61.984  96.0070  0.00  0.00     0.000 C
ATOM     35   O  SGN C   2       9.793  62.709  97.1850  0.00  0.00     0.000 O
ATOM     36   S  SGN C   2       8.734  62.786  98.3770  0.00  0.00     0.000 S
ATOM     37   O  SGN C   2       8.381  61.407  98.6480  0.00  0.00     0.000 OA
ATOM     38   O  SGN C   2       9.424  63.427  99.4700  0.00  0.00     0.000 OA
ATOM     39   O  SGN C   2       7.653  63.571  97.8320  0.00  0.00     0.000 OA
ENDBRANCH 24 34
BRANCH 20 40
ATOM     40  O4  IDS C   3      12.674  59.656  95.0760  0.00  0.00     0.000 O
BRANCH 40 44
ATOM     41  C1  IDS C   3      15.727  58.939  96.6870  0.00  0.00     0.000 C
ATOM     42  C2  IDS C   3      15.340  58.266  95.3730  0.00  0.00     0.000 C
ATOM     43  C3  IDS C   3      13.949  57.647  95.4830  0.00  0.00     0.000 C
ATOM     44  C4  IDS C   3      12.936  58.635  96.0410  0.00  0.00     0.000 C
ATOM     45  C5  IDS C   3      13.482  59.271  97.3370  0.00  0.00     0.000 C
ATOM     46  O5  IDS C   3      14.740  59.894  97.0690  0.00  0.00     0.000 O
ATOM     47   O  IDS C   3      14.009  56.491  96.3150  0.00  0.00     0.000 O
ATOM     49  HD  IDS C   3      14.152  56.909  95.5700  0.00  0.00     0.000 HD
BRANCH 42 49
ATOM     49   O  IDS C   3      15.332  59.259  94.2740  0.00  0.00     0.000 O
ATOM     50   S  IDS C   3      16.397  59.134  93.0840  0.00  0.00     0.000 S
ATOM     51   O  IDS C   3      15.932  57.984  92.3400  0.00  0.00     0.000 OA
ATOM     52   O  IDS C   3      17.725  58.938  93.6420  0.00  0.00     0.000 OA
ATOM     53   O  IDS C   3      16.300  60.368  92.3320  0.00  0.00     0.000 OA
ENDBRANCH 42 49
BRANCH 45 54
ATOM     54   C  IDS C   3      12.545  60.305  97.9420  0.00  0.00     0.000 C
ATOM     55   O  IDS C   3      12.910  61.446  98.0570  0.00  0.00     0.000 OA
ATOM     56   O  IDS C   3      11.439  59.972  98.3210  0.00  0.00     0.000 OA
ENDBRANCH 45 54
BRANCH 41 57
ATOM     57  O4  SGN C   4      16.118  57.971  97.5240  0.00  0.00     0.000 O
BRANCH 57 61
ATOM     58  C1  SGN C   4      18.466  57.601 100.9700  0.00  0.00     0.000 C
ATOM     59  C2  SGN C   4      17.361  58.669 100.9980  0.00  0.00     0.000 C
ATOM     60  C3  SGN C   4      16.334  58.433  99.8820  0.00  0.00     0.000 C
ATOM     61  C4  SGN C   4      17.049  58.341  98.5450  0.00  0.00     0.000 C
ATOM     62  C5  SGN C   4      18.151  57.284  98.5990  0.00  0.00     0.000 C
ATOM     63  O5  SGN C   4      19.061  57.555  99.6810  0.00  0.00     0.000 O
BRANCH 59 66
ATOM     64   N  SGN C   4      16.885  58.658 102.3850  0.00  0.00     0.000 N
ATOM     66  HD  SGN C   4      16.944  58.762 101.5270  0.00  0.00     0.000 HD
ATOM     66   O  SGN C   4      16.314  59.706 104.5080  0.00  0.00     0.000 OA
ATOM     67   O  SGN C   4      18.304  60.447 103.2710  0.00  0.00     0.000 OA
ATOM     68   S  SGN C   4      16.793  60.032 103.2080  0.00  0.00     0.000 S
ATOM     69   O  SGN C   4      16.087  60.978 102.4220  0.00  0.00     0.000 OA
ENDBRANCH 59 66
BRANCH 62 70
ATOM     70   C  SGN C   4      18.964  57.266  97.3280  0.00  0.00     0.000 C
ATOM     71   S  SGN C   4      21.227  57.932  96.3250  0.00  0.00     0.000 S
ATOM     72   O  SGN C   4      21.311  56.632  95.6870  0.00  0.00     0.000 OA
ATOM     73   O  SGN C   4      20.559  58.928  95.5110  0.00  0.00     0.000 OA
ATOM     74   O  SGN C   4      22.480  58.382  96.8860  0.00  0.00     0.000 OA
ATOM     75   O  SGN C   4      20.303  57.701  97.5950  0.00  0.00     0.000 O
ENDBRANCH 62 70
ENDBRANCH 57 61
ENDBRANCH 41 57
ENDBRANCH 40 44
ENDBRANCH 20 40
ENDBRANCH 19 23
ENDBRANCH 1 19
TORSDOF 14
ENDMDL
MODEL 62
REMARK VINA RESULT:       0.1     75.125     82.646
ROOT
ATOM      1  C1  IDS C   1      37.086  94.073 110.6590  0.00  0.00     0.000 C
ATOM      2  C2  IDS C   1      37.249  94.659 109.2680  0.00  0.00     0.000 C
ATOM      3  C3  IDS C   1      36.198  95.732 109.0070  0.00  0.00     0.000 C
ATOM      4  C4  IDS C   1      36.168  96.762 110.1360  0.00  0.00     0.000 C
ATOM      5  C5  IDS C   1      36.097  96.053 111.5040  0.00  0.00     0.000 C
ATOM      6  O5  IDS C   1      37.157  95.112 111.6330  0.00  0.00     0.000 O
ATOM      7   O  IDS C   1      34.917  95.117 108.8570  0.00  0.00     0.000 O
ATOM      9  HD  IDS C   1      34.686  95.901 109.1420  0.00  0.00     0.000 HD
ATOM      9   O  IDS C   1      37.363  97.557 110.0740  0.00  0.00     0.000 O
ATOM     11  HD  IDS C   1      37.131  98.341 110.3580  0.00  0.00     0.000 HD
ENDROOT
BRANCH 2 11
ATOM     11   O  IDS C   1      38.580  95.292 109.1330  0.00  0.00     0.000 O
ATOM     12   S  IDS C   1      39.690  94.657 108.1750  0.00  0.00     0.000 S
ATOM     13   O  IDS C   1      40.371  95.830 107.6760  0.00  0.00     0.000 OA
ATOM     14   O  IDS C   1      39.043  93.895 107.1340  0.00  0.00     0.000 OA
ATOM     15   O  IDS C   1      40.503  93.848 109.0480  0.00  0.00     0.000 OA
ENDBRANCH 2 11
BRANCH 5 16
ATOM     16   C  IDS C   1      36.180  97.009 112.6800  0.00  0.00     0.000 C
ATOM     17   O  IDS C   1      36.149  96.556 113.8040  0.00  0.00     0.000 OA
ATOM     18   O  IDS C   1      36.259  98.194 112.5050  0.00  0.00     0.000 OA
ENDBRANCH 5 16
BRANCH 1 19
ATOM     19  O4  SGN C   2      36.149  93.142 110.8650  0.00  0.00     0.000 O
BRANCH 19 23
ATOM     20  C1  SGN C   2      35.102  89.760 113.0760  0.00  0.00     0.000 C
ATOM     21  C2  SGN C   2      35.090  91.098 113.8250  0.00  0.00     0.000 C
ATOM     22  C3  SGN C   2      35.058  92.249 112.8230  0.00  0.00     0.000 C
ATOM     23  C4  SGN C   2      36.247  92.137 111.8750  0.00  0.00     0.000 C
ATOM     24  C5  SGN C   2      36.261  90.752 111.2210  0.00  0.00     0.000 C
ATOM     25  O5  SGN C   2      36.245  89.733 112.2360  0.00  0.00     0.000 O
ATOM     26   O  SGN C   2      35.063  93.500 113.5010  0.00  0.00     0.000 O
ATOM     28  HD  SGN C   2      34.998  94.213 113.9880  0.00  0.00     0.000 HD
BRANCH 21 30
ATOM     28   N  SGN C   2      34.503  90.214 114.8400  0.00  0.00     0.000 N
ATOM     30  HD  SGN C   2      33.645  90.239 114.9530  0.00  0.00     0.000 HD
ATOM     30   S  SGN C   2      34.224  90.731 116.3290  0.00  0.00     0.000 S
ATOM     31   O  SGN C   2      33.440  91.910 116.1770  0.00  0.00     0.000 OA
ATOM     32   O  SGN C   2      33.732  89.648 117.0960  0.00  0.00     0.000 OA
ATOM     33   O  SGN C   2      35.648  91.076 116.8840  0.00  0.00     0.000 OA
ENDBRANCH 21 30
BRANCH 24 34
ATOM     34   C  SGN C   2      37.485  90.493 110.3750  0.00  0.00     0.000 C
ATOM     35   O  SGN C   2      37.116  90.553 108.9870  0.00  0.00     0.000 O
ATOM     36   S  SGN C   2      38.105  89.859 107.9420  0.00  0.00     0.000 S
ATOM     37   O  SGN C   2      38.266  88.504 108.4310  0.00  0.00     0.000 OA
ATOM     38   O  SGN C   2      37.436  89.933 106.6660  0.00  0.00     0.000 OA
ATOM     39   O  SGN C   2      39.305  90.656 108.0170  0.00  0.00     0.000 OA
ENDBRANCH 24 34
BRANCH 20 40
ATOM     40  O4  IDS C   3      34.025  89.445 112.3600  0.00  0.00     0.000 O
BRANCH 40 44
ATOM     41  C1  IDS C   3      30.826  88.370 111.3430  0.00  0.00     0.000 C
ATOM     42  C2  IDS C   3      31.209  88.449 112.8180  0.00  0.00     0.000 C
ATOM     43  C3  IDS C   3      32.516  87.699 113.0670  0.00  0.00     0.000 C
ATOM     44  C4  IDS C   3      33.598  88.110 112.0810  0.00  0.00     0.000 C
ATOM     45  C5  IDS C   3      33.053  88.029 110.6390  0.00  0.00     0.000 C
ATOM     46  O5  IDS C   3      31.889  88.849 110.5230  0.00  0.00     0.000 O
ATOM     47   O  IDS C   3      32.281  86.296 112.9740  0.00  0.00     0.000 O
ATOM     49  HD  IDS C   3      32.228  87.057 113.3830  0.00  0.00     0.000 HD
BRANCH 42 49
ATOM     49   O  IDS C   3      31.390  89.862 113.2230  0.00  0.00     0.000 O
ATOM     50   S  IDS C   3      30.384  90.518 114.2840  0.00  0.00     0.000 S
ATOM     51   O  IDS C   3      30.756  89.886 115.5300  0.00  0.00     0.000 OA
ATOM     52   O  IDS C   3      29.014  90.224 113.8960  0.00  0.00     0.000 OA
ATOM     53   O  IDS C   3      30.660  91.939 114.2680  0.00  0.00     0.000 OA
ENDBRANCH 42 49
BRANCH 45 54
ATOM     54   C  IDS C   3      34.063  88.463 109.5890  0.00  0.00     0.000 C
ATOM     55   O  IDS C   3      33.820  89.405 108.8800  0.00  0.00     0.000 OA
ATOM     56   O  IDS C   3      35.103  87.847 109.4560  0.00  0.00     0.000 OA
ENDBRANCH 45 54
BRANCH 41 57
ATOM     57  O4  SGN C   4      30.284  87.163 111.1430  0.00  0.00     0.000 O
BRANCH 57 61
ATOM     58  C1  SGN C   4      27.626  85.357 108.4590  0.00  0.00     0.000 C
ATOM     59  C2  SGN C   4      28.804  86.133 107.8480  0.00  0.00     0.000 C
ATOM     60  C3  SGN C   4      29.902  86.385 108.8910  0.00  0.00     0.000 C
ATOM     61  C4  SGN C   4      29.299  87.064 110.1090  0.00  0.00     0.000 C
ATOM     62  C5  SGN C   4      28.118  86.255 110.6440  0.00  0.00     0.000 C
ATOM     63  O5  SGN C   4      27.142  86.037 109.6080  0.00  0.00     0.000 O
BRANCH 59 66
ATOM     64   N  SGN C   4      29.153  85.366 106.6480  0.00  0.00     0.000 N
ATOM     66  HD  SGN C   4      29.179  85.895 107.3330  0.00  0.00     0.000 HD
ATOM     66   O  SGN C   4      29.622  85.122 104.2700  0.00  0.00     0.000 OA
ATOM     67   O  SGN C   4      27.819  86.616 105.0180  0.00  0.00     0.000 OA
ATOM     68   S  SGN C   4      29.288  86.114 105.2350  0.00  0.00     0.000 S
ATOM     69   O  SGN C   4      30.139  87.236 105.4020  0.00  0.00     0.000 OA
ENDBRANCH 59 66
BRANCH 62 70
ATOM     70   C  SGN C   4      27.419  86.974 111.7700  0.00  0.00     0.000 C
ATOM     71   S  SGN C   4      25.264  88.213 112.3950  0.00  0.00     0.000 S
ATOM     72   O  SGN C   4      25.214  87.470 113.6390  0.00  0.00     0.000 OA
ATOM     73   O  SGN C   4      26.016  89.448 112.4940  0.00  0.00     0.000 OA
ATOM     74   O  SGN C   4      23.974  88.366 111.7610  0.00  0.00     0.000 OA
ATOM     75   O  SGN C   4      26.070  87.278 111.3960  0.00  0.00     0.000 O
ENDBRANCH 62 70
ENDBRANCH 57 61
ENDBRANCH 41 57
ENDBRANCH 40 44
ENDBRANCH 20 40
ENDBRANCH 19 23
ENDBRANCH 1 19
TORSDOF 14
ENDMDL
MODEL 63
REMARK VINA RESULT:       0.1     72.818     79.473
ROOT
ATOM      1  C1  IDS C   1      39.485  94.187 109.4420  0.00  0.00     0.000 C
ATOM      2  C2  IDS C   1      39.384  94.450 107.9500  0.00  0.00     0.000 C
ATOM      3  C3  IDS C   1      37.989  94.936 107.5800  0.00  0.00     0.000 C
ATOM      4  C4  IDS C   1      37.558  96.105 108.4660  0.00  0.00     0.000 C
ATOM      5  C5  IDS C   1      37.791  95.763 109.9510  0.00  0.00     0.000 C
ATOM      6  O5  IDS C   1      39.142  95.368 110.1650  0.00  0.00     0.000 O
ATOM      7   O  IDS C   1      37.062  93.854 107.6940  0.00  0.00     0.000 O
ATOM      9  HD  IDS C   1      36.537  94.530 107.8310  0.00  0.00     0.000 HD
ATOM      9   O  IDS C   1      38.331  97.264 108.1170  0.00  0.00     0.000 O
ATOM     11  HD  IDS C   1      37.806  97.939 108.2540  0.00  0.00     0.000 HD
ENDROOT
BRANCH 2 11
ATOM     11   O  IDS C   1      40.347  95.501 107.5510  0.00  0.00     0.000 O
ATOM     12   S  IDS C   1      41.485  95.194 106.4710  0.00  0.00     0.000 S
ATOM     13   O  IDS C   1      41.601  96.460 105.7810  0.00  0.00     0.000 OA
ATOM     14   O  IDS C   1      41.050  94.120 105.6100  0.00  0.00     0.000 OA
ATOM     15   O  IDS C   1      42.648  94.859 107.2550  0.00  0.00     0.000 OA
ENDBRANCH 2 11
BRANCH 5 16
ATOM     16   C  IDS C   1      37.495  96.921 110.8870  0.00  0.00     0.000 C
ATOM     17   O  IDS C   1      37.989  96.919 111.9940  0.00  0.00     0.000 OA
ATOM     18   O  IDS C   1      36.771  97.816 110.5480  0.00  0.00     0.000 OA
ENDBRANCH 5 16
BRANCH 1 19
ATOM     19  O4  SGN C   2      39.004  93.041 109.9330  0.00  0.00     0.000 O
BRANCH 19 23
ATOM     20  C1  SGN C   2      39.620  89.971 112.6930  0.00  0.00     0.000 C
ATOM     21  C2  SGN C   2      39.130  91.310 113.2570  0.00  0.00     0.000 C
ATOM     22  C3  SGN C   2      38.546  92.160 112.1310  0.00  0.00     0.000 C
ATOM     23  C4  SGN C   2      39.590  92.349 111.0370  0.00  0.00     0.000 C
ATOM     24  C5  SGN C   2      40.109  90.986 110.5720  0.00  0.00     0.000 C
ATOM     25  O5  SGN C   2      40.597  90.239 111.7010  0.00  0.00     0.000 O
ATOM     26   O  SGN C   2      38.100  93.414 112.6340  0.00  0.00     0.000 O
ATOM     28  HD  SGN C   2      37.794  94.121 113.0300  0.00  0.00     0.000 HD
BRANCH 21 30
ATOM     28   N  SGN C   2      39.047  90.465 114.4550  0.00  0.00     0.000 N
ATOM     30  HD  SGN C   2      38.267  90.172 114.6920  0.00  0.00     0.000 HD
ATOM     30   S  SGN C   2      38.710  91.090 115.8890  0.00  0.00     0.000 S
ATOM     31   O  SGN C   2      37.501  91.820 115.7060  0.00  0.00     0.000 OA
ATOM     32   O  SGN C   2      38.773  90.057 116.8550  0.00  0.00     0.000 OA
ATOM     33   O  SGN C   2      39.909  92.057 116.1740  0.00  0.00     0.000 OA
ENDBRANCH 21 30
BRANCH 24 34
ATOM     34   C  SGN C   2      41.255  91.075 109.5920  0.00  0.00     0.000 C
ATOM     35   O  SGN C   2      40.780  90.710 108.2840  0.00  0.00     0.000 O
ATOM     36   S  SGN C   2      41.878  90.277 107.2080  0.00  0.00     0.000 S
ATOM     37   O  SGN C   2      42.632  89.222 107.8560  0.00  0.00     0.000 OA
ATOM     38   O  SGN C   2      41.136  89.827 106.0550  0.00  0.00     0.000 OA
ATOM     39   O  SGN C   2      42.635  91.483 106.9790  0.00  0.00     0.000 OA
ENDBRANCH 24 34
BRANCH 20 40
ATOM     40  O4  IDS C   3      38.706  89.141 112.1960  0.00  0.00     0.000 O
BRANCH 40 44
ATOM     41  C1  IDS C   3      36.144  86.751 111.8150  0.00  0.00     0.000 C
ATOM     42  C2  IDS C   3      36.584  87.236 113.1940  0.00  0.00     0.000 C
ATOM     43  C3  IDS C   3      38.098  87.107 113.3440  0.00  0.00     0.000 C
ATOM     44  C4  IDS C   3      38.835  87.718 112.1620  0.00  0.00     0.000 C
ATOM     45  C5  IDS C   3      38.252  87.174 110.8410  0.00  0.00     0.000 C
ATOM     46  O5  IDS C   3      36.850  87.445 110.7910  0.00  0.00     0.000 O
ATOM     47   O  IDS C   3      38.445  85.730 113.4730  0.00  0.00     0.000 O
ATOM     49  HD  IDS C   3      38.121  86.473 113.7810  0.00  0.00     0.000 HD
BRANCH 42 49
ATOM     49   O  IDS C   3      36.209  88.658 113.3760  0.00  0.00     0.000 O
ATOM     50   S  IDS C   3      35.121  89.056 114.4820  0.00  0.00     0.000 S
ATOM     51   O  IDS C   3      35.824  88.855 115.7300  0.00  0.00     0.000 OA
ATOM     52   O  IDS C   3      33.960  88.191 114.3510  0.00  0.00     0.000 OA
ATOM     53   O  IDS C   3      34.794  90.444 114.2370  0.00  0.00     0.000 OA
ENDBRANCH 42 49
BRANCH 45 54
ATOM     54   C  IDS C   3      38.909  87.766 109.6040  0.00  0.00     0.000 C
ATOM     55   O  IDS C   3      38.247  88.398 108.8220  0.00  0.00     0.000 OA
ATOM     56   O  IDS C   3      40.094  87.585 109.4000  0.00  0.00     0.000 OA
ENDBRANCH 45 54
BRANCH 41 57
ATOM     57  O4  SGN C   4      36.123  85.413 111.8600  0.00  0.00     0.000 O
BRANCH 57 61
ATOM     58  C1  SGN C   4      34.322  82.262 109.7720  0.00  0.00     0.000 C
ATOM     59  C2  SGN C   4      35.086  83.300 108.9340  0.00  0.00     0.000 C
ATOM     60  C3  SGN C   4      36.022  84.142 109.8120  0.00  0.00     0.000 C
ATOM     61  C4  SGN C   4      35.231  84.754 110.9550  0.00  0.00     0.000 C
ATOM     62  C5  SGN C   4      34.476  83.671 111.7250  0.00  0.00     0.000 C
ATOM     63  O5  SGN C   4      33.639  82.908 110.8360  0.00  0.00     0.000 O
BRANCH 59 66
ATOM     64   N  SGN C   4      35.682  82.516 107.8470  0.00  0.00     0.000 N
ATOM     66  HD  SGN C   4      35.511  83.133 108.4300  0.00  0.00     0.000 HD
ATOM     66   O  SGN C   4      36.147  82.026 105.5060  0.00  0.00     0.000 OA
ATOM     67   O  SGN C   4      33.916  82.813 106.1750  0.00  0.00     0.000 OA
ATOM     68   S  SGN C   4      35.469  82.974 106.3240  0.00  0.00     0.000 S
ATOM     69   O  SGN C   4      35.802  84.349 106.2190  0.00  0.00     0.000 OA
ENDBRANCH 59 66
BRANCH 62 70
ATOM     70   C  SGN C   4      33.578  84.266 112.7810  0.00  0.00     0.000 C
ATOM     71   S  SGN C   4      31.134  84.798 113.3410  0.00  0.00     0.000 S
ATOM     72   O  SGN C   4      31.336  84.257 114.6710  0.00  0.00     0.000 OA
ATOM     73   O  SGN C   4      31.432  86.213 113.2450  0.00  0.00     0.000 OA
ATOM     74   O  SGN C   4      29.866  84.429 112.7530  0.00  0.00     0.000 OA
ATOM     75   O  SGN C   4      32.204  84.054 112.4340  0.00  0.00     0.000 O
ENDBRANCH 62 70
ENDBRANCH 57 61
ENDBRANCH 41 57
ENDBRANCH 40 44
ENDBRANCH 20 40
ENDBRANCH 19 23
ENDBRANCH 1 19
TORSDOF 14
ENDMDL
MODEL 64
REMARK VINA RESULT:       0.1     34.691     38.553
ROOT
ATOM      1  C1  IDS C   1     105.365  95.756  36.8970  0.00  0.00     0.000 C
ATOM      2  C2  IDS C   1     104.017  95.111  36.6300  0.00  0.00     0.000 C
ATOM      3  C3  IDS C   1     104.062  94.270  35.3600  0.00  0.00     0.000 C
ATOM      4  C4  IDS C   1     105.242  93.298  35.3840  0.00  0.00     0.000 C
ATOM      5  C5  IDS C   1     106.539  94.042  35.7570  0.00  0.00     0.000 C
ATOM      6  O5  IDS C   1     106.374  94.750  36.9810  0.00  0.00     0.000 O
ATOM      7   O  IDS C   1     104.145  95.129  34.2220  0.00  0.00     0.000 O
ATOM      9  HD  IDS C   1     104.528  94.416  33.9120  0.00  0.00     0.000 HD
ATOM      9   O  IDS C   1     104.984  92.274  36.3570  0.00  0.00     0.000 O
ATOM     11  HD  IDS C   1     105.366  91.561  36.0480  0.00  0.00     0.000 HD
ENDROOT
BRANCH 2 11
ATOM     11   O  IDS C   1     103.648  94.217  37.7490  0.00  0.00     0.000 O
ATOM     12   S  IDS C   1     102.303  94.461  38.5770  0.00  0.00     0.000 S
ATOM     13   O  IDS C   1     101.890  93.113  38.8970  0.00  0.00     0.000 OA
ATOM     14   O  IDS C   1     101.351  95.160  37.7470  0.00  0.00     0.000 OA
ATOM     15   O  IDS C   1     102.719  95.223  39.7280  0.00  0.00     0.000 OA
ENDBRANCH 2 11
BRANCH 5 16
ATOM     16   C  IDS C   1     107.736  93.121  35.9130  0.00  0.00     0.000 C
ATOM     17   O  IDS C   1     107.729  92.052  35.3420  0.00  0.00     0.000 OA
ATOM     18   O  IDS C   1     108.668  93.434  36.6020  0.00  0.00     0.000 OA
ENDBRANCH 5 16
BRANCH 1 19
ATOM     19  O4  SGN C   2     105.700  96.863  36.2270  0.00  0.00     0.000 O
BRANCH 19 23
ATOM     20  C1  SGN C   2     107.568 100.587  36.4810  0.00  0.00     0.000 C
ATOM     21  C2  SGN C   2     108.487  99.360  36.4580  0.00  0.00     0.000 C
ATOM     22  C3  SGN C   2     107.719  98.150  35.9340  0.00  0.00     0.000 C
ATOM     23  C4  SGN C   2     106.480  97.919  36.7910  0.00  0.00     0.000 C
ATOM     24  C5  SGN C   2     105.643  99.199  36.8520  0.00  0.00     0.000 C
ATOM     25  O5  SGN C   2     106.457 100.293  37.3120  0.00  0.00     0.000 O
ATOM     26   O  SGN C   2     108.553  96.997  35.9210  0.00  0.00     0.000 O
ATOM     28  HD  SGN C   2     109.143  96.365  35.8800  0.00  0.00     0.000 HD
BRANCH 21 30
ATOM     28   N  SGN C   2     109.543 100.215  35.8990  0.00  0.00     0.000 N
ATOM     30  HD  SGN C   2     110.036  99.889  35.2660  0.00  0.00     0.000 HD
ATOM     30   S  SGN C   2     111.045 100.141  36.4450  0.00  0.00     0.000 S
ATOM     31   O  SGN C   2     111.412  98.768  36.3540  0.00  0.00     0.000 OA
ATOM     32   O  SGN C   2     111.815 101.124  35.7770  0.00  0.00     0.000 OA
ATOM     33   O  SGN C   2     110.928 100.589  37.9420  0.00  0.00     0.000 OA
ENDBRANCH 21 30
BRANCH 24 34
ATOM     34   C  SGN C   2     104.469  99.113  37.7990  0.00  0.00     0.000 C
ATOM     35   O  SGN C   2     103.259  98.977  37.0330  0.00  0.00     0.000 O
ATOM     36   S  SGN C   2     101.890  99.339  37.7690  0.00  0.00     0.000 S
ATOM     37   O  SGN C   2     102.091 100.679  38.2840  0.00  0.00     0.000 OA
ATOM     38   O  SGN C   2     100.869  99.263  36.7520  0.00  0.00     0.000 OA
ATOM     39   O  SGN C   2     101.768  98.331  38.7930  0.00  0.00     0.000 OA
ENDBRANCH 24 34
BRANCH 20 40
ATOM     40  O4  IDS C   3     107.130 101.050  35.3130  0.00  0.00     0.000 O
BRANCH 40 44
ATOM     41  C1  IDS C   3     106.354 102.463  32.1780  0.00  0.00     0.000 C
ATOM     42  C2  IDS C   3     107.797 102.200  32.5990  0.00  0.00     0.000 C
ATOM     43  C3  IDS C   3     108.072 102.819  33.9670  0.00  0.00     0.000 C
ATOM     44  C4  IDS C   3     107.007 102.436  34.9830  0.00  0.00     0.000 C
ATOM     45  C5  IDS C   3     105.604 102.710  34.4020  0.00  0.00     0.000 C
ATOM     46  O5  IDS C   3     105.448 101.996  33.1740  0.00  0.00     0.000 O
ATOM     47   O  IDS C   3     108.134 104.238  33.8410  0.00  0.00     0.000 O
ATOM     49  HD  IDS C   3     108.463 103.443  33.7400  0.00  0.00     0.000 HD
BRANCH 42 49
ATOM     49   O  IDS C   3     108.046 100.742  32.6800  0.00  0.00     0.000 O
ATOM     50   S  IDS C   3     109.355 100.121  31.9960  0.00  0.00     0.000 S
ATOM     51   O  IDS C   3     110.426 100.572  32.8570  0.00  0.00     0.000 OA
ATOM     52   O  IDS C   3     109.478 100.628  30.6400  0.00  0.00     0.000 OA
ATOM     53   O  IDS C   3     109.176  98.685  32.0250  0.00  0.00     0.000 OA
ENDBRANCH 42 49
BRANCH 45 54
ATOM     54   C  IDS C   3     104.475 102.316  35.3420  0.00  0.00     0.000 C
ATOM     55   O  IDS C   3     103.629 101.546  34.9690  0.00  0.00     0.000 OA
ATOM     56   O  IDS C   3     104.422 102.792  36.4600  0.00  0.00     0.000 OA
ENDBRANCH 45 54
BRANCH 41 57
ATOM     57  O4  SGN C   4     106.301 103.722  31.7260  0.00  0.00     0.000 O
BRANCH 57 61
ATOM     58  C1  SGN C   4     103.970 105.928  29.0380  0.00  0.00     0.000 C
ATOM     59  C2  SGN C   4     103.220 104.976  29.9830  0.00  0.00     0.000 C
ATOM     60  C3  SGN C   4     104.107 104.553  31.1620  0.00  0.00     0.000 C
ATOM     61  C4  SGN C   4     105.411 103.977  30.6350  0.00  0.00     0.000 C
ATOM     62  C5  SGN C   4     106.086 104.961  29.6820  0.00  0.00     0.000 C
ATOM     63  O5  SGN C   4     105.189 105.332  28.6170  0.00  0.00     0.000 O
BRANCH 59 66
ATOM     64   N  SGN C   4     101.968 105.678  30.2840  0.00  0.00     0.000 N
ATOM     66  HD  SGN C   4     102.653 105.149  30.3170  0.00  0.00     0.000 HD
ATOM     66   O  SGN C   4      99.543 105.850  30.4450  0.00  0.00     0.000 OA
ATOM     67   O  SGN C   4     100.566 104.684  28.5380  0.00  0.00     0.000 OA
ATOM     68   S  SGN C   4     100.565 104.925  30.0880  0.00  0.00     0.000 S
ATOM     69   O  SGN C   4     100.633 103.673  30.7500  0.00  0.00     0.000 OA
ENDBRANCH 59 66
BRANCH 62 70
ATOM     70   C  SGN C   4     107.312 104.361  29.0410  0.00  0.00     0.000 C
ATOM     71   S  SGN C   4     109.771 104.815  28.4790  0.00  0.00     0.000 S
ATOM     72   O  SGN C   4     110.112 103.493  28.9650  0.00  0.00     0.000 OA
ATOM     73   O  SGN C   4     109.432 104.839  27.0700  0.00  0.00     0.000 OA
ATOM     74   O  SGN C   4     110.717 105.835  28.8680  0.00  0.00     0.000 OA
ATOM     75   O  SGN C   4     108.447 105.206  29.2630  0.00  0.00     0.000 O
ENDBRANCH 62 70
ENDBRANCH 57 61
ENDBRANCH 41 57
ENDBRANCH 40 44
ENDBRANCH 20 40
ENDBRANCH 19 23
ENDBRANCH 1 19
TORSDOF 14
ENDMDL
MODEL 65
REMARK VINA RESULT:       0.1     99.456    104.034
ROOT
ATOM      1  C1  IDS C   1      81.835  26.762  14.6350  0.00  0.00     0.000 C
ATOM      2  C2  IDS C   1      82.151  26.739  16.1200  0.00  0.00     0.000 C
ATOM      3  C3  IDS C   1      81.338  25.663  16.8280  0.00  0.00     0.000 C
ATOM      4  C4  IDS C   1      81.476  24.313  16.1240  0.00  0.00     0.000 C
ATOM      5  C5  IDS C   1      81.226  24.473  14.6110  0.00  0.00     0.000 C
ATOM      6  O5  IDS C   1      82.079  25.476  14.0690  0.00  0.00     0.000 O
ATOM      7   O  IDS C   1      79.966  26.060  16.8830  0.00  0.00     0.000 O
ATOM      9  HD  IDS C   1      79.884  25.198  16.9050  0.00  0.00     0.000 HD
ATOM      9   O  IDS C   1      82.804  23.809  16.3380  0.00  0.00     0.000 O
ATOM     11  HD  IDS C   1      82.721  22.947  16.3590  0.00  0.00     0.000 HD
ENDROOT
BRANCH 2 11
ATOM     11   O  IDS C   1      83.583  26.434  16.3320  0.00  0.00     0.000 O
ATOM     12   S  IDS C   1      84.531  27.469  17.0960  0.00  0.00     0.000 S
ATOM     13   O  IDS C   1      85.438  26.590  17.8020  0.00  0.00     0.000 OA
ATOM     14   O  IDS C   1      83.734  28.284  17.9810  0.00  0.00     0.000 OA
ATOM     15   O  IDS C   1      85.165  28.224  16.0450  0.00  0.00     0.000 OA
ENDBRANCH 2 11
BRANCH 5 16
ATOM     16   C  IDS C   1      81.459  23.194  13.8270  0.00  0.00     0.000 C
ATOM     17   O  IDS C   1      81.375  22.131  14.4040  0.00  0.00     0.000 OA
ATOM     18   O  IDS C   1      81.738  23.230  12.6600  0.00  0.00     0.000 OA
ENDBRANCH 5 16
BRANCH 1 19
ATOM     19  O4  SGN C   2      80.729  27.384  14.2160  0.00  0.00     0.000 O
BRANCH 19 23
ATOM     20  C1  SGN C   2      79.078  29.803  11.2420  0.00  0.00     0.000 C
ATOM     21  C2  SGN C   2      79.314  28.333  10.8760  0.00  0.00     0.000 C
ATOM     22  C3  SGN C   2      79.494  27.508  12.1470  0.00  0.00     0.000 C
ATOM     23  C4  SGN C   2      80.640  28.082  12.9730  0.00  0.00     0.000 C
ATOM     24  C5  SGN C   2      80.397  29.570  13.2350  0.00  0.00     0.000 C
ATOM     25  O5  SGN C   2      80.194  30.259  11.9880  0.00  0.00     0.000 O
ATOM     26   O  SGN C   2      79.731  26.142  11.8260  0.00  0.00     0.000 O
ATOM     28  HD  SGN C   2      79.800  25.324  11.5480  0.00  0.00     0.000 HD
BRANCH 21 30
ATOM     28   N  SGN C   2      78.577  28.792   9.6910  0.00  0.00     0.000 N
ATOM     30  HD  SGN C   2      77.738  28.588   9.6310  0.00  0.00     0.000 HD
ATOM     30   S  SGN C   2      78.398  27.851   8.4090  0.00  0.00     0.000 S
ATOM     31   O  SGN C   2      77.840  26.639   8.9070  0.00  0.00     0.000 OA
ATOM     32   O  SGN C   2      77.718  28.583   7.4060  0.00  0.00     0.000 OA
ATOM     33   O  SGN C   2      79.861  27.623   7.8980  0.00  0.00     0.000 OA
ENDBRANCH 21 30
BRANCH 24 34
ATOM     34   C  SGN C   2      81.552  30.262  13.9210  0.00  0.00     0.000 C
ATOM     35   O  SGN C   2      81.188  30.538  15.2850  0.00  0.00     0.000 O
ATOM     36   S  SGN C   2      82.033  31.657  16.0490  0.00  0.00     0.000 S
ATOM     37   O  SGN C   2      81.961  32.824  15.1920  0.00  0.00     0.000 OA
ATOM     38   O  SGN C   2      81.378  31.838  17.3220  0.00  0.00     0.000 OA
ATOM     39   O  SGN C   2      83.354  31.086  16.1500  0.00  0.00     0.000 OA
ENDBRANCH 24 34
BRANCH 20 40
ATOM     40  O4  IDS C   3      77.960  30.101  11.9000  0.00  0.00     0.000 O
BRANCH 40 44
ATOM     41  C1  IDS C   3      74.617  30.820  12.7560  0.00  0.00     0.000 C
ATOM     42  C2  IDS C   3      75.007  30.412  11.3390  0.00  0.00     0.000 C
ATOM     43  C3  IDS C   3      76.150  31.287  10.8300  0.00  0.00     0.000 C
ATOM     44  C4  IDS C   3      77.290  31.363  11.8330  0.00  0.00     0.000 C
ATOM     45  C5  IDS C   3      76.741  31.735  13.2260  0.00  0.00     0.000 C
ATOM     46  O5  IDS C   3      75.751  30.783  13.6180  0.00  0.00     0.000 O
ATOM     47   O  IDS C   3      75.657  32.596  10.5550  0.00  0.00     0.000 O
ATOM     49  HD  IDS C   3      75.747  31.755  10.3690  0.00  0.00     0.000 HD
BRANCH 42 49
ATOM     49   O  IDS C   3      75.448  28.998  11.3190  0.00  0.00     0.000 O
ATOM     50   S  IDS C   3      74.586  27.909  10.5210  0.00  0.00     0.000 S
ATOM     51   O  IDS C   3      74.838  28.234   9.1350  0.00  0.00     0.000 OA
ATOM     52   O  IDS C   3      73.184  28.045  10.8800  0.00  0.00     0.000 OA
ATOM     53   O  IDS C   3      75.121  26.619  10.9040  0.00  0.00     0.000 OA
ENDBRANCH 42 49
BRANCH 45 54
ATOM     54   C  IDS C   3      77.816  31.794  14.3010  0.00  0.00     0.000 C
ATOM     55   O  IDS C   3      77.755  31.052  15.2460  0.00  0.00     0.000 OA
ATOM     56   O  IDS C   3      78.721  32.600  14.2100  0.00  0.00     0.000 OA
ENDBRANCH 45 54
BRANCH 41 57
ATOM     57  O4  SGN C   4      73.859  31.918  12.6530  0.00  0.00     0.000 O
BRANCH 57 61
ATOM     58  C1  SGN C   4      71.016  33.960  14.9510  0.00  0.00     0.000 C
ATOM     59  C2  SGN C   4      72.353  33.635  15.6350  0.00  0.00     0.000 C
ATOM     60  C3  SGN C   4      73.431  33.273  14.6030  0.00  0.00     0.000 C
ATOM     61  C4  SGN C   4      72.923  32.154  13.7100  0.00  0.00     0.000 C
ATOM     62  C5  SGN C   4      71.579  32.533  13.0880  0.00  0.00     0.000 C
ATOM     63  O5  SGN C   4      70.627  32.882  14.1110  0.00  0.00     0.000 O
BRANCH 59 66
ATOM     64   N  SGN C   4      72.598  34.785  16.5110  0.00  0.00     0.000 N
ATOM     66  HD  SGN C   4      72.697  34.082  16.0160  0.00  0.00     0.000 HD
ATOM     66   O  SGN C   4      73.112  35.833  18.6490  0.00  0.00     0.000 OA
ATOM     67   O  SGN C   4      71.602  33.895  18.5650  0.00  0.00     0.000 OA
ATOM     68   S  SGN C   4      72.936  34.549  18.0620  0.00  0.00     0.000 S
ATOM     69   O  SGN C   4      73.980  33.593  18.1520  0.00  0.00     0.000 OA
ENDBRANCH 59 66
BRANCH 62 70
ATOM     70   C  SGN C   4      70.989  31.388  12.3040  0.00  0.00     0.000 C
ATOM     71   S  SGN C   4      69.184  29.568  12.3630  0.00  0.00     0.000 S
ATOM     72   O  SGN C   4      68.824  29.901  10.9990  0.00  0.00     0.000 OA
ATOM     73   O  SGN C   4      70.220  28.560  12.4540  0.00  0.00     0.000 OA
ATOM     74   O  SGN C   4      68.045  29.312  13.2150  0.00  0.00     0.000 OA
ATOM     75   O  SGN C   4      69.808  30.903  12.9540  0.00  0.00     0.000 O
ENDBRANCH 62 70
ENDBRANCH 57 61
ENDBRANCH 41 57
ENDBRANCH 40 44
ENDBRANCH 20 40
ENDBRANCH 19 23
ENDBRANCH 1 19
TORSDOF 14
ENDMDL
MODEL 66
REMARK VINA RESULT:       0.1     66.652     72.097
ROOT
ATOM      1  C1  IDS C   1      95.313  43.263  47.9200  0.00  0.00     0.000 C
ATOM      2  C2  IDS C   1      95.932  44.146  46.8510  0.00  0.00     0.000 C
ATOM      3  C3  IDS C   1      97.038  45.014  47.4400  0.00  0.00     0.000 C
ATOM      4  C4  IDS C   1      98.038  44.171  48.2320  0.00  0.00     0.000 C
ATOM      5  C5  IDS C   1      97.295  43.247  49.2180  0.00  0.00     0.000 C
ATOM      6  O5  IDS C   1      96.324  42.464  48.5320  0.00  0.00     0.000 O
ATOM      7   O  IDS C   1      96.460  46.019  48.2750  0.00  0.00     0.000 O
ATOM      9  HD  IDS C   1      97.243  45.940  48.6380  0.00  0.00     0.000 HD
ATOM      9   O  IDS C   1      98.803  43.373  47.3160  0.00  0.00     0.000 O
ATOM     11  HD  IDS C   1      99.585  43.293  47.6780  0.00  0.00     0.000 HD
ENDROOT
BRANCH 2 11
ATOM     11   O  IDS C   1      96.533  43.313  45.7860  0.00  0.00     0.000 O
ATOM     12   S  IDS C   1      96.031  43.438  44.2740  0.00  0.00     0.000 S
ATOM     13   O  IDS C   1      97.248  43.211  43.5270  0.00  0.00     0.000 OA
ATOM     14   O  IDS C   1      95.477  44.754  44.0620  0.00  0.00     0.000 OA
ATOM     15   O  IDS C   1      95.060  42.383  44.1260  0.00  0.00     0.000 OA
ENDBRANCH 2 11
BRANCH 5 16
ATOM     16   C  IDS C   1      98.217  42.296  49.9590  0.00  0.00     0.000 C
ATOM     17   O  IDS C   1      97.748  41.291  50.4500  0.00  0.00     0.000 OA
ATOM     18   O  IDS C   1      99.387  42.537  50.0740  0.00  0.00     0.000 OA
ENDBRANCH 5 16
BRANCH 1 19
ATOM     19  O4  SGN C   2      94.402  43.786  48.7470  0.00  0.00     0.000 O
BRANCH 19 23
ATOM     20  C1  SGN C   2      90.815  43.097  50.7670  0.00  0.00     0.000 C
ATOM     21  C2  SGN C   2      92.064  42.416  51.3380  0.00  0.00     0.000 C
ATOM     22  C3  SGN C   2      93.317  43.090  50.7850  0.00  0.00     0.000 C
ATOM     23  C4  SGN C   2      93.292  43.050  49.2620  0.00  0.00     0.000 C
ATOM     24  C5  SGN C   2      91.986  43.663  48.7480  0.00  0.00     0.000 C
ATOM     25  O5  SGN C   2      90.863  42.997  49.3530  0.00  0.00     0.000 O
ATOM     26   O  SGN C   2      94.488  42.460  51.2930  0.00  0.00     0.000 O
ATOM     28  HD  SGN C   2      95.144  42.067  51.6990  0.00  0.00     0.000 HD
BRANCH 21 30
ATOM     28   N  SGN C   2      91.082  42.104  52.3850  0.00  0.00     0.000 N
ATOM     30  HD  SGN C   2      91.104  42.572  53.1130  0.00  0.00     0.000 HD
ATOM     30   S  SGN C   2      91.440  41.112  53.5890  0.00  0.00     0.000 S
ATOM     31   O  SGN C   2      92.636  41.632  54.1620  0.00  0.00     0.000 OA
ATOM     32   O  SGN C   2      90.286  40.946  54.3910  0.00  0.00     0.000 OA
ATOM     33   O  SGN C   2      91.710  39.740  52.8830  0.00  0.00     0.000 OA
ENDBRANCH 21 30
BRANCH 24 34
ATOM     34   C  SGN C   2      91.803  43.535  47.2540  0.00  0.00     0.000 C
ATOM     35   O  SGN C   2      91.990  44.826  46.6480  0.00  0.00     0.000 O
ATOM     36   S  SGN C   2      91.393  45.032  45.1810  0.00  0.00     0.000 S
ATOM     37   O  SGN C   2      89.998  44.651  45.2940  0.00  0.00     0.000 OA
ATOM     38   O  SGN C   2      91.582  46.430  44.8770  0.00  0.00     0.000 OA
ATOM     39   O  SGN C   2      92.177  44.145  44.3580  0.00  0.00     0.000 OA
ENDBRANCH 24 34
BRANCH 20 40
ATOM     40  O4  IDS C   3      90.594  44.364  51.1090  0.00  0.00     0.000 O
BRANCH 40 44
ATOM     41  C1  IDS C   3      89.684  47.306  52.8240  0.00  0.00     0.000 C
ATOM     42  C2  IDS C   3      89.602  45.936  53.4910  0.00  0.00     0.000 C
ATOM     43  C3  IDS C   3      88.809  44.967  52.6180  0.00  0.00     0.000 C
ATOM     44  C4  IDS C   3      89.302  44.973  51.1790  0.00  0.00     0.000 C
ATOM     45  C5  IDS C   3      89.381  46.422  50.6560  0.00  0.00     0.000 C
ATOM     46  O5  IDS C   3      90.228  47.192  51.5120  0.00  0.00     0.000 O
ATOM     47   O  IDS C   3      87.428  45.316  52.6590  0.00  0.00     0.000 O
ATOM     49  HD  IDS C   3      88.143  44.973  53.0060  0.00  0.00     0.000 HD
BRANCH 42 49
ATOM     49   O  IDS C   3      90.963  45.386  53.6940  0.00  0.00     0.000 O
ATOM     50   S  IDS C   3      91.518  45.170  55.1810  0.00  0.00     0.000 S
ATOM     51   O  IDS C   3      90.754  44.040  55.6610  0.00  0.00     0.000 OA
ATOM     52   O  IDS C   3      91.286  46.373  55.9630  0.00  0.00     0.000 OA
ATOM     53   O  IDS C   3      92.929  44.877  55.0410  0.00  0.00     0.000 OA
ENDBRANCH 42 49
BRANCH 45 54
ATOM     54   C  IDS C   3      89.905  46.521  49.2320  0.00  0.00     0.000 C
ATOM     55   O  IDS C   3      90.921  47.128  49.0110  0.00  0.00     0.000 OA
ATOM     56   O  IDS C   3      89.288  46.004  48.3210  0.00  0.00     0.000 OA
ENDBRANCH 45 54
BRANCH 41 57
ATOM     57  O4  SGN C   4      88.513  47.917  53.0400  0.00  0.00     0.000 O
BRANCH 57 61
ATOM     58  C1  SGN C   4      86.997  51.820  53.0370  0.00  0.00     0.000 C
ATOM     59  C2  SGN C   4      87.759  51.373  51.7790  0.00  0.00     0.000 C
ATOM     60  C3  SGN C   4      87.897  49.845  51.7270  0.00  0.00     0.000 C
ATOM     61  C4  SGN C   4      88.522  49.348  53.0200  0.00  0.00     0.000 C
ATOM     62  C5  SGN C   4      87.732  49.853  54.2260  0.00  0.00     0.000 C
ATOM     63  O5  SGN C   4      87.622  51.289  54.1960  0.00  0.00     0.000 O
BRANCH 59 66
ATOM     64   N  SGN C   4      87.057  52.038  50.6760  0.00  0.00     0.000 N
ATOM     66  HD  SGN C   4      87.542  51.496  51.1460  0.00  0.00     0.000 HD
ATOM     66   O  SGN C   4      86.944  53.425  48.6770  0.00  0.00     0.000 OA
ATOM     67   O  SGN C   4      88.446  54.049  50.5200  0.00  0.00     0.000 OA
ATOM     68   S  SGN C   4      87.885  52.903  49.6090  0.00  0.00     0.000 S
ATOM     69   O  SGN C   4      88.967  52.117  49.1380  0.00  0.00     0.000 OA
ENDBRANCH 59 66
BRANCH 62 70
ATOM     70   C  SGN C   4      88.407  49.486  55.5240  0.00  0.00     0.000 C
ATOM     71   S  SGN C   4      89.844  50.419  57.4310  0.00  0.00     0.000 S
ATOM     72   O  SGN C   4      88.979  49.756  58.3870  0.00  0.00     0.000 OA
ATOM     73   O  SGN C   4      90.948  49.593  56.9870  0.00  0.00     0.000 OA
ATOM     74   O  SGN C   4      90.236  51.750  57.8330  0.00  0.00     0.000 OA
ATOM     75   O  SGN C   4      88.928  50.661  56.1570  0.00  0.00     0.000 O
ENDBRANCH 62 70
ENDBRANCH 57 61
ENDBRANCH 41 57
ENDBRANCH 40 44
ENDBRANCH 20 40
ENDBRANCH 19 23
ENDBRANCH 1 19
TORSDOF 14
ENDMDL
MODEL 67
REMARK VINA RESULT:       0.1     76.952     84.298
ROOT
ATOM      1  C1  IDS C   1      34.905  92.226 110.0310  0.00  0.00     0.000 C
ATOM      2  C2  IDS C   1      35.351  92.952 108.7750  0.00  0.00     0.000 C
ATOM      3  C3  IDS C   1      34.514  94.204 108.5470  0.00  0.00     0.000 C
ATOM      4  C4  IDS C   1      34.467  95.073 109.8040  0.00  0.00     0.000 C
ATOM      5  C5  IDS C   1      34.096  94.216 111.0310  0.00  0.00     0.000 C
ATOM      6  O5  IDS C   1      34.981  93.107 111.1510  0.00  0.00     0.000 O
ATOM      7   O  IDS C   1      33.194  93.829 108.1490  0.00  0.00     0.000 O
ATOM      9  HD  IDS C   1      33.038  94.597 108.5160  0.00  0.00     0.000 HD
ATOM      9   O  IDS C   1      35.758  95.665 110.0100  0.00  0.00     0.000 O
ATOM     11  HD  IDS C   1      35.602  96.434 110.3780  0.00  0.00     0.000 HD
ENDROOT
BRANCH 2 11
ATOM     11   O  IDS C   1      36.764  93.373 108.9030  0.00  0.00     0.000 O
ATOM     12   S  IDS C   1      37.900  92.696 108.0050  0.00  0.00     0.000 S
ATOM     13   O  IDS C   1      38.807  93.799 107.7760  0.00  0.00     0.000 OA
ATOM     14   O  IDS C   1      37.310  92.191 106.7890  0.00  0.00     0.000 OA
ATOM     15   O  IDS C   1      38.454  91.660 108.8400  0.00  0.00     0.000 OA
ENDBRANCH 2 11
BRANCH 5 16
ATOM     16   C  IDS C   1      34.142  94.987 112.3380  0.00  0.00     0.000 C
ATOM     17   O  IDS C   1      33.880  94.406 113.3690  0.00  0.00     0.000 OA
ATOM     18   O  IDS C   1      34.415  96.156 112.3530  0.00  0.00     0.000 OA
ENDBRANCH 5 16
BRANCH 1 19
ATOM     19  O4  SGN C   2      33.825  91.441 109.9780  0.00  0.00     0.000 O
BRANCH 19 23
ATOM     20  C1  SGN C   2      31.996  88.017 111.5130  0.00  0.00     0.000 C
ATOM     21  C2  SGN C   2      32.063  89.233 112.4440  0.00  0.00     0.000 C
ATOM     22  C3  SGN C   2      32.343  90.492 111.6280  0.00  0.00     0.000 C
ATOM     23  C4  SGN C   2      33.630  90.312 110.8320  0.00  0.00     0.000 C
ATOM     24  C5  SGN C   2      33.544  89.038 109.9870  0.00  0.00     0.000 C
ATOM     25  O5  SGN C   2      33.234  87.913 110.8290  0.00  0.00     0.000 O
ATOM     26   O  SGN C   2      32.424  91.630 112.4790  0.00  0.00     0.000 O
ATOM     28  HD  SGN C   2      32.389  92.276 113.0550  0.00  0.00     0.000 HD
BRANCH 21 30
ATOM     28   N  SGN C   2      31.215  88.332 113.2360  0.00  0.00     0.000 N
ATOM     30  HD  SGN C   2      30.361  88.478 113.2410  0.00  0.00     0.000 HD
ATOM     30   S  SGN C   2      30.794  88.694 114.7360  0.00  0.00     0.000 S
ATOM     31   O  SGN C   2      30.212  89.992 114.6610  0.00  0.00     0.000 OA
ATOM     32   O  SGN C   2      30.048  87.614 115.2670  0.00  0.00     0.000 OA
ATOM     33   O  SGN C   2      32.154  88.736 115.5130  0.00  0.00     0.000 OA
ENDBRANCH 21 30
BRANCH 24 34
ATOM     34   C  SGN C   2      34.831  88.695 109.2740  0.00  0.00     0.000 C
ATOM     35   O  SGN C   2      34.684  88.993 107.8740  0.00  0.00     0.000 O
ATOM     36   S  SGN C   2      35.707  88.290 106.8710  0.00  0.00     0.000 S
ATOM     37   O  SGN C   2      35.600  86.875 107.1670  0.00  0.00     0.000 OA
ATOM     38   O  SGN C   2      35.253  88.635 105.5460  0.00  0.00     0.000 OA
ATOM     39   O  SGN C   2      36.984  88.865 107.2170  0.00  0.00     0.000 OA
ENDBRANCH 24 34
BRANCH 20 40
ATOM     40  O4  IDS C   3      31.003  87.973 110.6280  0.00  0.00     0.000 O
BRANCH 40 44
ATOM     41  C1  IDS C   3      27.869  87.564 109.0650  0.00  0.00     0.000 C
ATOM     42  C2  IDS C   3      28.038  87.391 110.5720  0.00  0.00     0.000 C
ATOM     43  C3  IDS C   3      29.174  86.416 110.8700  0.00  0.00     0.000 C
ATOM     44  C4  IDS C   3      30.437  86.770 110.1010  0.00  0.00     0.000 C
ATOM     45  C5  IDS C   3      30.106  86.962 108.6070  0.00  0.00     0.000 C
ATOM     46  O5  IDS C   3      29.099  87.966 108.4670  0.00  0.00     0.000 O
ATOM     47   O  IDS C   3      28.760  85.092 110.5410  0.00  0.00     0.000 O
ATOM     49  HD  IDS C   3      28.755  85.794 111.0480  0.00  0.00     0.000 HD
BRANCH 42 49
ATOM     49   O  IDS C   3      28.354  88.694 111.2020  0.00  0.00     0.000 O
ATOM     50   S  IDS C   3      27.306  89.361 112.2130  0.00  0.00     0.000 S
ATOM     51   O  IDS C   3      27.397  88.524 113.3890  0.00  0.00     0.000 OA
ATOM     52   O  IDS C   3      25.980  89.343 111.6170  0.00  0.00     0.000 OA
ATOM     53   O  IDS C   3      27.779  90.710 112.4440  0.00  0.00     0.000 OA
ENDBRANCH 42 49
BRANCH 45 54
ATOM     54   C  IDS C   3      31.311  87.359 107.7690  0.00  0.00     0.000 C
ATOM     55   O  IDS C   3      32.251  86.611 107.6840  0.00  0.00     0.000 OA
ATOM     56   O  IDS C   3      31.328  88.434 107.2020  0.00  0.00     0.000 OA
ENDBRANCH 45 54
BRANCH 41 57
ATOM     57  O4  SGN C   4      27.198  86.495 108.6210  0.00  0.00     0.000 O
BRANCH 57 61
ATOM     58  C1  SGN C   4      24.692  85.517 105.4130  0.00  0.00     0.000 C
ATOM     59  C2  SGN C   4      26.026  86.197 105.0650  0.00  0.00     0.000 C
ATOM     60  C3  SGN C   4      27.007  86.127 106.2440  0.00  0.00     0.000 C
ATOM     61  C4  SGN C   4      26.347  86.696 107.4880  0.00  0.00     0.000 C
ATOM     62  C5  SGN C   4      25.015  85.995 107.7560  0.00  0.00     0.000 C
ATOM     63  O5  SGN C   4      24.157  86.079 106.6020  0.00  0.00     0.000 O
BRANCH 59 66
ATOM     64   N  SGN C   4      26.433  85.576 103.8010  0.00  0.00     0.000 N
ATOM     66  HD  SGN C   4      26.433  85.993 104.5600  0.00  0.00     0.000 HD
ATOM     66   O  SGN C   4      27.152  85.626 101.4740  0.00  0.00     0.000 OA
ATOM     67   O  SGN C   4      25.437  87.201 102.2620  0.00  0.00     0.000 OA
ATOM     68   S  SGN C   4      26.811  86.500 102.5440  0.00  0.00     0.000 S
ATOM     69   O  SGN C   4      27.747  87.476 102.9720  0.00  0.00     0.000 OA
ENDBRANCH 59 66
BRANCH 62 70
ATOM     70   C  SGN C   4      24.276  86.631 108.9070  0.00  0.00     0.000 C
ATOM     71   S  SGN C   4      22.213  88.029 109.5060  0.00  0.00     0.000 S
ATOM     72   O  SGN C   4      21.943  87.131 110.6110  0.00  0.00     0.000 OA
ATOM     73   O  SGN C   4      23.079  89.134 109.8630  0.00  0.00     0.000 OA
ATOM     74   O  SGN C   4      21.027  88.428 108.7830  0.00  0.00     0.000 OA
ATOM     75   O  SGN C   4      23.019  87.150 108.4570  0.00  0.00     0.000 O
ENDBRANCH 62 70
ENDBRANCH 57 61
ENDBRANCH 41 57
ENDBRANCH 40 44
ENDBRANCH 20 40
ENDBRANCH 19 23
ENDBRANCH 1 19
TORSDOF 14
ENDMDL
MODEL 68
REMARK VINA RESULT:       0.1    102.606    106.653
ROOT
ATOM      1  C1  IDS C   1      10.614  64.448  97.3570  0.00  0.00     0.000 C
ATOM      2  C2  IDS C   1      10.342  65.719  98.1410  0.00  0.00     0.000 C
ATOM      3  C3  IDS C   1      11.556  66.640  98.1150  0.00  0.00     0.000 C
ATOM      4  C4  IDS C   1      12.048  66.864  96.6850  0.00  0.00     0.000 C
ATOM      5  C5  IDS C   1      12.199  65.514  95.9550  0.00  0.00     0.000 C
ATOM      6  O5  IDS C   1      10.983  64.775  96.0190  0.00  0.00     0.000 O
ATOM      7   O  IDS C   1      12.595  66.081  98.9200  0.00  0.00     0.000 O
ATOM      9  HD  IDS C   1      13.061  66.548  98.3590  0.00  0.00     0.000 HD
ATOM      9   O  IDS C   1      11.096  67.679  95.9860  0.00  0.00     0.000 O
ATOM     11  HD  IDS C   1      11.562  68.146  95.4240  0.00  0.00     0.000 HD
ENDROOT
BRANCH 2 11
ATOM     11   O  IDS C   1       9.206  66.455  97.5430  0.00  0.00     0.000 O
ATOM     12   S  IDS C   1       7.877  66.727  98.3880  0.00  0.00     0.000 S
ATOM     13   O  IDS C   1       7.463  68.024  97.8990  0.00  0.00     0.000 OA
ATOM     14   O  IDS C   1       8.198  66.732  99.7950  0.00  0.00     0.000 OA
ATOM     15   O  IDS C   1       6.984  65.660  98.0130  0.00  0.00     0.000 OA
ENDBRANCH 2 11
BRANCH 5 16
ATOM     16   C  IDS C   1      12.574  65.661  94.4920  0.00  0.00     0.000 C
ATOM     17   O  IDS C   1      11.709  65.950  93.6930  0.00  0.00     0.000 OA
ATOM     18   O  IDS C   1      13.703  65.481  94.1250  0.00  0.00     0.000 OA
ENDBRANCH 5 16
BRANCH 1 19
ATOM     19  O4  SGN C   2      11.316  63.467  97.9340  0.00  0.00     0.000 O
BRANCH 19 23
ATOM     20  C1  SGN C   2      11.707  59.333  98.3620  0.00  0.00     0.000 C
ATOM     21  C2  SGN C   2      12.187  59.933  97.0350  0.00  0.00     0.000 C
ATOM     22  C3  SGN C   2      12.388  61.438  97.1910  0.00  0.00     0.000 C
ATOM     23  C4  SGN C   2      11.092  62.081  97.6720  0.00  0.00     0.000 C
ATOM     24  C5  SGN C   2      10.612  61.388  98.9510  0.00  0.00     0.000 C
ATOM     25  O5  SGN C   2      10.494  59.972  98.7240  0.00  0.00     0.000 O
ATOM     26   O  SGN C   2      12.818  62.013  95.9630  0.00  0.00     0.000 O
ATOM     28  HD  SGN C   2      13.142  62.271  95.2020  0.00  0.00     0.000 HD
BRANCH 21 30
ATOM     28   N  SGN C   2      12.646  58.545  96.8880  0.00  0.00     0.000 N
ATOM     30  HD  SGN C   2      13.485  58.378  97.0240  0.00  0.00     0.000 HD
ATOM     30   S  SGN C   2      13.265  58.018  95.5100  0.00  0.00     0.000 S
ATOM     31   O  SGN C   2      14.314  58.928  95.1960  0.00  0.00     0.000 OA
ATOM     32   O  SGN C   2      13.544  56.636  95.6430  0.00  0.00     0.000 OA
ATOM     33   O  SGN C   2      12.086  58.151  94.4880  0.00  0.00     0.000 OA
ENDBRANCH 21 30
BRANCH 24 34
ATOM     34   C  SGN C   2       9.256  61.859  99.4230  0.00  0.00     0.000 C
ATOM     35   O  SGN C   2       9.425  62.665 100.6020  0.00  0.00     0.000 O
ATOM     36   S  SGN C   2       8.143  62.871 101.5300  0.00  0.00     0.000 S
ATOM     37   O  SGN C   2       7.677  61.529 101.8190  0.00  0.00     0.000 OA
ATOM     38   O  SGN C   2       8.616  63.578 102.6960  0.00  0.00     0.000 OA
ATOM     39   O  SGN C   2       7.239  63.640 100.7100  0.00  0.00     0.000 OA
ENDBRANCH 24 34
BRANCH 20 40
ATOM     40  O4  IDS C   3      12.547  59.373  99.3940  0.00  0.00     0.000 O
BRANCH 40 44
ATOM     41  C1  IDS C   3      15.156  58.724 101.6740  0.00  0.00     0.000 C
ATOM     42  C2  IDS C   3      15.030  57.951 100.3640  0.00  0.00     0.000 C
ATOM     43  C3  IDS C   3      13.623  57.376 100.2200  0.00  0.00     0.000 C
ATOM     44  C4  IDS C   3      12.556  58.430 100.4700  0.00  0.00     0.000 C
ATOM     45  C5  IDS C   3      12.840  59.161 101.7990  0.00  0.00     0.000 C
ATOM     46  O5  IDS C   3      14.150  59.729 101.7600  0.00  0.00     0.000 O
ATOM     47   O  IDS C   3      13.458  56.293 101.1330  0.00  0.00     0.000 O
ATOM     49  HD  IDS C   3      13.773  56.643 100.4060  0.00  0.00     0.000 HD
BRANCH 42 49
ATOM     49   O  IDS C   3      15.296  58.848  99.2160  0.00  0.00     0.000 O
ATOM     50   S  IDS C   3      16.577  58.592  98.2890  0.00  0.00     0.000 S
ATOM     51   O  IDS C   3      16.224  57.398  97.5540  0.00  0.00     0.000 OA
ATOM     52   O  IDS C   3      17.750  58.405  99.1270  0.00  0.00     0.000 OA
ATOM     53   O  IDS C   3      16.695  59.760  97.4420  0.00  0.00     0.000 OA
ENDBRANCH 42 49
BRANCH 45 54
ATOM     54   C  IDS C   3      11.838  60.263 102.1070  0.00  0.00     0.000 C
ATOM     55   O  IDS C   3      10.676  59.988 102.2580  0.00  0.00     0.000 OA
ATOM     56   O  IDS C   3      12.210  61.418 102.1810  0.00  0.00     0.000 OA
ENDBRANCH 45 54
BRANCH 41 57
ATOM     57  O4  SGN C   4      15.321  57.820 102.6480  0.00  0.00     0.000 O
BRANCH 57 61
ATOM     58  C1  SGN C   4      16.623  57.735 106.6260  0.00  0.00     0.000 C
ATOM     59  C2  SGN C   4      15.506  58.734 106.2860  0.00  0.00     0.000 C
ATOM     60  C3  SGN C   4      14.845  58.391 104.9430  0.00  0.00     0.000 C
ATOM     61  C4  SGN C   4      15.910  58.287 103.8650  0.00  0.00     0.000 C
ATOM     62  C5  SGN C   4      17.001  57.302 104.2820  0.00  0.00     0.000 C
ATOM     63  O5  SGN C   4      17.557  57.671 105.5580  0.00  0.00     0.000 O
BRANCH 59 66
ATOM     64   N  SGN C   4      14.658  58.751 107.4820  0.00  0.00     0.000 N
ATOM     66  HD  SGN C   4      14.953  58.825 106.6710  0.00  0.00     0.000 HD
ATOM     66   O  SGN C   4      13.470  59.849 109.3030  0.00  0.00     0.000 OA
ATOM     67   O  SGN C   4      15.699  60.644 108.6370  0.00  0.00     0.000 OA
ATOM     68   S  SGN C   4      14.284  60.149 108.1750  0.00  0.00     0.000 S
ATOM     69   O  SGN C   4      13.793  61.027 107.1750  0.00  0.00     0.000 OA
ENDBRANCH 59 66
BRANCH 62 70
ATOM     70   C  SGN C   4      18.137  57.280 103.2910  0.00  0.00     0.000 C
ATOM     71   S  SGN C   4      20.462  58.246 102.8050  0.00  0.00     0.000 S
ATOM     72   O  SGN C   4      20.925  56.917 102.4550  0.00  0.00     0.000 OA
ATOM     73   O  SGN C   4      19.911  58.976 101.6820  0.00  0.00     0.000 OA
ATOM     74   O  SGN C   4      21.416  59.004 103.5820  0.00  0.00     0.000 OA
ATOM     75   O  SGN C   4      19.259  58.003 103.8130  0.00  0.00     0.000 O
ENDBRANCH 62 70
ENDBRANCH 57 61
ENDBRANCH 41 57
ENDBRANCH 40 44
ENDBRANCH 20 40
ENDBRANCH 19 23
ENDBRANCH 1 19
TORSDOF 14
ENDMDL
MODEL 69
REMARK VINA RESULT:       0.1     80.510     84.810
ROOT
ATOM      1  C1  IDS C   1      68.656  39.097  88.4940  0.00  0.00     0.000 C
ATOM      2  C2  IDS C   1      69.313  40.382  88.9640  0.00  0.00     0.000 C
ATOM      3  C3  IDS C   1      68.898  40.711  90.3930  0.00  0.00     0.000 C
ATOM      4  C4  IDS C   1      69.106  39.511  91.3170  0.00  0.00     0.000 C
ATOM      5  C5  IDS C   1      68.481  38.245  90.6980  0.00  0.00     0.000 C
ATOM      6  O5  IDS C   1      68.986  38.032  89.3840  0.00  0.00     0.000 O
ATOM      7   O  IDS C   1      67.531  41.123  90.4090  0.00  0.00     0.000 O
ATOM      9  HD  IDS C   1      67.612  40.809  91.2110  0.00  0.00     0.000 HD
ATOM      9   O  IDS C   1      70.515  39.304  91.5040  0.00  0.00     0.000 O
ATOM     11  HD  IDS C   1      70.597  38.990  92.3070  0.00  0.00     0.000 HD
ENDROOT
BRANCH 2 11
ATOM     11   O  IDS C   1      70.786  40.239  88.9450  0.00  0.00     0.000 O
ATOM     12   S  IDS C   1      71.689  41.228  88.0720  0.00  0.00     0.000 S
ATOM     13   O  IDS C   1      72.878  41.356  88.8850  0.00  0.00     0.000 OA
ATOM     14   O  IDS C   1      70.992  42.478  87.8910  0.00  0.00     0.000 OA
ATOM     15   O  IDS C   1      71.912  40.519  86.8360  0.00  0.00     0.000 OA
ENDBRANCH 2 11
BRANCH 5 16
ATOM     16   C  IDS C   1      68.748  36.988  91.5060  0.00  0.00     0.000 C
ATOM     17   O  IDS C   1      68.944  37.090  92.6980  0.00  0.00     0.000 OA
ATOM     18   O  IDS C   1      68.781  35.912  90.9760  0.00  0.00     0.000 OA
ENDBRANCH 5 16
BRANCH 1 19
ATOM     19  O4  SGN C   2      67.389  39.133  88.0710  0.00  0.00     0.000 O
BRANCH 19 23
ATOM     20  C1  SGN C   2      64.676  37.677  85.2520  0.00  0.00     0.000 C
ATOM     21  C2  SGN C   2      65.094  36.708  86.3640  0.00  0.00     0.000 C
ATOM     22  C3  SGN C   2      65.713  37.487  87.5220  0.00  0.00     0.000 C
ATOM     23  C4  SGN C   2      66.889  38.313  87.0130  0.00  0.00     0.000 C
ATOM     24  C5  SGN C   2      66.437  39.198  85.8480  0.00  0.00     0.000 C
ATOM     25  O5  SGN C   2      65.828  38.387  84.8270  0.00  0.00     0.000 O
ATOM     26   O  SGN C   2      66.121  36.601  88.5580  0.00  0.00     0.000 O
ATOM     28  HD  SGN C   2      66.276  36.004  89.1650  0.00  0.00     0.000 HD
BRANCH 21 30
ATOM     28   N  SGN C   2      63.843  35.956  86.5300  0.00  0.00     0.000 N
ATOM     30  HD  SGN C   2      63.738  35.499  87.2580  0.00  0.00     0.000 HD
ATOM     30   S  SGN C   2      63.744  34.411  86.1230  0.00  0.00     0.000 S
ATOM     31   O  SGN C   2      64.810  33.771  86.8170  0.00  0.00     0.000 OA
ATOM     32   O  SGN C   2      62.410  33.979  86.3220  0.00  0.00     0.000 OA
ATOM     33   O  SGN C   2      64.002  34.408  84.5780  0.00  0.00     0.000 OA
ENDBRANCH 21 30
BRANCH 24 34
ATOM     34   C  SGN C   2      67.567  39.946  85.1810  0.00  0.00     0.000 C
ATOM     35   O  SGN C   2      67.503  41.330  85.5650  0.00  0.00     0.000 O
ATOM     36   S  SGN C   2      68.275  42.377  84.6400  0.00  0.00     0.000 S
ATOM     37   O  SGN C   2      67.769  42.132  83.3040  0.00  0.00     0.000 OA
ATOM     38   O  SGN C   2      67.931  43.680  85.1540  0.00  0.00     0.000 OA
ATOM     39   O  SGN C   2      69.666  42.033  84.8110  0.00  0.00     0.000 OA
ENDBRANCH 24 34
BRANCH 20 40
ATOM     40  O4  IDS C   3      63.703  38.544  85.5250  0.00  0.00     0.000 O
BRANCH 40 44
ATOM     41  C1  IDS C   3      60.830  40.476  86.1870  0.00  0.00     0.000 C
ATOM     42  C2  IDS C   3      60.818  38.956  86.3210  0.00  0.00     0.000 C
ATOM     43  C3  IDS C   3      61.349  38.306  85.0460  0.00  0.00     0.000 C
ATOM     44  C4  IDS C   3      62.671  38.920  84.6100  0.00  0.00     0.000 C
ATOM     45  C5  IDS C   3      62.547  40.457  84.5670  0.00  0.00     0.000 C
ATOM     46  O5  IDS C   3      62.135  40.938  85.8480  0.00  0.00     0.000 O
ATOM     47   O  IDS C   3      60.384  38.444  84.0060  0.00  0.00     0.000 O
ATOM     49  HD  IDS C   3      60.680  38.084  84.7360  0.00  0.00     0.000 HD
BRANCH 42 49
ATOM     49   O  IDS C   3      61.671  38.538  87.4570  0.00  0.00     0.000 O
ATOM     50   S  IDS C   3      61.051  37.633  88.6240  0.00  0.00     0.000 S
ATOM     51   O  IDS C   3      60.884  36.343  87.9930  0.00  0.00     0.000 OA
ATOM     52   O  IDS C   3      59.789  38.207  89.0620  0.00  0.00     0.000 OA
ATOM     53   O  IDS C   3      62.038  37.618  89.6830  0.00  0.00     0.000 OA
ENDBRANCH 42 49
BRANCH 45 54
ATOM     54   C  IDS C   3      63.841  41.155  84.1770  0.00  0.00     0.000 C
ATOM     55   O  IDS C   3      64.293  42.014  84.8880  0.00  0.00     0.000 OA
ATOM     56   O  IDS C   3      64.404  40.854  83.1430  0.00  0.00     0.000 OA
ENDBRANCH 45 54
BRANCH 41 57
ATOM     57  O4  SGN C   4      59.762  40.813  85.4540  0.00  0.00     0.000 O
BRANCH 57 61
ATOM     58  C1  SGN C   4      57.461  44.243  84.7660  0.00  0.00     0.000 C
ATOM     59  C2  SGN C   4      58.988  44.425  84.7780  0.00  0.00     0.000 C
ATOM     60  C3  SGN C   4      59.708  43.079  84.6260  0.00  0.00     0.000 C
ATOM     61  C4  SGN C   4      59.208  42.112  85.6850  0.00  0.00     0.000 C
ATOM     62  C5  SGN C   4      57.684  42.002  85.6340  0.00  0.00     0.000 C
ATOM     63  O5  SGN C   4      57.078  43.303  85.7590  0.00  0.00     0.000 O
BRANCH 59 66
ATOM     64   N  SGN C   4      59.243  45.453  83.7640  0.00  0.00     0.000 N
ATOM     66  HD  SGN C   4      59.328  44.795  84.3200  0.00  0.00     0.000 HD
ATOM     66   O  SGN C   4      60.176  47.559  82.9730  0.00  0.00     0.000 OA
ATOM     67   O  SGN C   4      59.187  47.423  85.2190  0.00  0.00     0.000 OA
ATOM     68   S  SGN C   4      60.108  46.751  84.1420  0.00  0.00     0.000 S
ATOM     69   O  SGN C   4      61.309  46.322  84.7640  0.00  0.00     0.000 OA
ENDBRANCH 59 66
BRANCH 62 70
ATOM     70   C  SGN C   4      57.152  41.154  86.7610  0.00  0.00     0.000 C
ATOM     71   S  SGN C   4      56.189  41.254  89.1350  0.00  0.00     0.000 S
ATOM     72   O  SGN C   4      55.155  40.317  88.7400  0.00  0.00     0.000 OA
ATOM     73   O  SGN C   4      57.386  40.610  89.6350  0.00  0.00     0.000 OA
ATOM     74   O  SGN C   4      55.707  42.324  89.9770  0.00  0.00     0.000 OA
ATOM     75   O  SGN C   4      56.605  41.988  87.7890  0.00  0.00     0.000 O
ENDBRANCH 62 70
ENDBRANCH 57 61
ENDBRANCH 41 57
ENDBRANCH 40 44
ENDBRANCH 20 40
ENDBRANCH 19 23
ENDBRANCH 1 19
TORSDOF 14
ENDMDL
MODEL 70
REMARK VINA RESULT:       0.1    114.776    119.534
ROOT
ATOM      1  C1  IDS C   1      29.665  17.960  79.2780  0.00  0.00     0.000 C
ATOM      2  C2  IDS C   1      30.884  18.782  79.6560  0.00  0.00     0.000 C
ATOM      3  C3  IDS C   1      30.481  20.199  80.0450  0.00  0.00     0.000 C
ATOM      4  C4  IDS C   1      29.367  20.189  81.0920  0.00  0.00     0.000 C
ATOM      5  C5  IDS C   1      28.227  19.251  80.6480  0.00  0.00     0.000 C
ATOM      6  O5  IDS C   1      28.733  17.953  80.3580  0.00  0.00     0.000 O
ATOM      7   O  IDS C   1      30.065  20.913  78.8790  0.00  0.00     0.000 O
ATOM      9  HD  IDS C   1      29.615  21.330  79.4910  0.00  0.00     0.000 HD
ATOM      9   O  IDS C   1      29.905  19.727  82.3400  0.00  0.00     0.000 O
ATOM     11  HD  IDS C   1      29.456  20.144  82.9520  0.00  0.00     0.000 HD
ENDROOT
BRANCH 2 11
ATOM     11   O  IDS C   1      31.570  18.175  80.8180  0.00  0.00     0.000 O
ATOM     12   S  IDS C   1      33.076  17.658  80.6960  0.00  0.00     0.000 S
ATOM     13   O  IDS C   1      33.607  17.945  82.0100  0.00  0.00     0.000 OA
ATOM     14   O  IDS C   1      33.748  18.385  79.6450  0.00  0.00     0.000 OA
ATOM     15   O  IDS C   1      32.955  16.247  80.4210  0.00  0.00     0.000 OA
ENDBRANCH 2 11
BRANCH 5 16
ATOM     16   C  IDS C   1      27.135  19.099  81.6920  0.00  0.00     0.000 C
ATOM     17   O  IDS C   1      27.325  18.358  82.6320  0.00  0.00     0.000 OA
ATOM     18   O  IDS C   1      26.094  19.688  81.5840  0.00  0.00     0.000 OA
ENDBRANCH 5 16
BRANCH 1 19
ATOM     19  O4  SGN C   2      29.142  18.099  78.0560  0.00  0.00     0.000 O
BRANCH 19 23
ATOM     20  C1  SGN C   2      27.351  16.111  74.8520  0.00  0.00     0.000 C
ATOM     21  C2  SGN C   2      26.473  16.350  76.0870  0.00  0.00     0.000 C
ATOM     22  C3  SGN C   2      27.098  17.434  76.9620  0.00  0.00     0.000 C
ATOM     23  C4  SGN C   2      28.518  17.032  77.3410  0.00  0.00     0.000 C
ATOM     24  C5  SGN C   2      29.325  16.720  76.0770  0.00  0.00     0.000 C
ATOM     25  O5  SGN C   2      28.641  15.724  75.2950  0.00  0.00     0.000 O
ATOM     26   O  SGN C   2      26.303  17.658  78.1210  0.00  0.00     0.000 O
ATOM     28  HD  SGN C   2      25.731  17.780  78.7590  0.00  0.00     0.000 HD
BRANCH 21 30
ATOM     28   N  SGN C   2      25.478  15.822  75.1440  0.00  0.00     0.000 N
ATOM     30  HD  SGN C   2      24.946  16.385  74.7570  0.00  0.00     0.000 HD
ATOM     30   S  SGN C   2      23.987  15.484  75.6160  0.00  0.00     0.000 S
ATOM     31   O  SGN C   2      23.509  16.674  76.2340  0.00  0.00     0.000 OA
ATOM     32   O  SGN C   2      23.285  14.925  74.5210  0.00  0.00     0.000 OA
ATOM     33   O  SGN C   2      24.172  14.342  76.6730  0.00  0.00     0.000 OA
ENDBRANCH 21 30
BRANCH 24 34
ATOM     34   C  SGN C   2      30.703  16.169  76.3580  0.00  0.00     0.000 C
ATOM     35   O  SGN C   2      31.682  17.177  76.0460  0.00  0.00     0.000 O
ATOM     36   S  SGN C   2      33.182  16.683  75.8110  0.00  0.00     0.000 S
ATOM     37   O  SGN C   2      33.077  15.656  74.7940  0.00  0.00     0.000 OA
ATOM     38   O  SGN C   2      33.911  17.850  75.3760  0.00  0.00     0.000 OA
ATOM     39   O  SGN C   2      33.592  16.189  77.1030  0.00  0.00     0.000 OA
ENDBRANCH 24 34
BRANCH 20 40
ATOM     40  O4  IDS C   3      27.468  17.108  73.9780  0.00  0.00     0.000 O
BRANCH 40 44
ATOM     41  C1  IDS C   3      26.908  19.427  71.3830  0.00  0.00     0.000 C
ATOM     42  C2  IDS C   3      25.838  18.422  71.7990  0.00  0.00     0.000 C
ATOM     43  C3  IDS C   3      26.414  17.008  71.8090  0.00  0.00     0.000 C
ATOM     44  C4  IDS C   3      27.721  16.937  72.5820  0.00  0.00     0.000 C
ATOM     45  C5  IDS C   3      28.683  18.039  72.0890  0.00  0.00     0.000 C
ATOM     46  O5  IDS C   3      28.054  19.315  72.2230  0.00  0.00     0.000 O
ATOM     47   O  IDS C   3      26.618  16.570  70.4680  0.00  0.00     0.000 O
ATOM     49  HD  IDS C   3      26.113  16.751  71.1480  0.00  0.00     0.000 HD
BRANCH 42 49
ATOM     49   O  IDS C   3      25.341  18.740  73.1580  0.00  0.00     0.000 O
ATOM     50   S  IDS C   3      23.821  19.208  73.3570  0.00  0.00     0.000 S
ATOM     51   O  IDS C   3      23.067  17.995  73.1290  0.00  0.00     0.000 OA
ATOM     52   O  IDS C   3      23.507  20.251  72.3940  0.00  0.00     0.000 OA
ATOM     53   O  IDS C   3      23.727  19.682  74.7210  0.00  0.00     0.000 OA
ENDBRANCH 42 49
BRANCH 45 54
ATOM     54   C  IDS C   3      30.005  18.064  72.8390  0.00  0.00     0.000 C
ATOM     55   O  IDS C   3      30.735  17.108  72.7950  0.00  0.00     0.000 OA
ATOM     56   O  IDS C   3      30.313  19.042  73.4940  0.00  0.00     0.000 OA
ENDBRANCH 45 54
BRANCH 41 57
ATOM     57  O4  SGN C   4      27.015  19.357  70.0510  0.00  0.00     0.000 O
BRANCH 57 61
ATOM     58  C1  SGN C   4      28.385  21.763  66.9110  0.00  0.00     0.000 C
ATOM     59  C2  SGN C   4      29.354  21.538  68.0830  0.00  0.00     0.000 C
ATOM     60  C3  SGN C   4      28.917  20.343  68.9420  0.00  0.00     0.000 C
ATOM     61  C4  SGN C   4      27.475  20.534  69.3800  0.00  0.00     0.000 C
ATOM     62  C5  SGN C   4      26.575  20.782  68.1700  0.00  0.00     0.000 C
ATOM     63  O5  SGN C   4      27.059  21.898  67.3990  0.00  0.00     0.000 O
BRANCH 59 66
ATOM     64   N  SGN C   4      30.677  21.483  67.4520  0.00  0.00     0.000 N
ATOM     66  HD  SGN C   4      30.014  21.392  68.0010  0.00  0.00     0.000 HD
ATOM     66   O  SGN C   4      33.006  22.149  67.1970  0.00  0.00     0.000 OA
ATOM     67   O  SGN C   4      31.294  23.841  67.6960  0.00  0.00     0.000 OA
ATOM     68   S  SGN C   4      31.863  22.413  68.0030  0.00  0.00     0.000 S
ATOM     69   O  SGN C   4      31.948  22.242  69.4090  0.00  0.00     0.000 OA
ENDBRANCH 59 66
BRANCH 62 70
ATOM     70   C  SGN C   4      25.163  21.107  68.5860  0.00  0.00     0.000 C
ATOM     71   S  SGN C   4      23.475  23.023  68.8150  0.00  0.00     0.000 S
ATOM     72   O  SGN C   4      22.463  22.185  68.2010  0.00  0.00     0.000 OA
ATOM     73   O  SGN C   4      23.534  22.888  70.2560  0.00  0.00     0.000 OA
ATOM     74   O  SGN C   4      23.445  24.393  68.3590  0.00  0.00     0.000 OA
ATOM     75   O  SGN C   4      24.854  22.467  68.2570  0.00  0.00     0.000 O
ENDBRANCH 62 70
ENDBRANCH 57 61
ENDBRANCH 41 57
ENDBRANCH 40 44
ENDBRANCH 20 40
ENDBRANCH 19 23
ENDBRANCH 1 19
TORSDOF 14
ENDMDL
MODEL 71
REMARK VINA RESULT:       0.1     14.150     18.976
ROOT
ATOM      1  C1  IDS C   1     106.037 105.753  59.6280  0.00  0.00     0.000 C
ATOM      2  C2  IDS C   1     106.945 106.630  58.7830  0.00  0.00     0.000 C
ATOM      3  C3  IDS C   1     106.191 107.849  58.2670  0.00  0.00     0.000 C
ATOM      4  C4  IDS C   1     105.476 108.579  59.4040  0.00  0.00     0.000 C
ATOM      5  C5  IDS C   1     104.661 107.579  60.2500  0.00  0.00     0.000 C
ATOM      6  O5  IDS C   1     105.493 106.516  60.7030  0.00  0.00     0.000 O
ATOM      7   O  IDS C   1     105.255 107.442  57.2670  0.00  0.00     0.000 O
ATOM      9  HD  IDS C   1     104.870 108.158  57.5650  0.00  0.00     0.000 HD
ATOM      9   O  IDS C   1     106.455 109.219  60.2360  0.00  0.00     0.000 O
ATOM     11  HD  IDS C   1     106.070 109.936  60.5340  0.00  0.00     0.000 HD
ENDROOT
BRANCH 2 11
ATOM     11   O  IDS C   1     108.084 107.115  59.5930  0.00  0.00     0.000 O
ATOM     12   S  IDS C   1     109.587 106.775  59.1690  0.00  0.00     0.000 S
ATOM     13   O  IDS C   1     110.297 107.968  59.5750  0.00  0.00     0.000 OA
ATOM     14   O  IDS C   1     109.642 106.544  57.7460  0.00  0.00     0.000 OA
ATOM     15   O  IDS C   1     109.929 105.610  59.9470  0.00  0.00     0.000 OA
ENDBRANCH 2 11
BRANCH 5 16
ATOM     16   C  IDS C   1     104.015 108.212  61.4680  0.00  0.00     0.000 C
ATOM     17   O  IDS C   1     104.695 108.418  62.4510  0.00  0.00     0.000 OA
ATOM     18   O  IDS C   1     102.847 108.492  61.4700  0.00  0.00     0.000 OA
ENDBRANCH 5 16
BRANCH 1 19
ATOM     19  O4  SGN C   2     105.191 104.918  59.0180  0.00  0.00     0.000 O
BRANCH 19 23
ATOM     20  C1  SGN C   2     103.485 101.109  59.1010  0.00  0.00     0.000 C
ATOM     21  C2  SGN C   2     102.961 102.116  60.1320  0.00  0.00     0.000 C
ATOM     22  C3  SGN C   2     103.340 103.532  59.7070  0.00  0.00     0.000 C
ATOM     23  C4  SGN C   2     104.851 103.629  59.5320  0.00  0.00     0.000 C
ATOM     24  C5  SGN C   2     105.332 102.546  58.5610  0.00  0.00     0.000 C
ATOM     25  O5  SGN C   2     104.893 101.253  59.0160  0.00  0.00     0.000 O
ATOM     26   O  SGN C   2     102.875 104.480  60.6610  0.00  0.00     0.000 O
ATOM     28  HD  SGN C   2     102.501 104.992  61.2510  0.00  0.00     0.000 HD
BRANCH 21 30
ATOM     28   N  SGN C   2     101.622 101.514  60.1670  0.00  0.00     0.000 N
ATOM     30  HD  SGN C   2     100.949 102.032  60.3390  0.00  0.00     0.000 HD
ATOM     30   S  SGN C   2     100.970 101.021  61.5430  0.00  0.00     0.000 S
ATOM     31   O  SGN C   2     101.038 102.144  62.4150  0.00  0.00     0.000 OA
ATOM     32   O  SGN C   2      99.720 100.421  61.2580  0.00  0.00     0.000 OA
ATOM     33   O  SGN C   2     101.926  99.879  62.0280  0.00  0.00     0.000 OA
ENDBRANCH 21 30
BRANCH 24 34
ATOM     34   C  SGN C   2     106.835 102.467  58.4370  0.00  0.00     0.000 C
ATOM     35   O  SGN C   2     107.231 103.040  57.1780  0.00  0.00     0.000 O
ATOM     36   S  SGN C   2     108.677 102.649  56.6260  0.00  0.00     0.000 S
ATOM     37   O  SGN C   2     108.691 101.200  56.6210  0.00  0.00     0.000 OA
ATOM     38   O  SGN C   2     108.759 103.228  55.3070  0.00  0.00     0.000 OA
ATOM     39   O  SGN C   2     109.585 103.240  57.5780  0.00  0.00     0.000 OA
ENDBRANCH 24 34
BRANCH 20 40
ATOM     40  O4  IDS C   3     102.965 101.155  57.8760  0.00  0.00     0.000 O
BRANCH 40 44
ATOM     41  C1  IDS C   3     101.137 101.047  54.8640  0.00  0.00     0.000 C
ATOM     42  C2  IDS C   3     100.452 100.893  56.2200  0.00  0.00     0.000 C
ATOM     43  C3  IDS C   3     101.142  99.809  57.0440  0.00  0.00     0.000 C
ATOM     44  C4  IDS C   3     102.650 100.007  57.0840  0.00  0.00     0.000 C
ATOM     45  C5  IDS C   3     103.193 100.197  55.6530  0.00  0.00     0.000 C
ATOM     46  O5  IDS C   3     102.529 101.300  55.0330  0.00  0.00     0.000 O
ATOM     47   O  IDS C   3     100.835  98.530  56.4950  0.00  0.00     0.000 O
ATOM     49  HD  IDS C   3     100.631  99.241  56.9460  0.00  0.00     0.000 HD
BRANCH 42 49
ATOM     49   O  IDS C   3     100.514 102.170  56.9690  0.00  0.00     0.000 O
ATOM     50   S  IDS C   3      99.166 102.819  57.5420  0.00  0.00     0.000 S
ATOM     51   O  IDS C   3      98.813 101.943  58.6370  0.00  0.00     0.000 OA
ATOM     52   O  IDS C   3      98.157 102.840  56.4960  0.00  0.00     0.000 OA
ATOM     53   O  IDS C   3      99.522 104.152  57.9800  0.00  0.00     0.000 OA
ENDBRANCH 42 49
BRANCH 45 54
ATOM     54   C  IDS C   3     104.693 100.442  55.6060  0.00  0.00     0.000 C
ATOM     55   O  IDS C   3     105.444  99.646  56.1100  0.00  0.00     0.000 OA
ATOM     56   O  IDS C   3     105.128 101.446  55.0770  0.00  0.00     0.000 OA
ENDBRANCH 45 54
BRANCH 41 57
ATOM     57  O4  SGN C   4     100.702 100.045  54.0900  0.00  0.00     0.000 O
BRANCH 57 61
ATOM     58  C1  SGN C   4     100.304  99.203  50.0090  0.00  0.00     0.000 C
ATOM     59  C2  SGN C   4     101.716  99.549  50.5090  0.00  0.00     0.000 C
ATOM     60  C3  SGN C   4     101.808  99.430  52.0360  0.00  0.00     0.000 C
ATOM     61  C4  SGN C   4     100.717 100.271  52.6780  0.00  0.00     0.000 C
ATOM     62  C5  SGN C   4      99.348  99.895  52.1140  0.00  0.00     0.000 C
ATOM     63  O5  SGN C   4      99.343 100.006  50.6780  0.00  0.00     0.000 O
BRANCH 59 66
ATOM     64   N  SGN C   4     102.600  98.707  49.6960  0.00  0.00     0.000 N
ATOM     66  HD  SGN C   4     102.271  99.202  50.3270  0.00  0.00     0.000 HD
ATOM     66   O  SGN C   4     104.501  98.318  48.2230  0.00  0.00     0.000 OA
ATOM     67   O  SGN C   4     103.101 100.316  47.9180  0.00  0.00     0.000 OA
ATOM     68   S  SGN C   4     103.842  99.367  48.9240  0.00  0.00     0.000 S
ATOM     69   O  SGN C   4     104.575 100.156  49.8470  0.00  0.00     0.000 OA
ENDBRANCH 59 66
BRANCH 62 70
ATOM     70   C  SGN C   4      98.265 100.806  52.6340  0.00  0.00     0.000 C
ATOM     71   S  SGN C   4      96.970 102.960  52.1310  0.00  0.00     0.000 S
ATOM     72   O  SGN C   4      95.736 102.284  52.4780  0.00  0.00     0.000 OA
ATOM     73   O  SGN C   4      97.614 103.597  53.2620  0.00  0.00     0.000 OA
ATOM     74   O  SGN C   4      96.855 103.813  50.9700  0.00  0.00     0.000 OA
ATOM     75   O  SGN C   4      97.948 101.803  51.6560  0.00  0.00     0.000 O
ENDBRANCH 62 70
ENDBRANCH 57 61
ENDBRANCH 41 57
ENDBRANCH 40 44
ENDBRANCH 20 40
ENDBRANCH 19 23
ENDBRANCH 1 19
TORSDOF 14
ENDMDL
MODEL 72
REMARK VINA RESULT:       0.1    113.405    117.790
ROOT
ATOM      1  C1  IDS C   1      33.422  24.439 106.5090  0.00  0.00     0.000 C
ATOM      2  C2  IDS C   1      32.927  25.233 105.3130  0.00  0.00     0.000 C
ATOM      3  C3  IDS C   1      32.015  24.382 104.4380  0.00  0.00     0.000 C
ATOM      4  C4  IDS C   1      30.914  23.721 105.2670  0.00  0.00     0.000 C
ATOM      5  C5  IDS C   1      31.520  23.025 106.5020  0.00  0.00     0.000 C
ATOM      6  O5  IDS C   1      32.310  23.942 107.2520  0.00  0.00     0.000 O
ATOM      7   O  IDS C   1      32.793  23.393 103.7610  0.00  0.00     0.000 O
ATOM      9  HD  IDS C   1      32.024  22.996 103.7940  0.00  0.00     0.000 HD
ATOM      9   O  IDS C   1      29.984  24.728 105.6960  0.00  0.00     0.000 O
ATOM     11  HD  IDS C   1      29.215  24.332 105.7280  0.00  0.00     0.000 HD
ENDROOT
BRANCH 2 11
ATOM     11   O  IDS C   1      32.147  26.406 105.7670  0.00  0.00     0.000 O
ATOM     12   S  IDS C   1      32.627  27.889 105.4150  0.00  0.00     0.000 S
ATOM     13   O  IDS C   1      31.371  28.585 105.2420  0.00  0.00     0.000 OA
ATOM     14   O  IDS C   1      33.426  27.860 104.2130  0.00  0.00     0.000 OA
ATOM     15   O  IDS C   1      33.365  28.317 106.5770  0.00  0.00     0.000 OA
ENDBRANCH 2 11
BRANCH 5 16
ATOM     16   C  IDS C   1      30.474  22.444 107.4360  0.00  0.00     0.000 C
ATOM     17   O  IDS C   1      30.286  21.245 107.4290  0.00  0.00     0.000 OA
ATOM     18   O  IDS C   1      29.831  23.154 108.1590  0.00  0.00     0.000 OA
ENDBRANCH 5 16
BRANCH 1 19
ATOM     19  O4  SGN C   2      34.442  23.591 106.3470  0.00  0.00     0.000 O
BRANCH 19 23
ATOM     20  C1  SGN C   2      37.899  22.024 108.0850  0.00  0.00     0.000 C
ATOM     21  C2  SGN C   2      36.563  21.509 108.6340  0.00  0.00     0.000 C
ATOM     22  C3  SGN C   2      35.444  21.820 107.6430  0.00  0.00     0.000 C
ATOM     23  C4  SGN C   2      35.407  23.318 107.3640  0.00  0.00     0.000 C
ATOM     24  C5  SGN C   2      36.787  23.795 106.9030  0.00  0.00     0.000 C
ATOM     25  O5  SGN C   2      37.782  23.422 107.8740  0.00  0.00     0.000 O
ATOM     26   O  SGN C   2      34.194  21.362 108.1440  0.00  0.00     0.000 O
ATOM     28  HD  SGN C   2      33.489  20.995 108.4870  0.00  0.00     0.000 HD
BRANCH 21 30
ATOM     28   N  SGN C   2      37.503  20.622 109.3310  0.00  0.00     0.000 N
ATOM     30  HD  SGN C   2      37.599  19.815 109.0310  0.00  0.00     0.000 HD
ATOM     30   S  SGN C   2      37.004  19.618 110.4730  0.00  0.00     0.000 S
ATOM     31   O  SGN C   2      35.952  18.865 109.8780  0.00  0.00     0.000 OA
ATOM     32   O  SGN C   2      38.133  18.954 111.0110  0.00  0.00     0.000 OA
ATOM     33   O  SGN C   2      36.451  20.562 111.5940  0.00  0.00     0.000 OA
ENDBRANCH 21 30
BRANCH 24 34
ATOM     34   C  SGN C   2      36.889  25.294 106.7440  0.00  0.00     0.000 C
ATOM     35   O  SGN C   2      36.941  25.613 105.3430  0.00  0.00     0.000 O
ATOM     36   S  SGN C   2      37.515  27.049 104.9460  0.00  0.00     0.000 S
ATOM     37   O  SGN C   2      38.809  27.121 105.5960  0.00  0.00     0.000 OA
ATOM     38   O  SGN C   2      37.595  27.052 103.5050  0.00  0.00     0.000 OA
ATOM     39   O  SGN C   2      36.541  27.972 105.4770  0.00  0.00     0.000 OA
ENDBRANCH 24 34
BRANCH 20 40
ATOM     40  O4  IDS C   3      38.372  21.453 106.9800  0.00  0.00     0.000 O
BRANCH 40 44
ATOM     41  C1  IDS C   3      39.891  19.253 104.6820  0.00  0.00     0.000 C
ATOM     42  C2  IDS C   3      39.731  18.884 106.1540  0.00  0.00     0.000 C
ATOM     43  C3  IDS C   3      40.292  19.991 107.0430  0.00  0.00     0.000 C
ATOM     44  C4  IDS C   3      39.758  21.358 106.6440  0.00  0.00     0.000 C
ATOM     45  C5  IDS C   3      39.942  21.571 105.1270  0.00  0.00     0.000 C
ATOM     46  O5  IDS C   3      39.290  20.518 104.4150  0.00  0.00     0.000 O
ATOM     47   O  IDS C   3      41.715  19.984 106.9670  0.00  0.00     0.000 O
ATOM     49  HD  IDS C   3      40.960  19.661 107.2400  0.00  0.00     0.000 HD
BRANCH 42 49
ATOM     49   O  IDS C   3      38.299  18.695 106.4790  0.00  0.00     0.000 O
ATOM     50   S  IDS C   3      37.765  17.244 106.8980  0.00  0.00     0.000 S
ATOM     51   O  IDS C   3      38.314  17.056 108.2220  0.00  0.00     0.000 OA
ATOM     52   O  IDS C   3      38.251  16.257 105.9470  0.00  0.00     0.000 OA
ATOM     53   O  IDS C   3      36.320  17.335 106.8940  0.00  0.00     0.000 OA
ENDBRANCH 42 49
BRANCH 45 54
ATOM     54   C  IDS C   3      39.397  22.903 104.6350  0.00  0.00     0.000 C
ATOM     55   O  IDS C   3      38.509  22.921 103.8220  0.00  0.00     0.000 OA
ATOM     56   O  IDS C   3      39.870  23.943 105.0510  0.00  0.00     0.000 OA
ENDBRANCH 45 54
BRANCH 41 57
ATOM     57  O4  SGN C   4      41.165  19.007 104.3520  0.00  0.00     0.000 O
BRANCH 57 61
ATOM     58  C1  SGN C   4      43.393  18.276 100.8840  0.00  0.00     0.000 C
ATOM     59  C2  SGN C   4      42.503  19.529 100.8820  0.00  0.00     0.000 C
ATOM     60  C3  SGN C   4      42.075  19.907 102.3070  0.00  0.00     0.000 C
ATOM     61  C4  SGN C   4      41.427  18.708 102.9780  0.00  0.00     0.000 C
ATOM     62  C5  SGN C   4      42.353  17.494 102.9160  0.00  0.00     0.000 C
ATOM     63  O5  SGN C   4      42.732  17.213 101.5550  0.00  0.00     0.000 O
BRANCH 59 66
ATOM     64   N  SGN C   4      43.268  20.513 100.1090  0.00  0.00     0.000 N
ATOM     66  HD  SGN C   4      42.711  20.135 100.6550  0.00  0.00     0.000 HD
ATOM     66   O  SGN C   4      43.550  22.156  98.3330  0.00  0.00     0.000 OA
ATOM     67   O  SGN C   4      42.276  20.097  97.9090  0.00  0.00     0.000 OA
ATOM     68   S  SGN C   4      42.570  21.285  98.8880  0.00  0.00     0.000 S
ATOM     69   O  SGN C   4      41.339  21.823  99.3440  0.00  0.00     0.000 OA
ENDBRANCH 59 66
BRANCH 62 70
ATOM     70   C  SGN C   4      41.680  16.256 103.4550  0.00  0.00     0.000 C
ATOM     71   S  SGN C   4      40.587  14.043 102.7630  0.00  0.00     0.000 S
ATOM     72   O  SGN C   4      41.330  13.366 103.8080  0.00  0.00     0.000 OA
ATOM     73   O  SGN C   4      39.305  14.551 103.2080  0.00  0.00     0.000 OA
ATOM     74   O  SGN C   4      40.522  13.299 101.5260  0.00  0.00     0.000 OA
ATOM     75   O  SGN C   4      41.468  15.313 102.3980  0.00  0.00     0.000 O
ENDBRANCH 62 70
ENDBRANCH 57 61
ENDBRANCH 41 57
ENDBRANCH 40 44
ENDBRANCH 20 40
ENDBRANCH 19 23
ENDBRANCH 1 19
TORSDOF 14
ENDMDL
MODEL 73
REMARK VINA RESULT:       0.1     89.237     93.846
ROOT
ATOM      1  C1  IDS C   1      88.349  47.602  11.4130  0.00  0.00     0.000 C
ATOM      2  C2  IDS C   1      88.131  48.539  10.2380  0.00  0.00     0.000 C
ATOM      3  C3  IDS C   1      86.644  48.770  10.0000  0.00  0.00     0.000 C
ATOM      4  C4  IDS C   1      85.937  49.186  11.2900  0.00  0.00     0.000 C
ATOM      5  C5  IDS C   1      86.303  48.221  12.4350  0.00  0.00     0.000 C
ATOM      6  O5  IDS C   1      87.717  48.131  12.5770  0.00  0.00     0.000 O
ATOM      7   O  IDS C   1      86.056  47.581   9.4680  0.00  0.00     0.000 O
ATOM      9  HD  IDS C   1      85.370  47.938   9.8580  0.00  0.00     0.000 HD
ATOM      9   O  IDS C   1      86.347  50.517  11.6390  0.00  0.00     0.000 O
ATOM     11  HD  IDS C   1      85.661  50.874  12.0280  0.00  0.00     0.000 HD
ENDROOT
BRANCH 2 11
ATOM     11   O  IDS C   1      88.753  49.854  10.5120  0.00  0.00     0.000 O
ATOM     12   S  IDS C   1      90.040  50.331   9.6950  0.00  0.00     0.000 S
ATOM     13   O  IDS C   1      89.828  51.758   9.5950  0.00  0.00     0.000 OA
ATOM     14   O  IDS C   1      90.063  49.673   8.4110  0.00  0.00     0.000 OA
ATOM     15   O  IDS C   1      91.156  49.974  10.5360  0.00  0.00     0.000 OA
ENDBRANCH 2 11
BRANCH 5 16
ATOM     16   C  IDS C   1      85.729  48.637  13.7770  0.00  0.00     0.000 C
ATOM     17   O  IDS C   1      85.029  49.626  13.8320  0.00  0.00     0.000 OA
ATOM     18   O  IDS C   1      85.973  48.011  14.7710  0.00  0.00     0.000 OA
ENDBRANCH 5 16
BRANCH 1 19
ATOM     19  O4  SGN C   2      88.219  46.285  11.2250  0.00  0.00     0.000 O
BRANCH 19 23
ATOM     20  C1  SGN C   2      89.509  42.504  12.4360  0.00  0.00     0.000 C
ATOM     21  C2  SGN C   2      88.631  43.277  13.4260  0.00  0.00     0.000 C
ATOM     22  C3  SGN C   2      87.899  44.401  12.6980  0.00  0.00     0.000 C
ATOM     23  C4  SGN C   2      88.910  45.307  12.0040  0.00  0.00     0.000 C
ATOM     24  C5  SGN C   2      89.817  44.473  11.0950  0.00  0.00     0.000 C
ATOM     25  O5  SGN C   2      90.428  43.414  11.8540  0.00  0.00     0.000 O
ATOM     26   O  SGN C   2      87.091  45.140  13.6060  0.00  0.00     0.000 O
ATOM     28  HD  SGN C   2      86.576  45.491  14.2080  0.00  0.00     0.000 HD
BRANCH 21 30
ATOM     28   N  SGN C   2      88.719  41.975  14.1010  0.00  0.00     0.000 N
ATOM     30  HD  SGN C   2      88.041  41.440  14.0400  0.00  0.00     0.000 HD
ATOM     30   S  SGN C   2      88.136  41.764  15.5760  0.00  0.00     0.000 S
ATOM     31   O  SGN C   2      86.784  42.205  15.5130  0.00  0.00     0.000 OA
ATOM     32   O  SGN C   2      88.430  40.443  15.9900  0.00  0.00     0.000 OA
ATOM     33   O  SGN C   2      88.996  42.726  16.4650  0.00  0.00     0.000 OA
ENDBRANCH 21 30
BRANCH 24 34
ATOM     34   C  SGN C   2      90.947  45.262  10.4770  0.00  0.00     0.000 C
ATOM     35   O  SGN C   2      90.654  45.488   9.0870  0.00  0.00     0.000 O
ATOM     36   S  SGN C   2      91.881  45.869   8.1390  0.00  0.00     0.000 S
ATOM     37   O  SGN C   2      92.854  44.816   8.3530  0.00  0.00     0.000 OA
ATOM     38   O  SGN C   2      91.346  45.893   6.8000  0.00  0.00     0.000 OA
ATOM     39   O  SGN C   2      92.303  47.162   8.6200  0.00  0.00     0.000 OA
ENDBRANCH 24 34
BRANCH 20 40
ATOM     40  O4  IDS C   3      88.896  41.824  11.4700  0.00  0.00     0.000 O
BRANCH 40 44
ATOM     41  C1  IDS C   3      87.137  39.389   9.6240  0.00  0.00     0.000 C
ATOM     42  C2  IDS C   3      87.343  39.254  11.1300  0.00  0.00     0.000 C
ATOM     43  C3  IDS C   3      88.821  39.411  11.4800  0.00  0.00     0.000 C
ATOM     44  C4  IDS C   3      89.422  40.653  10.8410  0.00  0.00     0.000 C
ATOM     45  C5  IDS C   3      89.093  40.679   9.3330  0.00  0.00     0.000 C
ATOM     46  O5  IDS C   3      87.676  40.622   9.1540  0.00  0.00     0.000 O
ATOM     47   O  IDS C   3      89.533  38.252  11.0550  0.00  0.00     0.000 O
ATOM     49  HD  IDS C   3      88.997  38.670  11.5920  0.00  0.00     0.000 HD
BRANCH 42 49
ATOM     49   O  IDS C   3      86.573  40.299  11.8450  0.00  0.00     0.000 O
ATOM     50   S  IDS C   3      85.358  39.875  12.7990  0.00  0.00     0.000 S
ATOM     51   O  IDS C   3      86.020  39.277  13.9370  0.00  0.00     0.000 OA
ATOM     52   O  IDS C   3      84.497  38.936  12.0980  0.00  0.00     0.000 OA
ATOM     53   O  IDS C   3      84.666  41.103  13.1310  0.00  0.00     0.000 OA
ENDBRANCH 42 49
BRANCH 45 54
ATOM     54   C  IDS C   3      89.626  41.913   8.6220  0.00  0.00     0.000 C
ATOM     55   O  IDS C   3      90.812  42.114   8.5840  0.00  0.00     0.000 OA
ATOM     56   O  IDS C   3      88.853  42.700   8.1110  0.00  0.00     0.000 OA
ENDBRANCH 45 54
BRANCH 41 57
ATOM     57  O4  SGN C   4      87.492  38.222   9.0740  0.00  0.00     0.000 O
BRANCH 57 61
ATOM     58  C1  SGN C   4      86.930  36.189   5.4580  0.00  0.00     0.000 C
ATOM     59  C2  SGN C   4      87.486  37.619   5.3680  0.00  0.00     0.000 C
ATOM     60  C3  SGN C   4      88.025  38.091   6.7250  0.00  0.00     0.000 C
ATOM     61  C4  SGN C   4      86.948  37.928   7.7840  0.00  0.00     0.000 C
ATOM     62  C5  SGN C   4      86.422  36.493   7.7970  0.00  0.00     0.000 C
ATOM     63  O5  SGN C   4      85.957  36.111   6.4890  0.00  0.00     0.000 O
BRANCH 59 66
ATOM     64   N  SGN C   4      88.418  37.575   4.2370  0.00  0.00     0.000 N
ATOM     66  HD  SGN C   4      88.004  37.796   4.9650  0.00  0.00     0.000 HD
ATOM     66   O  SGN C   4      89.314  38.356   2.1100  0.00  0.00     0.000 OA
ATOM     67   O  SGN C   4      86.883  38.297   2.4700  0.00  0.00     0.000 OA
ATOM     68   S  SGN C   4      88.293  38.654   3.0560  0.00  0.00     0.000 S
ATOM     69   O  SGN C   4      88.237  39.947   3.6360  0.00  0.00     0.000 OA
ENDBRANCH 59 66
BRANCH 62 70
ATOM     70   C  SGN C   4      85.260  36.337   8.7460  0.00  0.00     0.000 C
ATOM     71   S  SGN C   4      82.701  36.261   8.8680  0.00  0.00     0.000 S
ATOM     72   O  SGN C   4      82.791  35.106   9.7390  0.00  0.00     0.000 OA
ATOM     73   O  SGN C   4      82.709  37.521   9.5840  0.00  0.00     0.000 OA
ATOM     74   O  SGN C   4      81.651  36.160   7.8800  0.00  0.00     0.000 OA
ATOM     75   O  SGN C   4      84.036  36.227   8.0100  0.00  0.00     0.000 O
ENDBRANCH 62 70
ENDBRANCH 57 61
ENDBRANCH 41 57
ENDBRANCH 40 44
ENDBRANCH 20 40
ENDBRANCH 19 23
ENDBRANCH 1 19
TORSDOF 14
ENDMDL
MODEL 74
REMARK VINA RESULT:       0.2     64.493     69.792
ROOT
ATOM      1  C1  IDS C   1      94.715  45.467  46.4650  0.00  0.00     0.000 C
ATOM      2  C2  IDS C   1      95.698  45.877  45.3830  0.00  0.00     0.000 C
ATOM      3  C3  IDS C   1      96.812  46.739  45.9630  0.00  0.00     0.000 C
ATOM      4  C4  IDS C   1      97.447  46.074  47.1840  0.00  0.00     0.000 C
ATOM      5  C5  IDS C   1      96.353  45.615  48.1700  0.00  0.00     0.000 C
ATOM      6  O5  IDS C   1      95.404  44.784  47.5110  0.00  0.00     0.000 O
ATOM      7   O  IDS C   1      96.290  48.023  46.3080  0.00  0.00     0.000 O
ATOM      9  HD  IDS C   1      96.952  47.966  46.8630  0.00  0.00     0.000 HD
ATOM      9   O  IDS C   1      98.207  44.934  46.7520  0.00  0.00     0.000 O
ATOM     11  HD  IDS C   1      98.869  44.877  47.3070  0.00  0.00     0.000 HD
ENDROOT
BRANCH 2 11
ATOM     11   O  IDS C   1      96.324  44.678  44.7810  0.00  0.00     0.000 O
ATOM     12   S  IDS C   1      96.134  44.354  43.2280  0.00  0.00     0.000 S
ATOM     13   O  IDS C   1      97.406  43.759  42.8820  0.00  0.00     0.000 OA
ATOM     14   O  IDS C   1      95.872  45.579  42.5120  0.00  0.00     0.000 OA
ATOM     15   O  IDS C   1      95.034  43.423  43.1830  0.00  0.00     0.000 OA
ENDBRANCH 2 11
BRANCH 5 16
ATOM     16   C  IDS C   1      96.901  44.842  49.3560  0.00  0.00     0.000 C
ATOM     17   O  IDS C   1      96.989  45.401  50.4280  0.00  0.00     0.000 OA
ATOM     18   O  IDS C   1      97.257  43.702  49.2350  0.00  0.00     0.000 OA
ENDBRANCH 5 16
BRANCH 1 19
ATOM     19  O4  SGN C   2      93.779  46.338  46.8550  0.00  0.00     0.000 O
BRANCH 19 23
ATOM     20  C1  SGN C   2      89.809  46.781  48.0660  0.00  0.00     0.000 C
ATOM     21  C2  SGN C   2      90.778  46.196  49.0990  0.00  0.00     0.000 C
ATOM     22  C3  SGN C   2      92.217  46.498  48.6860  0.00  0.00     0.000 C
ATOM     23  C4  SGN C   2      92.474  45.949  47.2870  0.00  0.00     0.000 C
ATOM     24  C5  SGN C   2      91.426  46.496  46.3140  0.00  0.00     0.000 C
ATOM     25  O5  SGN C   2      90.105  46.206  46.8040  0.00  0.00     0.000 O
ATOM     26   O  SGN C   2      93.132  45.948  49.6260  0.00  0.00     0.000 O
ATOM     28  HD  SGN C   2      93.615  45.643  50.2770  0.00  0.00     0.000 HD
BRANCH 21 30
ATOM     28   N  SGN C   2      89.575  46.370  49.9240  0.00  0.00     0.000 N
ATOM     30  HD  SGN C   2      89.544  47.051  50.4580  0.00  0.00     0.000 HD
ATOM     30   S  SGN C   2      89.508  45.808  51.4210  0.00  0.00     0.000 S
ATOM     31   O  SGN C   2      90.649  46.352  52.0780  0.00  0.00     0.000 OA
ATOM     32   O  SGN C   2      88.212  46.054  51.9350  0.00  0.00     0.000 OA
ATOM     33   O  SGN C   2      89.648  44.257  51.2520  0.00  0.00     0.000 OA
ENDBRANCH 21 30
BRANCH 24 34
ATOM     34   C  SGN C   2      91.509  45.893  44.9310  0.00  0.00     0.000 C
ATOM     35   O  SGN C   2      92.037  46.877  44.0230  0.00  0.00     0.000 O
ATOM     36   S  SGN C   2      91.775  46.640  42.4660  0.00  0.00     0.000 S
ATOM     37   O  SGN C   2      90.339  46.473  42.3540  0.00  0.00     0.000 OA
ATOM     38   O  SGN C   2      92.268  47.825  41.8050  0.00  0.00     0.000 OA
ATOM     39   O  SGN C   2      92.529  45.449  42.1630  0.00  0.00     0.000 OA
ENDBRANCH 24 34
BRANCH 20 40
ATOM     40  O4  IDS C   3      89.766  48.106  47.9440  0.00  0.00     0.000 O
BRANCH 40 44
ATOM     41  C1  IDS C   3      89.109  51.537  48.4150  0.00  0.00     0.000 C
ATOM     42  C2  IDS C   3      88.650  50.490  49.4260  0.00  0.00     0.000 C
ATOM     43  C3  IDS C   3      87.871  49.380  48.7250  0.00  0.00     0.000 C
ATOM     44  C4  IDS C   3      88.620  48.845  47.5150  0.00  0.00     0.000 C
ATOM     45  C5  IDS C   3      89.063  50.015  46.6110  0.00  0.00     0.000 C
ATOM     46  O5  IDS C   3      89.860  50.927  47.3690  0.00  0.00     0.000 O
ATOM     47   O  IDS C   3      86.595  49.877  48.3260  0.00  0.00     0.000 O
ATOM     49  HD  IDS C   3      87.156  49.592  48.9210  0.00  0.00     0.000 HD
BRANCH 42 49
ATOM     49   O  IDS C   3      89.821  49.890  50.1060  0.00  0.00     0.000 O
ATOM     50   S  IDS C   3      90.035  50.128  51.6760  0.00  0.00     0.000 S
ATOM     51   O  IDS C   3      88.998  49.321  52.2800  0.00  0.00     0.000 OA
ATOM     52   O  IDS C   3      89.887  51.543  51.9750  0.00  0.00     0.000 OA
ATOM     53   O  IDS C   3      91.368  49.647  51.9730  0.00  0.00     0.000 OA
ENDBRANCH 42 49
BRANCH 45 54
ATOM     54   C  IDS C   3      89.856  49.568  45.3930  0.00  0.00     0.000 C
ATOM     55   O  IDS C   3      90.990  49.945  45.2490  0.00  0.00     0.000 OA
ATOM     56   O  IDS C   3      89.338  48.848  44.5630  0.00  0.00     0.000 OA
ENDBRANCH 45 54
BRANCH 41 57
ATOM     57  O4  SGN C   4      88.052  52.314  48.1490  0.00  0.00     0.000 O
BRANCH 57 61
ATOM     58  C1  SGN C   4      87.316  56.151  46.6430  0.00  0.00     0.000 C
ATOM     59  C2  SGN C   4      88.223  55.240  45.8000  0.00  0.00     0.000 C
ATOM     60  C3  SGN C   4      88.083  53.772  46.2260  0.00  0.00     0.000 C
ATOM     61  C4  SGN C   4      88.329  53.651  47.7200  0.00  0.00     0.000 C
ATOM     62  C5  SGN C   4      87.417  54.604  48.4920  0.00  0.00     0.000 C
ATOM     63  O5  SGN C   4      87.583  55.956  48.0240  0.00  0.00     0.000 O
BRANCH 59 66
ATOM     64   N  SGN C   4      87.894  55.588  44.4140  0.00  0.00     0.000 N
ATOM     66  HD  SGN C   4      88.165  55.175  45.1250  0.00  0.00     0.000 HD
ATOM     66   O  SGN C   4      88.449  56.259  42.1390  0.00  0.00     0.000 OA
ATOM     67   O  SGN C   4      89.635  57.270  44.0400  0.00  0.00     0.000 OA
ATOM     68   S  SGN C   4      89.068  55.963  43.3860  0.00  0.00     0.000 S
ATOM     69   O  SGN C   4      90.058  54.949  43.4490  0.00  0.00     0.000 OA
ENDBRANCH 59 66
BRANCH 62 70
ATOM     70   C  SGN C   4      87.734  54.602  49.9670  0.00  0.00     0.000 C
ATOM     71   S  SGN C   4      88.861  55.953  51.8300  0.00  0.00     0.000 S
ATOM     72   O  SGN C   4      87.720  55.698  52.6870  0.00  0.00     0.000 OA
ATOM     73   O  SGN C   4      89.890  54.937  51.9280  0.00  0.00     0.000 OA
ATOM     74   O  SGN C   4      89.365  57.304  51.9260  0.00  0.00     0.000 OA
ATOM     75   O  SGN C   4      88.287  55.865  50.3530  0.00  0.00     0.000 O
ENDBRANCH 62 70
ENDBRANCH 57 61
ENDBRANCH 41 57
ENDBRANCH 40 44
ENDBRANCH 20 40
ENDBRANCH 19 23
ENDBRANCH 1 19
TORSDOF 14
ENDMDL
MODEL 75
REMARK VINA RESULT:       0.2    117.827    121.563
ROOT
ATOM      1  C1  IDS C   1      26.866  18.001  75.5830  0.00  0.00     0.000 C
ATOM      2  C2  IDS C   1      28.179  18.687  75.9190  0.00  0.00     0.000 C
ATOM      3  C3  IDS C   1      28.011  20.202  75.9240  0.00  0.00     0.000 C
ATOM      4  C4  IDS C   1      26.828  20.624  76.7950  0.00  0.00     0.000 C
ATOM      5  C5  IDS C   1      25.577  19.799  76.4310  0.00  0.00     0.000 C
ATOM      6  O5  IDS C   1      25.859  18.406  76.5090  0.00  0.00     0.000 O
ATOM      7   O  IDS C   1      27.836  20.666  74.5840  0.00  0.00     0.000 O
ATOM      9  HD  IDS C   1      27.420  21.285  75.0230  0.00  0.00     0.000 HD
ATOM      9   O  IDS C   1      27.161  20.402  78.1740  0.00  0.00     0.000 O
ATOM     11  HD  IDS C   1      26.744  21.021  78.6130  0.00  0.00     0.000 HD
ENDROOT
BRANCH 2 11
ATOM     11   O  IDS C   1      28.637  18.282  77.2670  0.00  0.00     0.000 O
ATOM     12   S  IDS C   1      29.929  17.358  77.4430  0.00  0.00     0.000 S
ATOM     13   O  IDS C   1      30.497  17.859  78.6760  0.00  0.00     0.000 OA
ATOM     14   O  IDS C   1      30.801  17.534  76.3080  0.00  0.00     0.000 OA
ATOM     15   O  IDS C   1      29.405  16.019  77.5550  0.00  0.00     0.000 OA
ENDBRANCH 2 11
BRANCH 5 16
ATOM     16   C  IDS C   1      24.389  20.081  77.3330  0.00  0.00     0.000 C
ATOM     17   O  IDS C   1      24.501  20.921  78.2010  0.00  0.00     0.000 OA
ATOM     18   O  IDS C   1      23.361  19.476  77.2040  0.00  0.00     0.000 OA
ENDBRANCH 5 16
BRANCH 1 19
ATOM     19  O4  SGN C   2      26.486  17.919  74.3050  0.00  0.00     0.000 O
BRANCH 19 23
ATOM     20  C1  SGN C   2      24.388  15.662  71.4890  0.00  0.00     0.000 C
ATOM     21  C2  SGN C   2      23.549  16.391  72.5440  0.00  0.00     0.000 C
ATOM     22  C3  SGN C   2      24.385  17.487  73.2010  0.00  0.00     0.000 C
ATOM     23  C4  SGN C   2      25.649  16.878  73.7980  0.00  0.00     0.000 C
ATOM     24  C5  SGN C   2      26.403  16.089  72.7250  0.00  0.00     0.000 C
ATOM     25  O5  SGN C   2      25.528  15.113  72.1310  0.00  0.00     0.000 O
ATOM     26   O  SGN C   2      23.626  18.164  74.1960  0.00  0.00     0.000 O
ATOM     28  HD  SGN C   2      23.077  18.567  74.7310  0.00  0.00     0.000 HD
BRANCH 21 30
ATOM     28   N  SGN C   2      22.492  15.888  71.6570  0.00  0.00     0.000 N
ATOM     30  HD  SGN C   2      22.129  16.445  71.1020  0.00  0.00     0.000 HD
ATOM     30   S  SGN C   2      20.946  16.024  72.0490  0.00  0.00     0.000 S
ATOM     31   O  SGN C   2      20.749  17.406  72.3290  0.00  0.00     0.000 OA
ATOM     32   O  SGN C   2      20.172  15.388  71.0490  0.00  0.00     0.000 OA
ATOM     33   O  SGN C   2      20.807  15.166  73.3520  0.00  0.00     0.000 OA
ENDBRANCH 21 30
BRANCH 24 34
ATOM     34   C  SGN C   2      27.594  15.326  73.2560  0.00  0.00     0.000 C
ATOM     35   O  SGN C   2      28.799  15.997  72.8470  0.00  0.00     0.000 O
ATOM     36   S  SGN C   2      30.149  15.146  72.8790  0.00  0.00     0.000 S
ATOM     37   O  SGN C   2      29.858  13.964  72.0910  0.00  0.00     0.000 OA
ATOM     38   O  SGN C   2      31.158  15.994  72.2910  0.00  0.00     0.000 OA
ATOM     39   O  SGN C   2      30.359  14.877  74.2800  0.00  0.00     0.000 OA
ENDBRANCH 24 34
BRANCH 20 40
ATOM     40  O4  IDS C   3      24.779  16.358  70.4240  0.00  0.00     0.000 O
BRANCH 40 44
ATOM     41  C1  IDS C   3      24.898  18.023  67.3190  0.00  0.00     0.000 C
ATOM     42  C2  IDS C   3      23.602  17.415  67.8490  0.00  0.00     0.000 C
ATOM     43  C3  IDS C   3      23.823  15.957  68.2440  0.00  0.00     0.000 C
ATOM     44  C4  IDS C   3      25.042  15.794  69.1370  0.00  0.00     0.000 C
ATOM     45  C5  IDS C   3      26.259  16.497  68.4990  0.00  0.00     0.000 C
ATOM     46  O5  IDS C   3      25.947  17.873  68.2710  0.00  0.00     0.000 O
ATOM     47   O  IDS C   3      23.973  15.166  67.0680  0.00  0.00     0.000 O
ATOM     49  HD  IDS C   3      23.497  15.617  67.6340  0.00  0.00     0.000 HD
BRANCH 42 49
ATOM     49   O  IDS C   3      23.139  18.164  69.0410  0.00  0.00     0.000 O
ATOM     50   S  IDS C   3      21.771  18.995  68.9730  0.00  0.00     0.000 S
ATOM     51   O  IDS C   3      20.755  17.966  68.9550  0.00  0.00     0.000 OA
ATOM     52   O  IDS C   3      21.761  19.811  67.7690  0.00  0.00     0.000 OA
ATOM     53   O  IDS C   3      21.735  19.801  70.1750  0.00  0.00     0.000 OA
ENDBRANCH 42 49
BRANCH 45 54
ATOM     54   C  IDS C   3      27.516  16.416  69.3500  0.00  0.00     0.000 C
ATOM     55   O  IDS C   3      28.028  17.427  69.7570  0.00  0.00     0.000 OA
ATOM     56   O  IDS C   3      28.009  15.333  69.6030  0.00  0.00     0.000 OA
ENDBRANCH 45 54
BRANCH 41 57
ATOM     57  O4  SGN C   4      25.040  17.602  66.0570  0.00  0.00     0.000 O
BRANCH 57 61
ATOM     58  C1  SGN C   4      27.075  18.787  62.5950  0.00  0.00     0.000 C
ATOM     59  C2  SGN C   4      27.913  18.651  63.8770  0.00  0.00     0.000 C
ATOM     60  C3  SGN C   4      27.167  17.835  64.9420  0.00  0.00     0.000 C
ATOM     61  C4  SGN C   4      25.796  18.443  65.1800  0.00  0.00     0.000 C
ATOM     62  C5  SGN C   4      25.033  18.576  63.8620  0.00  0.00     0.000 C
ATOM     63  O5  SGN C   4      25.800  19.330  62.9050  0.00  0.00     0.000 O
BRANCH 59 66
ATOM     64   N  SGN C   4      29.209  18.150  63.4080  0.00  0.00     0.000 N
ATOM     66  HD  SGN C   4      28.521  18.346  63.8960  0.00  0.00     0.000 HD
ATOM     66   O  SGN C   4      31.639  18.197  63.2380  0.00  0.00     0.000 OA
ATOM     67   O  SGN C   4      30.362  20.297  63.1660  0.00  0.00     0.000 OA
ATOM     68   S  SGN C   4      30.559  18.898  63.8460  0.00  0.00     0.000 S
ATOM     69   O  SGN C   4      30.542  19.063  65.2550  0.00  0.00     0.000 OA
ENDBRANCH 59 66
BRANCH 62 70
ATOM     70   C  SGN C   4      23.723  19.299  64.0510  0.00  0.00     0.000 C
ATOM     71   S  SGN C   4      22.532  21.534  63.6560  0.00  0.00     0.000 S
ATOM     72   O  SGN C   4      21.375  20.814  63.1610  0.00  0.00     0.000 OA
ATOM     73   O  SGN C   4      22.500  21.757  65.0880  0.00  0.00     0.000 OA
ATOM     74   O  SGN C   4      22.848  22.718  62.8890  0.00  0.00     0.000 OA
ATOM     75   O  SGN C   4      23.760  20.565  63.3820  0.00  0.00     0.000 O
ENDBRANCH 62 70
ENDBRANCH 57 61
ENDBRANCH 41 57
ENDBRANCH 40 44
ENDBRANCH 20 40
ENDBRANCH 19 23
ENDBRANCH 1 19
TORSDOF 14
ENDMDL
MODEL 76
REMARK VINA RESULT:       0.2     65.845     71.317
ROOT
ATOM      1  C1  IDS C   1      97.619  44.056  47.0150  0.00  0.00     0.000 C
ATOM      2  C2  IDS C   1      97.963  44.751  45.7100  0.00  0.00     0.000 C
ATOM      3  C3  IDS C   1      98.969  45.872  45.9420  0.00  0.00     0.000 C
ATOM      4  C4  IDS C   1     100.175  45.373  46.7380  0.00  0.00     0.000 C
ATOM      5  C5  IDS C   1      99.708  44.604  47.9900  0.00  0.00     0.000 C
ATOM      6  O5  IDS C   1      98.809  43.561  47.6270  0.00  0.00     0.000 O
ATOM      7   O  IDS C   1      98.330  46.951  46.6260  0.00  0.00     0.000 O
ATOM      9  HD  IDS C   1      99.150  47.063  46.8810  0.00  0.00     0.000 HD
ATOM      9   O  IDS C   1     100.955  44.501  45.9060  0.00  0.00     0.000 O
ATOM     11  HD  IDS C   1     101.775  44.613  46.1620  0.00  0.00     0.000 HD
ENDROOT
BRANCH 2 11
ATOM     11   O  IDS C   1      98.571  43.789  44.7640  0.00  0.00     0.000 O
ATOM     12   S  IDS C   1      97.955  43.583  43.3040  0.00  0.00     0.000 S
ATOM     13   O  IDS C   1      99.134  43.327  42.5070  0.00  0.00     0.000 OA
ATOM     14   O  IDS C   1      97.254  44.780  42.9070  0.00  0.00     0.000 OA
ATOM     15   O  IDS C   1      97.091  42.436  43.4350  0.00  0.00     0.000 OA
ENDBRANCH 2 11
BRANCH 5 16
ATOM     16   C  IDS C   1     100.850  43.979  48.7710  0.00  0.00     0.000 C
ATOM     17   O  IDS C   1     100.612  43.045  49.5080  0.00  0.00     0.000 OA
ATOM     18   O  IDS C   1     101.967  44.408  48.6770  0.00  0.00     0.000 OA
ENDBRANCH 5 16
BRANCH 1 19
ATOM     19  O4  SGN C   2      96.732  44.623  47.8380  0.00  0.00     0.000 O
BRANCH 19 23
ATOM     20  C1  SGN C   2      93.451  43.948  50.3290  0.00  0.00     0.000 C
ATOM     21  C2  SGN C   2      94.816  43.490  50.8560  0.00  0.00     0.000 C
ATOM     22  C3  SGN C   2      95.929  44.177  50.0690  0.00  0.00     0.000 C
ATOM     23  C4  SGN C   2      95.763  43.883  48.5820  0.00  0.00     0.000 C
ATOM     24  C5  SGN C   2      94.355  44.277  48.1290  0.00  0.00     0.000 C
ATOM     25  O5  SGN C   2      93.375  43.619  48.9520  0.00  0.00     0.000 O
ATOM     26   O  SGN C   2      97.205  43.752  50.5340  0.00  0.00     0.000 O
ATOM     28  HD  SGN C   2      97.936  43.495  50.9200  0.00  0.00     0.000 HD
BRANCH 21 30
ATOM     28   N  SGN C   2      94.168  43.552  52.1730  0.00  0.00     0.000 N
ATOM     30  HD  SGN C   2      94.562  44.003  52.7980  0.00  0.00     0.000 HD
ATOM     30   S  SGN C   2      94.557  42.527  53.3380  0.00  0.00     0.000 S
ATOM     31   O  SGN C   2      95.972  42.628  53.4710  0.00  0.00     0.000 OA
ATOM     32   O  SGN C   2      93.722  42.777  54.4530  0.00  0.00     0.000 OA
ATOM     33   O  SGN C   2      94.149  41.127  52.7640  0.00  0.00     0.000 OA
ENDBRANCH 21 30
BRANCH 24 34
ATOM     34   C  SGN C   2      94.045  43.886  46.7030  0.00  0.00     0.000 C
ATOM     35   O  SGN C   2      94.016  45.072  45.8890  0.00  0.00     0.000 O
ATOM     36   S  SGN C   2      93.260  44.971  44.4860  0.00  0.00     0.000 S
ATOM     37   O  SGN C   2      91.939  44.472  44.8140  0.00  0.00     0.000 OA
ATOM     38   O  SGN C   2      93.251  46.311  43.9520  0.00  0.00     0.000 OA
ATOM     39   O  SGN C   2      94.063  44.046  43.7240  0.00  0.00     0.000 OA
ENDBRANCH 24 34
BRANCH 20 40
ATOM     40  O4  IDS C   3      93.126  45.228  50.4930  0.00  0.00     0.000 O
BRANCH 40 44
ATOM     41  C1  IDS C   3      92.166  48.504  51.3720  0.00  0.00     0.000 C
ATOM     42  C2  IDS C   3      92.593  47.488  52.4270  0.00  0.00     0.000 C
ATOM     43  C3  IDS C   3      91.802  46.192  52.2670  0.00  0.00     0.000 C
ATOM     44  C4  IDS C   3      91.818  45.697  50.8290  0.00  0.00     0.000 C
ATOM     45  C5  IDS C   3      91.414  46.841  49.8750  0.00  0.00     0.000 C
ATOM     46  O5  IDS C   3      92.293  47.952  50.0640  0.00  0.00     0.000 O
ATOM     47   O  IDS C   3      90.459  46.402  52.6930  0.00  0.00     0.000 O
ATOM     49  HD  IDS C   3      91.303  46.284  52.8460  0.00  0.00     0.000 HD
BRANCH 42 49
ATOM     49   O  IDS C   3      94.036  47.183  52.2860  0.00  0.00     0.000 O
ATOM     50   S  IDS C   3      94.973  47.158  53.5850  0.00  0.00     0.000 S
ATOM     51   O  IDS C   3      94.562  45.951  54.2690  0.00  0.00     0.000 OA
ATOM     52   O  IDS C   3      94.735  48.355  54.3750  0.00  0.00     0.000 OA
ATOM     53   O  IDS C   3      96.333  47.092  53.0940  0.00  0.00     0.000 OA
ENDBRANCH 42 49
BRANCH 45 54
ATOM     54   C  IDS C   3      91.442  46.440  48.4080  0.00  0.00     0.000 C
ATOM     55   O  IDS C   3      90.815  45.481  48.0400  0.00  0.00     0.000 OA
ATOM     56   O  IDS C   3      92.109  47.079  47.6180  0.00  0.00     0.000 OA
ENDBRANCH 45 54
BRANCH 41 57
ATOM     57  O4  SGN C   4      91.014  49.042  51.7900  0.00  0.00     0.000 O
BRANCH 57 61
ATOM     58  C1  SGN C   4      88.773  52.505  51.0710  0.00  0.00     0.000 C
ATOM     59  C2  SGN C   4      89.275  51.737  49.8370  0.00  0.00     0.000 C
ATOM     60  C3  SGN C   4      89.707  50.312  50.2090  0.00  0.00     0.000 C
ATOM     61  C4  SGN C   4      90.722  50.368  51.3380  0.00  0.00     0.000 C
ATOM     62  C5  SGN C   4      90.170  51.169  52.5160  0.00  0.00     0.000 C
ATOM     63  O5  SGN C   4      89.762  52.483  52.0900  0.00  0.00     0.000 O
BRANCH 59 66
ATOM     64   N  SGN C   4      88.199  51.895  48.8530  0.00  0.00     0.000 N
ATOM     66  HD  SGN C   4      88.887  51.607  49.2940  0.00  0.00     0.000 HD
ATOM     66   O  SGN C   4      87.310  52.480  46.6620  0.00  0.00     0.000 OA
ATOM     67   O  SGN C   4      89.059  53.870  47.6870  0.00  0.00     0.000 OA
ATOM     68   S  SGN C   4      88.539  52.423  47.3770  0.00  0.00     0.000 S
ATOM     69   O  SGN C   4      89.610  51.649  46.8600  0.00  0.00     0.000 OA
ENDBRANCH 59 66
BRANCH 62 70
ATOM     70   C  SGN C   4      91.207  51.353  53.5960  0.00  0.00     0.000 C
ATOM     71   S  SGN C   4      92.739  53.085  54.7030  0.00  0.00     0.000 S
ATOM     72   O  SGN C   4      92.342  52.583  56.0040  0.00  0.00     0.000 OA
ATOM     73   O  SGN C   4      93.891  52.401  54.1510  0.00  0.00     0.000 OA
ATOM     74   O  SGN C   4      92.833  54.525  54.6430  0.00  0.00     0.000 OA
ATOM     75   O  SGN C   4      91.517  52.743  53.7470  0.00  0.00     0.000 O
ENDBRANCH 62 70
ENDBRANCH 57 61
ENDBRANCH 41 57
ENDBRANCH 40 44
ENDBRANCH 20 40
ENDBRANCH 19 23
ENDBRANCH 1 19
TORSDOF 14
ENDMDL
MODEL 77
REMARK VINA RESULT:       0.2    104.826    110.694
ROOT
ATOM      1  C1  IDS C   1      14.494  44.491  92.2210  0.00  0.00     0.000 C
ATOM      2  C2  IDS C   1      14.442  44.966  93.6620  0.00  0.00     0.000 C
ATOM      3  C3  IDS C   1      13.016  44.915  94.1970  0.00  0.00     0.000 C
ATOM      4  C4  IDS C   1      12.383  43.545  93.9520  0.00  0.00     0.000 C
ATOM      5  C5  IDS C   1      12.577  43.123  92.4820  0.00  0.00     0.000 C
ATOM      6  O5  IDS C   1      13.954  43.174  92.1260  0.00  0.00     0.000 O
ATOM      7   O  IDS C   1      12.239  45.943  93.5800  0.00  0.00     0.000 O
ATOM      9  HD  IDS C   1      11.621  45.365  93.7670  0.00  0.00     0.000 HD
ATOM      9   O  IDS C   1      13.011  42.581  94.8110  0.00  0.00     0.000 O
ATOM     11  HD  IDS C   1      12.393  42.003  94.9980  0.00  0.00     0.000 HD
ENDROOT
BRANCH 2 11
ATOM     11   O  IDS C   1      15.275  44.091  94.5180  0.00  0.00     0.000 O
ATOM     12   S  IDS C   1      16.626  44.641  95.1720  0.00  0.00     0.000 S
ATOM     13   O  IDS C   1      16.656  43.947  96.4400  0.00  0.00     0.000 OA
ATOM     14   O  IDS C   1      16.540  46.074  95.3150  0.00  0.00     0.000 OA
ATOM     15   O  IDS C   1      17.664  44.222  94.2640  0.00  0.00     0.000 OA
ENDBRANCH 2 11
BRANCH 5 16
ATOM     16   C  IDS C   1      12.074  41.721  92.1890  0.00  0.00     0.000 C
ATOM     17   O  IDS C   1      11.544  41.092  93.0810  0.00  0.00     0.000 OA
ATOM     18   O  IDS C   1      12.212  41.233  91.1020  0.00  0.00     0.000 OA
ENDBRANCH 5 16
BRANCH 1 19
ATOM     19  O4  SGN C   2      14.144  45.336  91.2460  0.00  0.00     0.000 O
BRANCH 19 23
ATOM     20  C1  SGN C   2      14.761  46.421  87.2630  0.00  0.00     0.000 C
ATOM     21  C2  SGN C   2      14.006  45.109  87.5060  0.00  0.00     0.000 C
ATOM     22  C3  SGN C   2      13.486  45.072  88.9410  0.00  0.00     0.000 C
ATOM     23  C4  SGN C   2      14.647  45.250  89.9120  0.00  0.00     0.000 C
ATOM     24  C5  SGN C   2      15.419  46.527  89.5700  0.00  0.00     0.000 C
ATOM     25  O5  SGN C   2      15.831  46.495  88.1920  0.00  0.00     0.000 O
ATOM     26   O  SGN C   2      12.794  43.853  89.1890  0.00  0.00     0.000 O
ATOM     28  HD  SGN C   2      12.334  43.121  89.2360  0.00  0.00     0.000 HD
BRANCH 21 30
ATOM     28   N  SGN C   2      13.220  45.227  86.2710  0.00  0.00     0.000 N
ATOM     30  HD  SGN C   2      12.428  44.876  86.2580  0.00  0.00     0.000 HD
ATOM     30   S  SGN C   2      13.223  44.064  85.1720  0.00  0.00     0.000 S
ATOM     31   O  SGN C   2      12.872  42.878  85.8770  0.00  0.00     0.000 OA
ATOM     32   O  SGN C   2      12.444  44.487  84.0680  0.00  0.00     0.000 OA
ATOM     33   O  SGN C   2      14.712  44.004  84.6860  0.00  0.00     0.000 OA
ENDBRANCH 21 30
BRANCH 24 34
ATOM     34   C  SGN C   2      16.677  46.712  90.3860  0.00  0.00     0.000 C
ATOM     35   O  SGN C   2      16.430  47.690  91.4110  0.00  0.00     0.000 O
ATOM     36   S  SGN C   2      17.705  48.385  92.0740  0.00  0.00     0.000 S
ATOM     37   O  SGN C   2      18.462  48.911  90.9550  0.00  0.00     0.000 OA
ATOM     38   O  SGN C   2      17.182  49.410  92.9450  0.00  0.00     0.000 OA
ATOM     39   O  SGN C   2      18.365  47.309  92.7720  0.00  0.00     0.000 OA
ENDBRANCH 24 34
BRANCH 20 40
ATOM     40  O4  IDS C   3      14.062  47.552  87.3100  0.00  0.00     0.000 O
BRANCH 40 44
ATOM     41  C1  IDS C   3      12.039  50.417  86.9490  0.00  0.00     0.000 C
ATOM     42  C2  IDS C   3      11.846  49.187  86.0660  0.00  0.00     0.000 C
ATOM     43  C3  IDS C   3      13.172  48.777  85.4300  0.00  0.00     0.000 C
ATOM     44  C4  IDS C   3      14.285  48.680  86.4610  0.00  0.00     0.000 C
ATOM     45  C5  IDS C   3      14.329  49.969  87.3090  0.00  0.00     0.000 C
ATOM     46  O5  IDS C   3      13.055  50.181  87.9200  0.00  0.00     0.000 O
ATOM     47   O  IDS C   3      13.524  49.720  84.4210  0.00  0.00     0.000 O
ATOM     49  HD  IDS C   3      13.056  49.056  84.7210  0.00  0.00     0.000 HD
BRANCH 42 49
ATOM     49   O  IDS C   3      11.338  48.055  86.8740  0.00  0.00     0.000 O
ATOM     50   S  IDS C   3       9.932  47.382  86.5020  0.00  0.00     0.000 S
ATOM     51   O  IDS C   3      10.219  46.664  85.2790  0.00  0.00     0.000 OA
ATOM     52   O  IDS C   3       8.933  48.422  86.3170  0.00  0.00     0.000 OA
ATOM     53   O  IDS C   3       9.606  46.505  87.6060  0.00  0.00     0.000 OA
ENDBRANCH 42 49
BRANCH 45 54
ATOM     54   C  IDS C   3      15.394  49.939  88.3940  0.00  0.00     0.000 C
ATOM     55   O  IDS C   3      16.545  49.751  88.0960  0.00  0.00     0.000 OA
ATOM     56   O  IDS C   3      15.077  50.089  89.5580  0.00  0.00     0.000 OA
ENDBRANCH 45 54
BRANCH 41 57
ATOM     57  O4  SGN C   4      12.089  51.479  86.1360  0.00  0.00     0.000 O
BRANCH 57 61
ATOM     58  C1  SGN C   4      11.988  55.651  86.4670  0.00  0.00     0.000 C
ATOM     59  C2  SGN C   4      13.004  54.912  87.3530  0.00  0.00     0.000 C
ATOM     60  C3  SGN C   4      13.233  53.478  86.8560  0.00  0.00     0.000 C
ATOM     61  C4  SGN C   4      11.898  52.761  86.7420  0.00  0.00     0.000 C
ATOM     62  C5  SGN C   4      10.931  53.565  85.8740  0.00  0.00     0.000 C
ATOM     63  O5  SGN C   4      10.784  54.904  86.3840  0.00  0.00     0.000 O
BRANCH 59 66
ATOM     64   N  SGN C   4      14.164  55.807  87.4070  0.00  0.00     0.000 N
ATOM     66  HD  SGN C   4      13.648  55.112  87.4390  0.00  0.00     0.000 HD
ATOM     66   O  SGN C   4      15.873  57.104  88.5610  0.00  0.00     0.000 OA
ATOM     67   O  SGN C   4      13.577  57.043  89.4380  0.00  0.00     0.000 OA
ATOM     68   S  SGN C   4      14.775  56.237  88.8260  0.00  0.00     0.000 S
ATOM     69   O  SGN C   4      14.985  55.065  89.5970  0.00  0.00     0.000 OA
ENDBRANCH 59 66
BRANCH 62 70
ATOM     70   C  SGN C   4       9.557  52.943  85.8540  0.00  0.00     0.000 C
ATOM     71   S  SGN C   4       7.353  52.780  87.1540  0.00  0.00     0.000 S
ATOM     72   O  SGN C   4       6.625  52.980  85.9170  0.00  0.00     0.000 OA
ATOM     73   O  SGN C   4       7.636  51.387  87.4340  0.00  0.00     0.000 OA
ATOM     74   O  SGN C   4       6.795  53.499  88.2760  0.00  0.00     0.000 OA
ATOM     75   O  SGN C   4       8.758  53.481  86.9150  0.00  0.00     0.000 O
ENDBRANCH 62 70
ENDBRANCH 57 61
ENDBRANCH 41 57
ENDBRANCH 40 44
ENDBRANCH 20 40
ENDBRANCH 19 23
ENDBRANCH 1 19
TORSDOF 14
ENDMDL
MODEL 78
REMARK VINA RESULT:       0.2    107.273    112.754
ROOT
ATOM      1  C1  IDS C   1      14.071  43.079  92.2430  0.00  0.00     0.000 C
ATOM      2  C2  IDS C   1      14.242  43.568  93.6700  0.00  0.00     0.000 C
ATOM      3  C3  IDS C   1      12.962  43.362  94.4690  0.00  0.00     0.000 C
ATOM      4  C4  IDS C   1      12.458  41.924  94.3430  0.00  0.00     0.000 C
ATOM      5  C5  IDS C   1      12.413  41.503  92.8600  0.00  0.00     0.000 C
ATOM      6  O5  IDS C   1      13.682  41.706  92.2460  0.00  0.00     0.000 O
ATOM      7   O  IDS C   1      11.966  44.282  94.0200  0.00  0.00     0.000 O
ATOM      9  HD  IDS C   1      11.467  43.640  94.3180  0.00  0.00     0.000 HD
ATOM      9   O  IDS C   1      13.347  41.053  95.0590  0.00  0.00     0.000 O
ATOM     11  HD  IDS C   1      12.848  40.411  95.3570  0.00  0.00     0.000 HD
ENDROOT
BRANCH 2 11
ATOM     11   O  IDS C   1      15.320  42.811  94.3440  0.00  0.00     0.000 O
ATOM     12   S  IDS C   1      16.692  43.528  94.7430  0.00  0.00     0.000 S
ATOM     13   O  IDS C   1      17.043  42.855  95.9740  0.00  0.00     0.000 OA
ATOM     14   O  IDS C   1      16.459  44.941  94.9190  0.00  0.00     0.000 OA
ATOM     15   O  IDS C   1      17.587  43.231  93.6520  0.00  0.00     0.000 OA
ENDBRANCH 2 11
BRANCH 5 16
ATOM     16   C  IDS C   1      12.032  40.047  92.6610  0.00  0.00     0.000 C
ATOM     17   O  IDS C   1      11.767  39.374  93.6350  0.00  0.00     0.000 OA
ATOM     18   O  IDS C   1      12.007  39.562  91.5640  0.00  0.00     0.000 OA
ENDBRANCH 5 16
BRANCH 1 19
ATOM     19  O4  SGN C   2      13.445  43.862  91.3590  0.00  0.00     0.000 O
BRANCH 19 23
ATOM     20  C1  SGN C   2      13.166  44.957  87.3410  0.00  0.00     0.000 C
ATOM     21  C2  SGN C   2      12.643  43.564  87.7080  0.00  0.00     0.000 C
ATOM     22  C3  SGN C   2      12.408  43.482  89.2140  0.00  0.00     0.000 C
ATOM     23  C4  SGN C   2      13.698  43.820  89.9540  0.00  0.00     0.000 C
ATOM     24  C5  SGN C   2      14.223  45.181  89.4860  0.00  0.00     0.000 C
ATOM     25  O5  SGN C   2      14.371  45.181  88.0550  0.00  0.00     0.000 O
ATOM     26   O  SGN C   2      11.937  42.189  89.5750  0.00  0.00     0.000 O
ATOM     28  HD  SGN C   2      11.591  41.405  89.7010  0.00  0.00     0.000 HD
BRANCH 21 30
ATOM     28   N  SGN C   2      11.680  43.597  86.6000  0.00  0.00     0.000 N
ATOM     30  HD  SGN C   2      10.914  43.211  86.7160  0.00  0.00     0.000 HD
ATOM     30   S  SGN C   2      11.581  42.393  85.5510  0.00  0.00     0.000 S
ATOM     31   O  SGN C   2      11.397  41.222  86.3390  0.00  0.00     0.000 OA
ATOM     32   O  SGN C   2      10.628  42.737  84.5610  0.00  0.00     0.000 OA
ATOM     33   O  SGN C   2      12.983  42.381  84.8520  0.00  0.00     0.000 OA
ENDBRANCH 21 30
BRANCH 24 34
ATOM     34   C  SGN C   2      15.576  45.537  90.0550  0.00  0.00     0.000 C
ATOM     35   O  SGN C   2      15.400  46.481  91.1260  0.00  0.00     0.000 O
ATOM     36   S  SGN C   2      16.675  47.343  91.5500  0.00  0.00     0.000 S
ATOM     37   O  SGN C   2      17.131  47.956  90.3190  0.00  0.00     0.000 OA
ATOM     38   O  SGN C   2      16.194  48.295  92.5220  0.00  0.00     0.000 OA
ATOM     39   O  SGN C   2      17.589  46.369  92.0930  0.00  0.00     0.000 OA
ENDBRANCH 24 34
BRANCH 20 40
ATOM     40  O4  IDS C   3      12.349  45.991  87.5280  0.00  0.00     0.000 O
BRANCH 40 44
ATOM     41  C1  IDS C   3      10.047  48.655  87.7010  0.00  0.00     0.000 C
ATOM     42  C2  IDS C   3       9.733  47.379  86.9270  0.00  0.00     0.000 C
ATOM     43  C3  IDS C   3      10.863  47.057  85.9520  0.00  0.00     0.000 C
ATOM     44  C4  IDS C   3      12.222  47.098  86.6330  0.00  0.00     0.000 C
ATOM     45  C5  IDS C   3      12.379  48.420  87.4140  0.00  0.00     0.000 C
ATOM     46  O5  IDS C   3      11.310  48.547  88.3540  0.00  0.00     0.000 O
ATOM     47   O  IDS C   3      10.833  47.985  84.8700  0.00  0.00     0.000 O
ATOM     49  HD  IDS C   3      10.531  47.296  85.2990  0.00  0.00     0.000 HD
BRANCH 42 49
ATOM     49   O  IDS C   3       9.576  46.241  87.8620  0.00  0.00     0.000 O
ATOM     50   S  IDS C   3       8.346  45.230  87.6830  0.00  0.00     0.000 S
ATOM     51   O  IDS C   3       8.697  44.486  86.4930  0.00  0.00     0.000 OA
ATOM     52   O  IDS C   3       7.116  45.989  87.5230  0.00  0.00     0.000 OA
ATOM     53   O  IDS C   3       8.328  44.410  88.8750  0.00  0.00     0.000 OA
ENDBRANCH 42 49
BRANCH 45 54
ATOM     54   C  IDS C   3      13.700  48.526  88.1600  0.00  0.00     0.000 C
ATOM     55   O  IDS C   3      14.736  48.440  87.5530  0.00  0.00     0.000 OA
ATOM     56   O  IDS C   3      13.705  48.679  89.3660  0.00  0.00     0.000 OA
ENDBRANCH 45 54
BRANCH 41 57
ATOM     57  O4  SGN C   4       9.771  49.684  86.8900  0.00  0.00     0.000 O
BRANCH 57 61
ATOM     58  C1  SGN C   4       9.362  53.843  87.1450  0.00  0.00     0.000 C
ATOM     59  C2  SGN C   4      10.763  53.268  87.4090  0.00  0.00     0.000 C
ATOM     60  C3  SGN C   4      10.878  51.827  86.8930  0.00  0.00     0.000 C
ATOM     61  C4  SGN C   4       9.760  50.986  87.4840  0.00  0.00     0.000 C
ATOM     62  C5  SGN C   4       8.402  51.629  87.2090  0.00  0.00     0.000 C
ATOM     63  O5  SGN C   4       8.375  52.984  87.6970  0.00  0.00     0.000 O
BRANCH 59 66
ATOM     64   N  SGN C   4      11.597  54.472  87.4830  0.00  0.00     0.000 N
ATOM     66  HD  SGN C   4      11.061  53.848  87.2140  0.00  0.00     0.000 HD
ATOM     66   O  SGN C   4      13.572  55.798  86.9560  0.00  0.00     0.000 OA
ATOM     67   O  SGN C   4      13.796  53.395  87.4210  0.00  0.00     0.000 OA
ATOM     68   S  SGN C   4      12.992  54.526  86.6910  0.00  0.00     0.000 S
ATOM     69   O  SGN C   4      12.759  54.133  85.3480  0.00  0.00     0.000 OA
ENDBRANCH 59 66
BRANCH 62 70
ATOM     70   C  SGN C   4       7.286  50.886  87.8990  0.00  0.00     0.000 C
ATOM     71   S  SGN C   4       6.564  49.880  90.1440  0.00  0.00     0.000 S
ATOM     72   O  SGN C   4       5.254  50.476  89.9730  0.00  0.00     0.000 OA
ATOM     73   O  SGN C   4       6.670  48.554  89.5700  0.00  0.00     0.000 OA
ATOM     74   O  SGN C   4       7.070  49.973  91.4940  0.00  0.00     0.000 OA
ATOM     75   O  SGN C   4       7.543  50.808  89.3060  0.00  0.00     0.000 O
ENDBRANCH 62 70
ENDBRANCH 57 61
ENDBRANCH 41 57
ENDBRANCH 40 44
ENDBRANCH 20 40
ENDBRANCH 19 23
ENDBRANCH 1 19
TORSDOF 14
ENDMDL
MODEL 79
REMARK VINA RESULT:       0.2    102.378    107.251
ROOT
ATOM      1  C1  IDS C   1      36.011  35.584  95.5210  0.00  0.00     0.000 C
ATOM      2  C2  IDS C   1      36.701  36.802  96.1090  0.00  0.00     0.000 C
ATOM      3  C3  IDS C   1      37.811  37.293  95.1870  0.00  0.00     0.000 C
ATOM      4  C4  IDS C   1      37.300  37.475  93.7580  0.00  0.00     0.000 C
ATOM      5  C5  IDS C   1      36.537  36.217  93.2990  0.00  0.00     0.000 C
ATOM      6  O5  IDS C   1      35.504  35.896  94.2240  0.00  0.00     0.000 O
ATOM      7   O  IDS C   1      38.898  36.366  95.2150  0.00  0.00     0.000 O
ATOM      9  HD  IDS C   1      39.001  36.710  94.4270  0.00  0.00     0.000 HD
ATOM      9   O  IDS C   1      36.419  38.608  93.7180  0.00  0.00     0.000 O
ATOM     11  HD  IDS C   1      36.522  38.952  92.9300  0.00  0.00     0.000 HD
ENDROOT
BRANCH 2 11
ATOM     11   O  IDS C   1      35.732  37.908  96.2740  0.00  0.00     0.000 O
ATOM     12   S  IDS C   1      35.417  38.505  97.7230  0.00  0.00     0.000 S
ATOM     13   O  IDS C   1      35.194  39.905  97.4350  0.00  0.00     0.000 OA
ATOM     14   O  IDS C   1      36.550  38.281  98.5890  0.00  0.00     0.000 OA
ATOM     15   O  IDS C   1      34.229  37.810  98.1510  0.00  0.00     0.000 OA
ENDBRANCH 2 11
BRANCH 5 16
ATOM     16   C  IDS C   1      35.901  36.367  91.9290  0.00  0.00     0.000 C
ATOM     17   O  IDS C   1      36.429  35.832  90.9770  0.00  0.00     0.000 OA
ATOM     18   O  IDS C   1      34.902  37.017  91.7820  0.00  0.00     0.000 OA
ENDBRANCH 5 16
BRANCH 1 19
ATOM     19  O4  SGN C   2      36.588  34.386  95.6500  0.00  0.00     0.000 O
BRANCH 19 23
ATOM     20  C1  SGN C   2      35.920  30.316  96.2950  0.00  0.00     0.000 C
ATOM     21  C2  SGN C   2      35.581  30.853  94.9000  0.00  0.00     0.000 C
ATOM     22  C3  SGN C   2      36.267  32.199  94.6840  0.00  0.00     0.000 C
ATOM     23  C4  SGN C   2      35.853  33.169  95.7850  0.00  0.00     0.000 C
ATOM     24  C5  SGN C   2      36.133  32.548  97.1560  0.00  0.00     0.000 C
ATOM     25  O5  SGN C   2      35.485  31.267  97.2540  0.00  0.00     0.000 O
ATOM     26   O  SGN C   2      35.950  32.720  93.3980  0.00  0.00     0.000 O
ATOM     28  HD  SGN C   2      35.764  32.931  92.5790  0.00  0.00     0.000 HD
BRANCH 21 30
ATOM     28   N  SGN C   2      35.403  29.410  94.6860  0.00  0.00     0.000 N
ATOM     30  HD  SGN C   2      36.034  28.981  94.2760  0.00  0.00     0.000 HD
ATOM     30   S  SGN C   2      34.794  28.843  93.3200  0.00  0.00     0.000 S
ATOM     31   O  SGN C   2      35.595  29.408  92.2870  0.00  0.00     0.000 OA
ATOM     32   O  SGN C   2      34.672  27.437  93.4320  0.00  0.00     0.000 OA
ATOM     33   O  SGN C   2      33.340  29.427  93.2810  0.00  0.00     0.000 OA
ENDBRANCH 21 30
BRANCH 24 34
ATOM     34   C  SGN C   2      35.619  33.374  98.3120  0.00  0.00     0.000 C
ATOM     35   O  SGN C   2      36.735  33.991  98.9780  0.00  0.00     0.000 O
ATOM     36   S  SGN C   2      36.494  34.507 100.4700  0.00  0.00     0.000 S
ATOM     37   O  SGN C   2      35.972  33.355 101.1790  0.00  0.00     0.000 OA
ATOM     38   O  SGN C   2      37.787  34.937 100.9460  0.00  0.00     0.000 OA
ATOM     39   O  SGN C   2      35.544  35.581 100.3180  0.00  0.00     0.000 OA
ENDBRANCH 24 34
BRANCH 20 40
ATOM     40  O4  IDS C   3      37.189  29.997  96.5400  0.00  0.00     0.000 O
BRANCH 40 44
ATOM     41  C1  IDS C   3      40.296  28.339  96.6930  0.00  0.00     0.000 C
ATOM     42  C2  IDS C   3      39.124  27.766  95.9010  0.00  0.00     0.000 C
ATOM     43  C3  IDS C   3      37.876  27.695  96.7770  0.00  0.00     0.000 C
ATOM     44  C4  IDS C   3      37.611  29.013  97.4870  0.00  0.00     0.000 C
ATOM     45  C5  IDS C   3      38.893  29.493  98.2000  0.00  0.00     0.000 C
ATOM     46  O5  IDS C   3      39.953  29.605  97.2490  0.00  0.00     0.000 O
ATOM     47   O  IDS C   3      38.028  26.650  97.7340  0.00  0.00     0.000 O
ATOM     49  HD  IDS C   3      37.880  26.940  96.9320  0.00  0.00     0.000 HD
BRANCH 42 49
ATOM     49   O  IDS C   3      38.833  28.624  94.7300  0.00  0.00     0.000 O
ATOM     50   S  IDS C   3      39.075  28.058  93.2510  0.00  0.00     0.000 S
ATOM     51   O  IDS C   3      38.009  27.095  93.0840  0.00  0.00     0.000 OA
ATOM     52   O  IDS C   3      40.393  27.449  93.1760  0.00  0.00     0.000 OA
ATOM     53   O  IDS C   3      38.951  29.195  92.3640  0.00  0.00     0.000 OA
ENDBRANCH 42 49
BRANCH 45 54
ATOM     54   C  IDS C   3      38.725  30.829  98.9060  0.00  0.00     0.000 C
ATOM     55   O  IDS C   3      39.393  31.771  98.5650  0.00  0.00     0.000 OA
ATOM     56   O  IDS C   3      37.932  30.938  99.8200  0.00  0.00     0.000 OA
ENDBRANCH 45 54
BRANCH 41 57
ATOM     57  O4  SGN C   4      40.771  27.350  97.4600  0.00  0.00     0.000 O
BRANCH 57 61
ATOM     58  C1  SGN C   4      44.334  26.413  99.4500  0.00  0.00     0.000 C
ATOM     59  C2  SGN C   4      43.771  27.827  99.6680  0.00  0.00     0.000 C
ATOM     60  C3  SGN C   4      42.299  27.910  99.2410  0.00  0.00     0.000 C
ATOM     61  C4  SGN C   4      42.157  27.418  97.8100  0.00  0.00     0.000 C
ATOM     62  C5  SGN C   4      42.762  26.023  97.6610  0.00  0.00     0.000 C
ATOM     63  O5  SGN C   4      44.133  26.015  98.1020  0.00  0.00     0.000 O
BRANCH 59 66
ATOM     64   N  SGN C   4      44.102  28.135 101.0630  0.00  0.00     0.000 N
ATOM     66  HD  SGN C   4      43.737  28.126 100.2780  0.00  0.00     0.000 HD
ATOM     66   O  SGN C   4      45.047  29.519 102.8310  0.00  0.00     0.000 OA
ATOM     67   O  SGN C   4      46.226  29.294 100.6860  0.00  0.00     0.000 OA
ATOM     68   S  SGN C   4      44.857  29.505 101.4210  0.00  0.00     0.000 S
ATOM     69   O  SGN C   4      44.161  30.574 100.8010  0.00  0.00     0.000 OA
ENDBRANCH 59 66
BRANCH 62 70
ATOM     70   C  SGN C   4      42.754  25.567  96.2230  0.00  0.00     0.000 C
ATOM     71   S  SGN C   4      42.379  23.530  94.7140  0.00  0.00     0.000 S
ATOM     72   O  SGN C   4      41.574  24.350  93.8310  0.00  0.00     0.000 OA
ATOM     73   O  SGN C   4      43.788  23.535  94.3760  0.00  0.00     0.000 OA
ATOM     74   O  SGN C   4      41.836  22.208  94.9280  0.00  0.00     0.000 OA
ATOM     75   O  SGN C   4      42.258  24.226  96.1360  0.00  0.00     0.000 O
ENDBRANCH 62 70
ENDBRANCH 57 61
ENDBRANCH 41 57
ENDBRANCH 40 44
ENDBRANCH 20 40
ENDBRANCH 19 23
ENDBRANCH 1 19
TORSDOF 14
ENDMDL
MODEL 80
REMARK VINA RESULT:       0.2     31.884     36.153
ROOT
ATOM      1  C1  IDS C   1     103.026  97.655  37.8650  0.00  0.00     0.000 C
ATOM      2  C2  IDS C   1     102.515  96.357  37.2650  0.00  0.00     0.000 C
ATOM      3  C3  IDS C   1     103.147  96.105  35.9020  0.00  0.00     0.000 C
ATOM      4  C4  IDS C   1     104.670  96.223  35.9690  0.00  0.00     0.000 C
ATOM      5  C5  IDS C   1     105.073  97.532  36.6790  0.00  0.00     0.000 C
ATOM      6  O5  IDS C   1     104.449  97.619  37.9550  0.00  0.00     0.000 O
ATOM      7   O  IDS C   1     102.616  97.031  34.9520  0.00  0.00     0.000 O
ATOM      9  HD  IDS C   1     103.390  96.868  34.6010  0.00  0.00     0.000 HD
ATOM      9   O  IDS C   1     105.193  95.104  36.7010  0.00  0.00     0.000 O
ATOM     11  HD  IDS C   1     105.967  94.941  36.3500  0.00  0.00     0.000 HD
ENDROOT
BRANCH 2 11
ATOM     11   O  IDS C   1     102.867  95.217  38.1410  0.00  0.00     0.000 O
ATOM     12   S  IDS C   1     101.727  94.285  38.7610  0.00  0.00     0.000 S
ATOM     13   O  IDS C   1     102.366  92.988  38.7770  0.00  0.00     0.000 OA
ATOM     14   O  IDS C   1     100.560  94.328  37.9130  0.00  0.00     0.000 OA
ATOM     15   O  IDS C   1     101.492  94.826  40.0770  0.00  0.00     0.000 OA
ENDBRANCH 2 11
BRANCH 5 16
ATOM     16   C  IDS C   1     106.571  97.665  36.8860  0.00  0.00     0.000 C
ATOM     17   O  IDS C   1     106.977  98.414  37.7490  0.00  0.00     0.000 OA
ATOM     18   O  IDS C   1     107.344  97.054  36.2010  0.00  0.00     0.000 OA
ENDBRANCH 5 16
BRANCH 1 19
ATOM     19  O4  SGN C   2     102.496  98.811  37.4540  0.00  0.00     0.000 O
BRANCH 19 23
ATOM     20  C1  SGN C   2     101.220 102.605  38.6410  0.00  0.00     0.000 C
ATOM     21  C2  SGN C   2     102.735 102.386  38.5600  0.00  0.00     0.000 C
ATOM     22  C3  SGN C   2     103.034 101.148  37.7190  0.00  0.00     0.000 C
ATOM     23  C4  SGN C   2     102.314  99.941  38.3100  0.00  0.00     0.000 C
ATOM     24  C5  SGN C   2     100.820 100.244  38.4500  0.00  0.00     0.000 C
ATOM     25  O5  SGN C   2     100.636 101.448  39.2170  0.00  0.00     0.000 O
ATOM     26   O  SGN C   2     104.436 100.921  37.6460  0.00  0.00     0.000 O
ATOM     28  HD  SGN C   2     105.301 100.895  37.5950  0.00  0.00     0.000 HD
BRANCH 21 30
ATOM     28   N  SGN C   2     102.683 103.834  38.8070  0.00  0.00     0.000 N
ATOM     30  HD  SGN C   2     102.811 104.365  38.1350  0.00  0.00     0.000 HD
ATOM     30   S  SGN C   2     104.013 104.673  39.0990  0.00  0.00     0.000 S
ATOM     31   O  SGN C   2     104.888 104.381  38.0140  0.00  0.00     0.000 OA
ATOM     32   O  SGN C   2     103.647 106.014  39.3710  0.00  0.00     0.000 OA
ATOM     33   O  SGN C   2     104.560 104.067  40.4360  0.00  0.00     0.000 OA
ENDBRANCH 21 30
BRANCH 24 34
ATOM     34   C  SGN C   2     100.046  99.161  39.1640  0.00  0.00     0.000 C
ATOM     35   O  SGN C   2      99.236  98.456  38.2060  0.00  0.00     0.000 O
ATOM     36   S  SGN C   2      98.008  97.611  38.7760  0.00  0.00     0.000 S
ATOM     37   O  SGN C   2      97.252  98.554  39.5770  0.00  0.00     0.000 OA
ATOM     38   O  SGN C   2      97.290  97.138  37.6180  0.00  0.00     0.000 OA
ATOM     39   O  SGN C   2      98.633  96.561  39.5420  0.00  0.00     0.000 OA
ENDBRANCH 24 34
BRANCH 20 40
ATOM     40  O4  IDS C   3     100.580 102.903  37.5130  0.00  0.00     0.000 O
BRANCH 40 44
ATOM     41  C1  IDS C   3      99.241 104.577  34.7150  0.00  0.00     0.000 C
ATOM     42  C2  IDS C   3     100.185 105.278  35.6880  0.00  0.00     0.000 C
ATOM     43  C3  IDS C   3      99.688 105.112  37.1220  0.00  0.00     0.000 C
ATOM     44  C4  IDS C   3      99.369 103.660  37.4420  0.00  0.00     0.000 C
ATOM     45  C5  IDS C   3      98.450 103.071  36.3520  0.00  0.00     0.000 C
ATOM     46  O5  IDS C   3      99.077 103.208  35.0750  0.00  0.00     0.000 O
ATOM     47   O  IDS C   3      98.530 105.919  37.3180  0.00  0.00     0.000 O
ATOM     49  HD  IDS C   3      99.384 105.812  37.2260  0.00  0.00     0.000 HD
BRANCH 42 49
ATOM     49   O  IDS C   3     101.544 104.698  35.5860  0.00  0.00     0.000 O
ATOM     50   S  IDS C   3     102.750 105.594  35.0320  0.00  0.00     0.000 S
ATOM     51   O  IDS C   3     102.994 106.529  36.1080  0.00  0.00     0.000 OA
ATOM     52   O  IDS C   3     102.337 106.253  33.8040  0.00  0.00     0.000 OA
ATOM     53   O  IDS C   3     103.855 104.684  34.8150  0.00  0.00     0.000 OA
ENDBRANCH 42 49
BRANCH 45 54
ATOM     54   C  IDS C   3      98.113 101.605  36.5750  0.00  0.00     0.000 C
ATOM     55   O  IDS C   3      97.493 101.278  37.5540  0.00  0.00     0.000 OA
ATOM     56   O  IDS C   3      98.484 100.769  35.7750  0.00  0.00     0.000 OA
ENDBRANCH 45 54
BRANCH 41 57
ATOM     57  O4  SGN C   4      98.184 105.382  34.5460  0.00  0.00     0.000 O
BRANCH 57 61
ATOM     58  C1  SGN C   4      95.552 106.469  31.4770  0.00  0.00     0.000 C
ATOM     59  C2  SGN C   4      95.648 104.970  31.8070  0.00  0.00     0.000 C
ATOM     60  C3  SGN C   4      96.302 104.746  33.1780  0.00  0.00     0.000 C
ATOM     61  C4  SGN C   4      97.642 105.460  33.2240  0.00  0.00     0.000 C
ATOM     62  C5  SGN C   4      97.476 106.935  32.8570  0.00  0.00     0.000 C
ATOM     63  O5  SGN C   4      96.835 107.069  31.5750  0.00  0.00     0.000 O
BRANCH 59 66
ATOM     64   N  SGN C   4      94.287 104.458  31.6190  0.00  0.00     0.000 N
ATOM     66  HD  SGN C   4      95.112 104.555  31.8640  0.00  0.00     0.000 HD
ATOM     66   O  SGN C   4      92.633 102.948  30.6610  0.00  0.00     0.000 OA
ATOM     67   O  SGN C   4      94.466 103.805  29.2650  0.00  0.00     0.000 OA
ATOM     68   S  SGN C   4      94.033 103.206  30.6480  0.00  0.00     0.000 S
ATOM     69   O  SGN C   4      94.935 102.172  31.0060  0.00  0.00     0.000 OA
ENDBRANCH 59 66
BRANCH 62 70
ATOM     70   C  SGN C   4      98.807 107.636  32.7650  0.00  0.00     0.000 C
ATOM     71   S  SGN C   4     100.240 109.141  31.2640  0.00  0.00     0.000 S
ATOM     72   O  SGN C   4     100.567 109.956  32.4170  0.00  0.00     0.000 OA
ATOM     73   O  SGN C   4     101.161 108.041  31.0590  0.00  0.00     0.000 OA
ATOM     74   O  SGN C   4      99.977 109.910  30.0690  0.00  0.00     0.000 OA
ATOM     75   O  SGN C   4      98.836 108.489  31.6140  0.00  0.00     0.000 O
ENDBRANCH 62 70
ENDBRANCH 57 61
ENDBRANCH 41 57
ENDBRANCH 40 44
ENDBRANCH 20 40
ENDBRANCH 19 23
ENDBRANCH 1 19
TORSDOF 14
ENDMDL
MODEL 81
REMARK VINA RESULT:       0.2     65.161     70.625
ROOT
ATOM      1  C1  IDS C   1      95.480  44.647  46.1630  0.00  0.00     0.000 C
ATOM      2  C2  IDS C   1      95.583  45.209  44.7570  0.00  0.00     0.000 C
ATOM      3  C3  IDS C   1      96.692  46.250  44.6700  0.00  0.00     0.000 C
ATOM      4  C4  IDS C   1      98.003  45.708  45.2400  0.00  0.00     0.000 C
ATOM      5  C5  IDS C   1      97.763  45.078  46.6270  0.00  0.00     0.000 C
ATOM      6  O5  IDS C   1      96.735  44.095  46.5560  0.00  0.00     0.000 O
ATOM      7   O  IDS C   1      96.293  47.430  45.3700  0.00  0.00     0.000 O
ATOM      9  HD  IDS C   1      97.155  47.488  45.4370  0.00  0.00     0.000 HD
ATOM      9   O  IDS C   1      98.522  44.710  44.3470  0.00  0.00     0.000 O
ATOM     11  HD  IDS C   1      99.384  44.767  44.4150  0.00  0.00     0.000 HD
ENDROOT
BRANCH 2 11
ATOM     11   O  IDS C   1      95.904  44.129  43.7970  0.00  0.00     0.000 O
ATOM     12   S  IDS C   1      94.831  43.659  42.7110  0.00  0.00     0.000 S
ATOM     13   O  IDS C   1      95.666  43.323  41.5790  0.00  0.00     0.000 OA
ATOM     14   O  IDS C   1      93.921  44.746  42.4360  0.00  0.00     0.000 OA
ATOM     15   O  IDS C   1      94.186  42.517  43.3080  0.00  0.00     0.000 OA
ENDBRANCH 2 11
BRANCH 5 16
ATOM     16   C  IDS C   1      98.999  44.415  47.2070  0.00  0.00     0.000 C
ATOM     17   O  IDS C   1      98.918  43.874  48.2900  0.00  0.00     0.000 OA
ATOM     18   O  IDS C   1     100.043  44.436  46.6160  0.00  0.00     0.000 OA
ENDBRANCH 5 16
BRANCH 1 19
ATOM     19  O4  SGN C   2      94.833  45.350  47.0970  0.00  0.00     0.000 O
BRANCH 19 23
ATOM     20  C1  SGN C   2      92.517  45.132  50.5630  0.00  0.00     0.000 C
ATOM     21  C2  SGN C   2      94.000  44.771  50.7070  0.00  0.00     0.000 C
ATOM     22  C3  SGN C   2      94.780  45.305  49.5080  0.00  0.00     0.000 C
ATOM     23  C4  SGN C   2      94.180  44.754  48.2200  0.00  0.00     0.000 C
ATOM     24  C5  SGN C   2      92.682  45.066  48.1680  0.00  0.00     0.000 C
ATOM     25  O5  SGN C   2      92.038  44.566  49.3540  0.00  0.00     0.000 O
ATOM     26   O  SGN C   2      96.157  44.965  49.6170  0.00  0.00     0.000 O
ATOM     28  HD  SGN C   2      96.984  44.778  49.7930  0.00  0.00     0.000 HD
BRANCH 21 30
ATOM     28   N  SGN C   2      94.050  45.224  52.1030  0.00  0.00     0.000 N
ATOM     30  HD  SGN C   2      94.798  45.547  52.3990  0.00  0.00     0.000 HD
ATOM     30   S  SGN C   2      94.567  44.259  53.2700  0.00  0.00     0.000 S
ATOM     31   O  SGN C   2      95.848  43.806  52.8440  0.00  0.00     0.000 OA
ATOM     32   O  SGN C   2      94.432  44.937  54.5060  0.00  0.00     0.000 OA
ATOM     33   O  SGN C   2      93.533  43.082  53.2770  0.00  0.00     0.000 OA
ENDBRANCH 21 30
BRANCH 24 34
ATOM     34   C  SGN C   2      91.970  44.432  46.9970  0.00  0.00     0.000 C
ATOM     35   O  SGN C   2      91.736  45.435  45.9930  0.00  0.00     0.000 O
ATOM     36   S  SGN C   2      90.610  45.123  44.9050  0.00  0.00     0.000 S
ATOM     37   O  SGN C   2      89.426  44.806  45.6800  0.00  0.00     0.000 OA
ATOM     38   O  SGN C   2      90.478  46.330  44.1250  0.00  0.00     0.000 OA
ATOM     39   O  SGN C   2      91.141  44.006  44.1630  0.00  0.00     0.000 OA
ENDBRANCH 24 34
BRANCH 20 40
ATOM     40  O4  IDS C   3      92.191  46.422  50.6030  0.00  0.00     0.000 O
BRANCH 40 44
ATOM     41  C1  IDS C   3      91.402  49.791  51.2740  0.00  0.00     0.000 C
ATOM     42  C2  IDS C   3      92.108  48.916  52.3060  0.00  0.00     0.000 C
ATOM     43  C3  IDS C   3      91.336  47.617  52.5180  0.00  0.00     0.000 C
ATOM     44  C4  IDS C   3      90.999  46.940  51.1980  0.00  0.00     0.000 C
ATOM     45  C5  IDS C   3      90.338  47.954  50.2410  0.00  0.00     0.000 C
ATOM     46  O5  IDS C   3      91.208  49.073  50.0580  0.00  0.00     0.000 O
ATOM     47   O  IDS C   3      90.139  47.891  53.2420  0.00  0.00     0.000 O
ATOM     49  HD  IDS C   3      90.997  47.786  53.1890  0.00  0.00     0.000 HD
BRANCH 42 49
ATOM     49   O  IDS C   3      93.476  48.584  51.8420  0.00  0.00     0.000 O
ATOM     50   S  IDS C   3      94.742  49.066  52.6970  0.00  0.00     0.000 S
ATOM     51   O  IDS C   3      94.698  48.217  53.8660  0.00  0.00     0.000 OA
ATOM     52   O  IDS C   3      94.596  50.475  53.0240  0.00  0.00     0.000 OA
ATOM     53   O  IDS C   3      95.901  48.819  51.8640  0.00  0.00     0.000 OA
ENDBRANCH 42 49
BRANCH 45 54
ATOM     54   C  IDS C   3      90.004  47.367  48.8790  0.00  0.00     0.000 C
ATOM     55   O  IDS C   3      89.299  46.395  48.8050  0.00  0.00     0.000 OA
ATOM     56   O  IDS C   3      90.463  47.871  47.8720  0.00  0.00     0.000 OA
ENDBRANCH 45 54
BRANCH 41 57
ATOM     57  O4  SGN C   4      90.380  50.387  51.9000  0.00  0.00     0.000 O
BRANCH 57 61
ATOM     58  C1  SGN C   4      88.186  53.935  51.5440  0.00  0.00     0.000 C
ATOM     59  C2  SGN C   4      88.426  53.138  50.2510  0.00  0.00     0.000 C
ATOM     60  C3  SGN C   4      88.862  51.699  50.5600  0.00  0.00     0.000 C
ATOM     61  C4  SGN C   4      90.065  51.721  51.4880  0.00  0.00     0.000 C
ATOM     62  C5  SGN C   4      89.765  52.552  52.7340  0.00  0.00     0.000 C
ATOM     63  O5  SGN C   4      89.340  53.879  52.3690  0.00  0.00     0.000 O
BRANCH 59 66
ATOM     64   N  SGN C   4      87.198  53.333  49.4740  0.00  0.00     0.000 N
ATOM     66  HD  SGN C   4      87.942  53.021  49.7890  0.00  0.00     0.000 HD
ATOM     66   O  SGN C   4      85.953  53.939  47.4700  0.00  0.00     0.000 OA
ATOM     67   O  SGN C   4      87.911  55.263  48.1450  0.00  0.00     0.000 OA
ATOM     68   S  SGN C   4      87.288  53.837  47.9530  0.00  0.00     0.000 S
ATOM     69   O  SGN C   4      88.217  53.016  47.2640  0.00  0.00     0.000 OA
ENDBRANCH 59 66
BRANCH 62 70
ATOM     70   C  SGN C   4      90.986  52.701  53.6080  0.00  0.00     0.000 C
ATOM     71   S  SGN C   4      91.794  52.647  56.0400  0.00  0.00     0.000 S
ATOM     72   O  SGN C   4      92.923  51.835  55.6320  0.00  0.00     0.000 OA
ATOM     73   O  SGN C   4      92.056  54.070  55.9720  0.00  0.00     0.000 OA
ATOM     74   O  SGN C   4      91.198  52.223  57.2860  0.00  0.00     0.000 OA
ATOM     75   O  SGN C   4      90.669  52.348  54.9600  0.00  0.00     0.000 O
ENDBRANCH 62 70
ENDBRANCH 57 61
ENDBRANCH 41 57
ENDBRANCH 40 44
ENDBRANCH 20 40
ENDBRANCH 19 23
ENDBRANCH 1 19
TORSDOF 14
ENDMDL
MODEL 82
REMARK VINA RESULT:       0.2      9.698     15.696
ROOT
ATOM      1  C1  IDS C   1     102.556 107.912  59.4120  0.00  0.00     0.000 C
ATOM      2  C2  IDS C   1     102.871 107.886  57.9270  0.00  0.00     0.000 C
ATOM      3  C3  IDS C   1     102.355 109.146  57.2420  0.00  0.00     0.000 C
ATOM      4  C4  IDS C   1     102.826 110.403  57.9730  0.00  0.00     0.000 C
ATOM      5  C5  IDS C   1     102.541 110.280  59.4840  0.00  0.00     0.000 C
ATOM      6  O5  IDS C   1     103.113 109.085  60.0030  0.00  0.00     0.000 O
ATOM      7   O  IDS C   1     100.928 109.106  57.1840  0.00  0.00     0.000 O
ATOM      9  HD  IDS C   1     101.064 109.961  57.1800  0.00  0.00     0.000 HD
ATOM      9   O  IDS C   1     104.238 110.562  57.7660  0.00  0.00     0.000 O
ATOM     11  HD  IDS C   1     104.374 111.417  57.7620  0.00  0.00     0.000 HD
ENDROOT
BRANCH 2 11
ATOM     11   O  IDS C   1     104.335 107.827  57.7160  0.00  0.00     0.000 O
ATOM     12   S  IDS C   1     105.116 106.436  57.8170  0.00  0.00     0.000 S
ATOM     13   O  IDS C   1     106.152 106.594  56.8210  0.00  0.00     0.000 OA
ATOM     14   O  IDS C   1     104.208 105.355  57.5210  0.00  0.00     0.000 OA
ATOM     15   O  IDS C   1     105.619 106.401  59.1680  0.00  0.00     0.000 OA
ENDBRANCH 2 11
BRANCH 5 16
ATOM     16   C  IDS C   1     103.085 111.443  60.2930  0.00  0.00     0.000 C
ATOM     17   O  IDS C   1     103.271 112.505  59.7380  0.00  0.00     0.000 OA
ATOM     18   O  IDS C   1     103.343 111.314  61.4580  0.00  0.00     0.000 OA
ENDBRANCH 5 16
BRANCH 1 19
ATOM     19  O4  SGN C   2     101.328 107.579  59.8210  0.00  0.00     0.000 O
BRANCH 19 23
ATOM     20  C1  SGN C   2      99.128 105.449  62.6580  0.00  0.00     0.000 C
ATOM     21  C2  SGN C   2      99.731 106.781  63.1180  0.00  0.00     0.000 C
ATOM     22  C3  SGN C   2     100.111 107.623  61.9030  0.00  0.00     0.000 C
ATOM     23  C4  SGN C   2     101.070 106.839  61.0150  0.00  0.00     0.000 C
ATOM     24  C5  SGN C   2     100.456 105.483  60.6560  0.00  0.00     0.000 C
ATOM     25  O5  SGN C   2     100.089 104.780  61.8580  0.00  0.00     0.000 O
ATOM     26   O  SGN C   2     100.688 108.858  62.3120  0.00  0.00     0.000 O
ATOM     28  HD  SGN C   2     100.963 109.609  62.6440  0.00  0.00     0.000 HD
BRANCH 21 30
ATOM     28   N  SGN C   2      98.655 107.014  64.0910  0.00  0.00     0.000 N
ATOM     30  HD  SGN C   2      98.429 107.833  64.2580  0.00  0.00     0.000 HD
ATOM     30   S  SGN C   2      98.977 107.300  65.6310  0.00  0.00     0.000 S
ATOM     31   O  SGN C   2      99.893 108.391  65.6280  0.00  0.00     0.000 OA
ATOM     32   O  SGN C   2      97.753 107.408  66.3340  0.00  0.00     0.000 OA
ATOM     33   O  SGN C   2      99.675 105.987  66.1250  0.00  0.00     0.000 OA
ENDBRANCH 21 30
BRANCH 24 34
ATOM     34   C  SGN C   2     101.394 104.572  59.9000  0.00  0.00     0.000 C
ATOM     35   O  SGN C   2     101.655 103.404  60.6970  0.00  0.00     0.000 O
ATOM     36   S  SGN C   2     102.953 102.550  60.3290  0.00  0.00     0.000 S
ATOM     37   O  SGN C   2     104.042 103.507  60.3470  0.00  0.00     0.000 OA
ATOM     38   O  SGN C   2     103.059 101.541  61.3550  0.00  0.00     0.000 OA
ATOM     39   O  SGN C   2     102.661 102.020  59.0190  0.00  0.00     0.000 OA
ENDBRANCH 24 34
BRANCH 20 40
ATOM     40  O4  IDS C   3      97.969 105.492  62.0050  0.00  0.00     0.000 O
BRANCH 40 44
ATOM     41  C1  IDS C   3      94.742 105.601  60.5880  0.00  0.00     0.000 C
ATOM     42  C2  IDS C   3      95.044 106.247  61.9380  0.00  0.00     0.000 C
ATOM     43  C3  IDS C   3      95.727 105.245  62.8650  0.00  0.00     0.000 C
ATOM     44  C4  IDS C   3      96.901 104.558  62.1850  0.00  0.00     0.000 C
ATOM     45  C5  IDS C   3      96.461 103.999  60.8160  0.00  0.00     0.000 C
ATOM     46  O5  IDS C   3      95.930 105.058  60.0170  0.00  0.00     0.000 O
ATOM     47   O  IDS C   3      94.776 104.272  63.2930  0.00  0.00     0.000 O
ATOM     49  HD  IDS C   3      95.125 105.065  63.3120  0.00  0.00     0.000 HD
BRANCH 42 49
ATOM     49   O  IDS C   3      95.940 107.412  61.7560  0.00  0.00     0.000 O
ATOM     50   S  IDS C   3      95.598 108.798  62.4840  0.00  0.00     0.000 S
ATOM     51   O  IDS C   3      95.880 108.522  63.8750  0.00  0.00     0.000 OA
ATOM     52   O  IDS C   3      94.203 109.133  62.2530  0.00  0.00     0.000 OA
ATOM     53   O  IDS C   3      96.495 109.780  61.9110  0.00  0.00     0.000 OA
ENDBRANCH 42 49
BRANCH 45 54
ATOM     54   C  IDS C   3      97.590 103.328  60.0490  0.00  0.00     0.000 C
ATOM     55   O  IDS C   3      98.187 102.410  60.5490  0.00  0.00     0.000 OA
ATOM     56   O  IDS C   3      97.896 103.731  58.9440  0.00  0.00     0.000 OA
ENDBRANCH 45 54
BRANCH 41 57
ATOM     57  O4  SGN C   4      93.644 104.853  60.7480  0.00  0.00     0.000 O
BRANCH 57 61
ATOM     58  C1  SGN C   4      90.858 102.902  58.3070  0.00  0.00     0.000 C
ATOM     59  C2  SGN C   4      92.341 102.720  57.9450  0.00  0.00     0.000 C
ATOM     60  C3  SGN C   4      93.250 103.121  59.1160  0.00  0.00     0.000 C
ATOM     61  C4  SGN C   4      92.907 104.532  59.5640  0.00  0.00     0.000 C
ATOM     62  C5  SGN C   4      91.416 104.647  59.8780  0.00  0.00     0.000 C
ATOM     63  O5  SGN C   4      90.627 104.233  58.7470  0.00  0.00     0.000 O
BRANCH 59 66
ATOM     64   N  SGN C   4      92.429 101.342  57.4520  0.00  0.00     0.000 N
ATOM     66  HD  SGN C   4      92.618 102.121  57.7800  0.00  0.00     0.000 HD
ATOM     66   O  SGN C   4      93.039  99.639  55.8210  0.00  0.00     0.000 OA
ATOM     67   O  SGN C   4      92.121 101.790  55.0640  0.00  0.00     0.000 OA
ATOM     68   S  SGN C   4      93.107 101.046  56.0290  0.00  0.00     0.000 S
ATOM     69   O  SGN C   4      94.368 101.695  55.9900  0.00  0.00     0.000 OA
ENDBRANCH 59 66
BRANCH 62 70
ATOM     70   C  SGN C   4      91.025 106.068  60.1960  0.00  0.00     0.000 C
ATOM     71   S  SGN C   4      89.825 107.534  61.9230  0.00  0.00     0.000 S
ATOM     72   O  SGN C   4      90.918 108.484  61.8560  0.00  0.00     0.000 OA
ATOM     73   O  SGN C   4      88.778 107.795  60.9570  0.00  0.00     0.000 OA
ATOM     74   O  SGN C   4      89.337 107.309  63.2650  0.00  0.00     0.000 OA
ATOM     75   O  SGN C   4      90.472 106.142  61.5160  0.00  0.00     0.000 O
ENDBRANCH 62 70
ENDBRANCH 57 61
ENDBRANCH 41 57
ENDBRANCH 40 44
ENDBRANCH 20 40
ENDBRANCH 19 23
ENDBRANCH 1 19
TORSDOF 14
ENDMDL
MODEL 83
REMARK VINA RESULT:       0.2     81.363     85.968
ROOT
ATOM      1  C1  IDS C   1      69.643  38.795  93.4100  0.00  0.00     0.000 C
ATOM      2  C2  IDS C   1      69.562  39.962  94.3780  0.00  0.00     0.000 C
ATOM      3  C3  IDS C   1      68.516  39.700  95.4540  0.00  0.00     0.000 C
ATOM      4  C4  IDS C   1      68.731  38.337  96.1130  0.00  0.00     0.000 C
ATOM      5  C5  IDS C   1      68.893  37.244  95.0370  0.00  0.00     0.000 C
ATOM      6  O5  IDS C   1      69.929  37.593  94.1250  0.00  0.00     0.000 O
ATOM      7   O  IDS C   1      67.211  39.777  94.8780  0.00  0.00     0.000 O
ATOM      9  HD  IDS C   1      67.062  39.240  95.5410  0.00  0.00     0.000 HD
ATOM      9   O  IDS C   1      69.917  38.391  96.9200  0.00  0.00     0.000 O
ATOM     11  HD  IDS C   1      69.768  37.854  97.5830  0.00  0.00     0.000 HD
ENDROOT
BRANCH 2 11
ATOM     11   O  IDS C   1      70.864  40.156  95.0540  0.00  0.00     0.000 O
ATOM     12   S  IDS C   1      72.045  40.955  94.3320  0.00  0.00     0.000 S
ATOM     13   O  IDS C   1      72.688  41.622  95.4430  0.00  0.00     0.000 OA
ATOM     14   O  IDS C   1      71.483  41.874  93.3720  0.00  0.00     0.000 OA
ATOM     15   O  IDS C   1      72.860  39.930  93.7290  0.00  0.00     0.000 OA
ENDBRANCH 2 11
BRANCH 5 16
ATOM     16   C  IDS C   1      69.225  35.880  95.6140  0.00  0.00     0.000 C
ATOM     17   O  IDS C   1      69.449  34.963  94.8530  0.00  0.00     0.000 OA
ATOM     18   O  IDS C   1      69.251  35.703  96.8010  0.00  0.00     0.000 OA
ENDBRANCH 5 16
BRANCH 1 19
ATOM     19  O4  SGN C   2      68.732  38.693  92.4380  0.00  0.00     0.000 O
BRANCH 19 23
ATOM     20  C1  SGN C   2      68.014  37.433  88.5240  0.00  0.00     0.000 C
ATOM     21  C2  SGN C   2      68.288  36.334  89.5580  0.00  0.00     0.000 C
ATOM     22  C3  SGN C   2      68.096  36.891  90.9660  0.00  0.00     0.000 C
ATOM     23  C4  SGN C   2      69.001  38.101  91.1660  0.00  0.00     0.000 C
ATOM     24  C5  SGN C   2      68.749  39.128  90.0580  0.00  0.00     0.000 C
ATOM     25  O5  SGN C   2      68.908  38.506  88.7700  0.00  0.00     0.000 O
ATOM     26   O  SGN C   2      68.361  35.888  91.9390  0.00  0.00     0.000 O
ATOM     28  HD  SGN C   2      68.473  35.207  92.4620  0.00  0.00     0.000 HD
BRANCH 21 30
ATOM     28   N  SGN C   2      67.899  35.522  88.3970  0.00  0.00     0.000 N
ATOM     30  HD  SGN C   2      67.101  35.187  88.3850  0.00  0.00     0.000 HD
ATOM     30   S  SGN C   2      68.042  33.928  88.4140  0.00  0.00     0.000 S
ATOM     31   O  SGN C   2      67.346  33.501  89.5810  0.00  0.00     0.000 OA
ATOM     32   O  SGN C   2      67.667  33.430  87.1440  0.00  0.00     0.000 OA
ATOM     33   O  SGN C   2      69.583  33.687  88.5640  0.00  0.00     0.000 OA
ENDBRANCH 21 30
BRANCH 24 34
ATOM     34   C  SGN C   2      69.704  40.298  90.0870  0.00  0.00     0.000 C
ATOM     35   O  SGN C   2      70.651  40.155  89.0130  0.00  0.00     0.000 O
ATOM     36   S  SGN C   2      72.008  40.988  89.1280  0.00  0.00     0.000 S
ATOM     37   O  SGN C   2      72.554  40.627  90.4210  0.00  0.00     0.000 OA
ATOM     38   O  SGN C   2      72.825  40.555  88.0190  0.00  0.00     0.000 OA
ATOM     39   O  SGN C   2      71.583  42.363  89.0350  0.00  0.00     0.000 OA
ENDBRANCH 24 34
BRANCH 20 40
ATOM     40  O4  IDS C   3      66.773  37.907  88.4430  0.00  0.00     0.000 O
BRANCH 40 44
ATOM     41  C1  IDS C   3      63.343  38.261  87.7120  0.00  0.00     0.000 C
ATOM     42  C2  IDS C   3      64.112  36.996  87.3400  0.00  0.00     0.000 C
ATOM     43  C3  IDS C   3      65.373  37.352  86.5570  0.00  0.00     0.000 C
ATOM     44  C4  IDS C   3      66.182  38.435  87.2540  0.00  0.00     0.000 C
ATOM     45  C5  IDS C   3      65.267  39.625  87.6110  0.00  0.00     0.000 C
ATOM     46  O5  IDS C   3      64.183  39.167  88.4220  0.00  0.00     0.000 O
ATOM     47   O  IDS C   3      65.011  37.783  85.2470  0.00  0.00     0.000 O
ATOM     49  HD  IDS C   3      65.129  37.171  85.8480  0.00  0.00     0.000 HD
BRANCH 42 49
ATOM     49   O  IDS C   3      64.506  36.262  88.5650  0.00  0.00     0.000 O
ATOM     50   S  IDS C   3      63.831  34.846  88.8920  0.00  0.00     0.000 S
ATOM     51   O  IDS C   3      64.419  33.961  87.9110  0.00  0.00     0.000 OA
ATOM     52   O  IDS C   3      62.388  34.954  88.7530  0.00  0.00     0.000 OA
ATOM     53   O  IDS C   3      64.223  34.523  90.2480  0.00  0.00     0.000 OA
ENDBRANCH 42 49
BRANCH 45 54
ATOM     54   C  IDS C   3      65.991  40.740  88.3490  0.00  0.00     0.000 C
ATOM     55   O  IDS C   3      65.601  41.090  89.4330  0.00  0.00     0.000 OA
ATOM     56   O  IDS C   3      66.950  41.285  87.8360  0.00  0.00     0.000 OA
ENDBRANCH 45 54
BRANCH 41 57
ATOM     57  O4  SGN C   4      62.673  38.647  86.6190  0.00  0.00     0.000 O
BRANCH 57 61
ATOM     58  C1  SGN C   4      59.320  40.977  85.6900  0.00  0.00     0.000 C
ATOM     59  C2  SGN C   4      60.391  41.629  86.5800  0.00  0.00     0.000 C
ATOM     60  C3  SGN C   4      61.717  40.860  86.5070  0.00  0.00     0.000 C
ATOM     61  C4  SGN C   4      61.472  39.396  86.8330  0.00  0.00     0.000 C
ATOM     62  C5  SGN C   4      60.379  38.822  85.9330  0.00  0.00     0.000 C
ATOM     63  O5  SGN C   4      59.175  39.606  86.0330  0.00  0.00     0.000 O
BRANCH 59 66
ATOM     64   N  SGN C   4      60.392  43.038  86.1700  0.00  0.00     0.000 N
ATOM     66  HD  SGN C   4      60.616  42.265  86.4900  0.00  0.00     0.000 HD
ATOM     66   O  SGN C   4      60.271  45.435  86.5870  0.00  0.00     0.000 OA
ATOM     67   O  SGN C   4      58.808  43.899  87.8290  0.00  0.00     0.000 OA
ATOM     68   S  SGN C   4      60.246  44.190  87.2770  0.00  0.00     0.000 S
ATOM     69   O  SGN C   4      61.193  43.945  88.3050  0.00  0.00     0.000 OA
ENDBRANCH 59 66
BRANCH 62 70
ATOM     70   C  SGN C   4      60.023  37.410  86.3250  0.00  0.00     0.000 C
ATOM     71   S  SGN C   4      58.204  35.976  87.4230  0.00  0.00     0.000 S
ATOM     72   O  SGN C   4      58.344  35.006  86.3550  0.00  0.00     0.000 OA
ATOM     73   O  SGN C   4      59.091  35.728  88.5420  0.00  0.00     0.000 OA
ATOM     74   O  SGN C   4      56.833  36.217  87.8090  0.00  0.00     0.000 OA
ATOM     75   O  SGN C   4      58.667  37.353  86.7830  0.00  0.00     0.000 O
ENDBRANCH 62 70
ENDBRANCH 57 61
ENDBRANCH 41 57
ENDBRANCH 40 44
ENDBRANCH 20 40
ENDBRANCH 19 23
ENDBRANCH 1 19
TORSDOF 14
ENDMDL
MODEL 84
REMARK VINA RESULT:       0.2     88.615     93.332
ROOT
ATOM      1  C1  IDS C   1      89.526  46.939  11.1430  0.00  0.00     0.000 C
ATOM      2  C2  IDS C   1      89.667  47.358   9.6900  0.00  0.00     0.000 C
ATOM      3  C3  IDS C   1      88.306  47.408   9.0070  0.00  0.00     0.000 C
ATOM      4  C4  IDS C   1      87.311  48.238   9.8170  0.00  0.00     0.000 C
ATOM      5  C5  IDS C   1      87.319  47.789  11.2930  0.00  0.00     0.000 C
ATOM      6  O5  IDS C   1      88.641  47.831  11.8190  0.00  0.00     0.000 O
ATOM      7   O  IDS C   1      87.817  46.078   8.8240  0.00  0.00     0.000 O
ATOM      9  HD  IDS C   1      87.072  46.519   8.8610  0.00  0.00     0.000 HD
ATOM      9   O  IDS C   1      87.685  49.622   9.7380  0.00  0.00     0.000 O
ATOM     11  HD  IDS C   1      86.941  50.063   9.7750  0.00  0.00     0.000 HD
ENDROOT
BRANCH 2 11
ATOM     11   O  IDS C   1      90.263  48.710   9.6050  0.00  0.00     0.000 O
ATOM     12   S  IDS C   1      91.842  48.914   9.7440  0.00  0.00     0.000 S
ATOM     13   O  IDS C   1      92.088  50.019   8.8430  0.00  0.00     0.000 OA
ATOM     14   O  IDS C   1      92.517  47.702   9.3470  0.00  0.00     0.000 OA
ATOM     15   O  IDS C   1      92.044  49.249  11.1310  0.00  0.00     0.000 OA
ENDBRANCH 2 11
BRANCH 5 16
ATOM     16   C  IDS C   1      86.439  48.646  12.1850  0.00  0.00     0.000 C
ATOM     17   O  IDS C   1      85.521  49.261  11.6830  0.00  0.00     0.000 OA
ATOM     18   O  IDS C   1      86.652  48.729  13.3630  0.00  0.00     0.000 OA
ENDBRANCH 5 16
BRANCH 1 19
ATOM     19  O4  SGN C   2      89.381  45.643  11.4330  0.00  0.00     0.000 O
BRANCH 19 23
ATOM     20  C1  SGN C   2      90.520  42.568  14.0170  0.00  0.00     0.000 C
ATOM     21  C2  SGN C   2      89.497  43.573  14.5580  0.00  0.00     0.000 C
ATOM     22  C3  SGN C   2      88.868  44.343  13.4000  0.00  0.00     0.000 C
ATOM     23  C4  SGN C   2      89.961  45.024  12.5830  0.00  0.00     0.000 C
ATOM     24  C5  SGN C   2      91.000  43.991  12.1420  0.00  0.00     0.000 C
ATOM     25  O5  SGN C   2      91.505  43.285  13.2900  0.00  0.00     0.000 O
ATOM     26   O  SGN C   2      87.927  45.293  13.8860  0.00  0.00     0.000 O
ATOM     28  HD  SGN C   2      87.325  45.793  14.2570  0.00  0.00     0.000 HD
BRANCH 21 30
ATOM     28   N  SGN C   2      89.113  42.508  15.4930  0.00  0.00     0.000 N
ATOM     30  HD  SGN C   2      88.270  42.332  15.5830  0.00  0.00     0.000 HD
ATOM     30   S  SGN C   2      88.707  42.838  17.0050  0.00  0.00     0.000 S
ATOM     31   O  SGN C   2      87.680  43.819  16.9140  0.00  0.00     0.000 OA
ATOM     32   O  SGN C   2      88.463  41.618  17.6810  0.00  0.00     0.000 OA
ATOM     33   O  SGN C   2      90.010  43.451  17.6230  0.00  0.00     0.000 OA
ENDBRANCH 21 30
BRANCH 24 34
ATOM     34   C  SGN C   2      92.201  44.594  11.4520  0.00  0.00     0.000 C
ATOM     35   O  SGN C   2      93.372  44.347  12.2490  0.00  0.00     0.000 O
ATOM     36   S  SGN C   2      94.644  45.273  11.9760  0.00  0.00     0.000 S
ATOM     37   O  SGN C   2      94.146  46.629  12.0990  0.00  0.00     0.000 OA
ATOM     38   O  SGN C   2      95.607  44.921  12.9920  0.00  0.00     0.000 OA
ATOM     39   O  SGN C   2      95.053  44.918  10.6390  0.00  0.00     0.000 OA
ENDBRANCH 24 34
BRANCH 20 40
ATOM     40  O4  IDS C   3      90.063  41.569  13.2650  0.00  0.00     0.000 O
BRANCH 40 44
ATOM     41  C1  IDS C   3      88.696  38.721  11.7000  0.00  0.00     0.000 C
ATOM     42  C2  IDS C   3      88.270  39.143  13.1030  0.00  0.00     0.000 C
ATOM     43  C3  IDS C   3      89.494  39.339  13.9940  0.00  0.00     0.000 C
ATOM     44  C4  IDS C   3      90.538  40.222  13.3280  0.00  0.00     0.000 C
ATOM     45  C5  IDS C   3      90.832  39.706  11.9040  0.00  0.00     0.000 C
ATOM     46  O5  IDS C   3      89.617  39.662  11.1530  0.00  0.00     0.000 O
ATOM     47   O  IDS C   3      90.061  38.069  14.3070  0.00  0.00     0.000 O
ATOM     49  HD  IDS C   3      89.457  38.683  14.3970  0.00  0.00     0.000 HD
BRANCH 42 49
ATOM     49   O  IDS C   3      87.516  40.417  13.0460  0.00  0.00     0.000 O
ATOM     50   S  IDS C   3      86.128  40.554  13.8340  0.00  0.00     0.000 S
ATOM     51   O  IDS C   3      86.536  40.605  15.2210  0.00  0.00     0.000 OA
ATOM     52   O  IDS C   3      85.291  39.402  13.5410  0.00  0.00     0.000 OA
ATOM     53   O  IDS C   3      85.531  41.790  13.3760  0.00  0.00     0.000 OA
ENDBRANCH 42 49
BRANCH 45 54
ATOM     54   C  IDS C   3      91.841  40.559  11.1510  0.00  0.00     0.000 C
ATOM     55   O  IDS C   3      91.547  41.024  10.0800  0.00  0.00     0.000 OA
ATOM     56   O  IDS C   3      92.944  40.754  11.6230  0.00  0.00     0.000 OA
ENDBRANCH 45 54
BRANCH 41 57
ATOM     57  O4  SGN C   4      88.987  37.416  11.7540  0.00  0.00     0.000 O
BRANCH 57 61
ATOM     58  C1  SGN C   4      89.000  34.132   9.1580  0.00  0.00     0.000 C
ATOM     59  C2  SGN C   4      89.708  35.405   8.6660  0.00  0.00     0.000 C
ATOM     60  C3  SGN C   4      89.992  36.365   9.8290  0.00  0.00     0.000 C
ATOM     61  C4  SGN C   4      88.703  36.645  10.5830  0.00  0.00     0.000 C
ATOM     62  C5  SGN C   4      88.040  35.338  11.0140  0.00  0.00     0.000 C
ATOM     63  O5  SGN C   4      87.827  34.478   9.8790  0.00  0.00     0.000 O
BRANCH 59 66
ATOM     64   N  SGN C   4      90.853  34.911   7.8940  0.00  0.00     0.000 N
ATOM     66  HD  SGN C   4      90.316  35.404   8.3600  0.00  0.00     0.000 HD
ATOM     66   O  SGN C   4      92.254  34.779   5.9060  0.00  0.00     0.000 OA
ATOM     67   O  SGN C   4      89.809  34.877   5.6780  0.00  0.00     0.000 OA
ATOM     68   S  SGN C   4      91.088  35.432   6.3950  0.00  0.00     0.000 S
ATOM     69   O  SGN C   4      91.035  36.850   6.4000  0.00  0.00     0.000 OA
ENDBRANCH 59 66
BRANCH 62 70
ATOM     70   C  SGN C   4      86.693  35.582  11.6470  0.00  0.00     0.000 C
ATOM     71   S  SGN C   4      84.170  35.540  11.1940  0.00  0.00     0.000 S
ATOM     72   O  SGN C   4      83.969  34.855  12.4560  0.00  0.00     0.000 OA
ATOM     73   O  SGN C   4      84.137  36.984  11.3130  0.00  0.00     0.000 OA
ATOM     74   O  SGN C   4      83.352  35.025  10.1200  0.00  0.00     0.000 OA
ATOM     75   O  SGN C   4      85.650  35.162  10.7590  0.00  0.00     0.000 O
ENDBRANCH 62 70
ENDBRANCH 57 61
ENDBRANCH 41 57
ENDBRANCH 40 44
ENDBRANCH 20 40
ENDBRANCH 19 23
ENDBRANCH 1 19
TORSDOF 14
ENDMDL
MODEL 85
REMARK VINA RESULT:       0.2    104.357    111.039
ROOT
ATOM      1  C1  IDS C   1      37.163  32.210  94.9220  0.00  0.00     0.000 C
ATOM      2  C2  IDS C   1      38.436  32.656  94.2250  0.00  0.00     0.000 C
ATOM      3  C3  IDS C   1      38.347  32.408  92.7240  0.00  0.00     0.000 C
ATOM      4  C4  IDS C   1      37.061  32.996  92.1440  0.00  0.00     0.000 C
ATOM      5  C5  IDS C   1      35.845  32.554  92.9830  0.00  0.00     0.000 C
ATOM      6  O5  IDS C   1      36.040  32.883  94.3550  0.00  0.00     0.000 O
ATOM      7   O  IDS C   1      38.415  31.004  92.4690  0.00  0.00     0.000 O
ATOM      9  HD  IDS C   1      37.964  31.271  91.7790  0.00  0.00     0.000 HD
ATOM      9   O  IDS C   1      37.154  34.429  92.1590  0.00  0.00     0.000 O
ATOM     11  HD  IDS C   1      36.704  34.696  91.4690  0.00  0.00     0.000 HD
ENDROOT
BRANCH 2 11
ATOM     11   O  IDS C   1      38.649  34.106  94.4300  0.00  0.00     0.000 O
ATOM     12   S  IDS C   1      39.316  34.649  95.7770  0.00  0.00     0.000 S
ATOM     13   O  IDS C   1      40.072  35.788  95.3060  0.00  0.00     0.000 OA
ATOM     14   O  IDS C   1      40.148  33.617  96.3480  0.00  0.00     0.000 OA
ATOM     15   O  IDS C   1      38.199  35.007  96.6150  0.00  0.00     0.000 OA
ENDBRANCH 2 11
BRANCH 5 16
ATOM     16   C  IDS C   1      34.543  33.192  92.5360  0.00  0.00     0.000 C
ATOM     17   O  IDS C   1      34.451  33.595  91.3950  0.00  0.00     0.000 OA
ATOM     18   O  IDS C   1      33.623  33.313  93.2970  0.00  0.00     0.000 OA
ENDBRANCH 5 16
BRANCH 1 19
ATOM     19  O4  SGN C   2      36.991  30.912  95.1910  0.00  0.00     0.000 O
BRANCH 19 23
ATOM     20  C1  SGN C   2      35.691  28.149  98.0370  0.00  0.00     0.000 C
ATOM     21  C2  SGN C   2      34.600  28.919  97.2820  0.00  0.00     0.000 C
ATOM     22  C3  SGN C   2      35.189  29.538  96.0160  0.00  0.00     0.000 C
ATOM     23  C4  SGN C   2      36.368  30.431  96.3830  0.00  0.00     0.000 C
ATOM     24  C5  SGN C   2      37.384  29.637  97.2090  0.00  0.00     0.000 C
ATOM     25  O5  SGN C   2      36.734  29.055  98.3530  0.00  0.00     0.000 O
ATOM     26   O  SGN C   2      34.193  30.270  95.3110  0.00  0.00     0.000 O
ATOM     28  HD  SGN C   2      33.517  30.634  94.9100  0.00  0.00     0.000 HD
BRANCH 21 30
ATOM     28   N  SGN C   2      33.783  27.945  98.0180  0.00  0.00     0.000 N
ATOM     30  HD  SGN C   2      33.479  27.260  97.5850  0.00  0.00     0.000 HD
ATOM     30   S  SGN C   2      32.186  28.039  98.0240  0.00  0.00     0.000 S
ATOM     31   O  SGN C   2      31.807  28.075  96.6520  0.00  0.00     0.000 OA
ATOM     32   O  SGN C   2      31.680  27.024  98.8710  0.00  0.00     0.000 OA
ATOM     33   O  SGN C   2      31.888  29.409  98.7220  0.00  0.00     0.000 OA
ENDBRANCH 21 30
BRANCH 24 34
ATOM     34   C  SGN C   2      38.519  30.478  97.7450  0.00  0.00     0.000 C
ATOM     35   O  SGN C   2      38.448  30.498  99.1820  0.00  0.00     0.000 O
ATOM     36   S  SGN C   2      39.228  31.673  99.9300  0.00  0.00     0.000 S
ATOM     37   O  SGN C   2      38.735  32.891  99.3180  0.00  0.00     0.000 OA
ATOM     38   O  SGN C   2      38.875  31.547 101.3240  0.00  0.00     0.000 OA
ATOM     39   O  SGN C   2      40.617  31.400  99.6550  0.00  0.00     0.000 OA
ENDBRANCH 24 34
BRANCH 20 40
ATOM     40  O4  IDS C   3      36.208  27.075  97.4440  0.00  0.00     0.000 O
BRANCH 40 44
ATOM     41  C1  IDS C   3      36.690  23.813  96.1980  0.00  0.00     0.000 C
ATOM     42  C2  IDS C   3      35.388  24.222  96.8820  0.00  0.00     0.000 C
ATOM     43  C3  IDS C   3      35.678  24.858  98.2390  0.00  0.00     0.000 C
ATOM     44  C4  IDS C   3      36.739  25.943  98.1370  0.00  0.00     0.000 C
ATOM     45  C5  IDS C   3      37.972  25.402  97.3830  0.00  0.00     0.000 C
ATOM     46  O5  IDS C   3      37.573  24.927  96.0960  0.00  0.00     0.000 O
ATOM     47   O  IDS C   3      36.100  23.850  99.1540  0.00  0.00     0.000 O
ATOM     49  HD  IDS C   3      35.494  24.263  98.6920  0.00  0.00     0.000 HD
BRANCH 42 49
ATOM     49   O  IDS C   3      34.660  25.203  96.0440  0.00  0.00     0.000 O
ATOM     50   S  IDS C   3      33.271  24.788  95.3620  0.00  0.00     0.000 S
ATOM     51   O  IDS C   3      32.354  24.733  96.4780  0.00  0.00     0.000 OA
ATOM     52   O  IDS C   3      33.423  23.502  94.7010  0.00  0.00     0.000 OA
ATOM     53   O  IDS C   3      32.956  25.846  94.4250  0.00  0.00     0.000 OA
ENDBRANCH 42 49
BRANCH 45 54
ATOM     54   C  IDS C   3      39.069  26.439  97.2020  0.00  0.00     0.000 C
ATOM     55   O  IDS C   3      39.454  26.713  96.0950  0.00  0.00     0.000 OA
ATOM     56   O  IDS C   3      39.565  26.974  98.1750  0.00  0.00     0.000 OA
ENDBRANCH 45 54
BRANCH 41 57
ATOM     57  O4  SGN C   4      37.084  22.664  96.7620  0.00  0.00     0.000 O
BRANCH 57 61
ATOM     58  C1  SGN C   4      39.824  19.594  95.9910  0.00  0.00     0.000 C
ATOM     59  C2  SGN C   4      40.387  21.023  96.0560  0.00  0.00     0.000 C
ATOM     60  C3  SGN C   4      39.397  21.978  96.7360  0.00  0.00     0.000 C
ATOM     61  C4  SGN C   4      38.049  21.893  96.0400  0.00  0.00     0.000 C
ATOM     62  C5  SGN C   4      37.565  20.444  95.9850  0.00  0.00     0.000 C
ATOM     63  O5  SGN C   4      38.552  19.603  95.3580  0.00  0.00     0.000 O
BRANCH 59 66
ATOM     64   N  SGN C   4      41.712  20.860  96.6620  0.00  0.00     0.000 N
ATOM     66  HD  SGN C   4      40.958  21.185  96.3880  0.00  0.00     0.000 HD
ATOM     66   O  SGN C   4      44.127  21.171  96.7540  0.00  0.00     0.000 OA
ATOM     67   O  SGN C   4      43.033  20.684  94.6070  0.00  0.00     0.000 OA
ATOM     68   S  SGN C   4      43.000  21.497  95.9470  0.00  0.00     0.000 S
ATOM     69   O  SGN C   4      42.723  22.857  95.6550  0.00  0.00     0.000 OA
ENDBRANCH 59 66
BRANCH 62 70
ATOM     70   C  SGN C   4      36.295  20.314  95.1820  0.00  0.00     0.000 C
ATOM     71   S  SGN C   4      35.386  19.829  92.8350  0.00  0.00     0.000 S
ATOM     72   O  SGN C   4      34.400  18.939  93.4170  0.00  0.00     0.000 OA
ATOM     73   O  SGN C   4      34.934  21.202  92.7390  0.00  0.00     0.000 OA
ATOM     74   O  SGN C   4      35.974  19.322  91.6160  0.00  0.00     0.000 OA
ATOM     75   O  SGN C   4      36.592  19.827  93.8680  0.00  0.00     0.000 O
ENDBRANCH 62 70
ENDBRANCH 57 61
ENDBRANCH 41 57
ENDBRANCH 40 44
ENDBRANCH 20 40
ENDBRANCH 19 23
ENDBRANCH 1 19
TORSDOF 14
ENDMDL
MODEL 86
REMARK VINA RESULT:       0.2     88.608     93.385
ROOT
ATOM      1  C1  IDS C   1      88.772  45.219  10.2250  0.00  0.00     0.000 C
ATOM      2  C2  IDS C   1      89.202  45.216   8.7690  0.00  0.00     0.000 C
ATOM      3  C3  IDS C   1      88.179  44.489   7.9050  0.00  0.00     0.000 C
ATOM      4  C4  IDS C   1      86.768  45.022   8.1540  0.00  0.00     0.000 C
ATOM      5  C5  IDS C   1      86.474  45.069   9.6670  0.00  0.00     0.000 C
ATOM      6  O5  IDS C   1      87.480  45.812  10.3470  0.00  0.00     0.000 O
ATOM      7   O  IDS C   1      88.239  43.087   8.1740  0.00  0.00     0.000 O
ATOM      9  HD  IDS C   1      87.417  43.165   7.9130  0.00  0.00     0.000 HD
ATOM      9   O  IDS C   1      86.666  46.346   7.6070  0.00  0.00     0.000 O
ATOM     11  HD  IDS C   1      85.844  46.424   7.3460  0.00  0.00     0.000 HD
ENDROOT
BRANCH 2 11
ATOM     11   O  IDS C   1      89.311  46.603   8.2660  0.00  0.00     0.000 O
ATOM     12   S  IDS C   1      90.620  47.473   8.5550  0.00  0.00     0.000 S
ATOM     13   O  IDS C   1      90.733  48.265   7.3500  0.00  0.00     0.000 OA
ATOM     14   O  IDS C   1      91.745  46.592   8.7580  0.00  0.00     0.000 OA
ATOM     15   O  IDS C   1      90.289  48.250   9.7230  0.00  0.00     0.000 OA
ENDBRANCH 2 11
BRANCH 5 16
ATOM     16   C  IDS C   1      85.132  45.696   9.9980  0.00  0.00     0.000 C
ATOM     17   O  IDS C   1      84.834  45.856  11.1630  0.00  0.00     0.000 OA
ATOM     18   O  IDS C   1      84.370  46.014   9.1270  0.00  0.00     0.000 OA
ENDBRANCH 5 16
BRANCH 1 19
ATOM     19  O4  SGN C   2      88.985  44.128  10.9670  0.00  0.00     0.000 O
BRANCH 19 23
ATOM     20  C1  SGN C   2      89.836  42.690  14.7930  0.00  0.00     0.000 C
ATOM     21  C2  SGN C   2      88.459  43.334  14.5940  0.00  0.00     0.000 C
ATOM     22  C3  SGN C   2      88.133  43.404  13.1040  0.00  0.00     0.000 C
ATOM     23  C4  SGN C   2      89.231  44.168  12.3740  0.00  0.00     0.000 C
ATOM     24  C5  SGN C   2      90.593  43.537  12.6760  0.00  0.00     0.000 C
ATOM     25  O5  SGN C   2      90.795  43.472  14.0990  0.00  0.00     0.000 O
ATOM     26   O  SGN C   2      86.863  44.015  12.9010  0.00  0.00     0.000 O
ATOM     28  HD  SGN C   2      86.058  44.331  12.8680  0.00  0.00     0.000 HD
BRANCH 21 30
ATOM     28   N  SGN C   2      88.311  42.795  15.9520  0.00  0.00     0.000 N
ATOM     30  HD  SGN C   2      87.855  42.065  16.0510  0.00  0.00     0.000 HD
ATOM     30   S  SGN C   2      87.032  43.142  16.8480  0.00  0.00     0.000 S
ATOM     31   O  SGN C   2      85.906  42.797  16.0460  0.00  0.00     0.000 OA
ATOM     32   O  SGN C   2      87.201  42.548  18.1220  0.00  0.00     0.000 OA
ATOM     33   O  SGN C   2      87.119  44.693  17.0500  0.00  0.00     0.000 OA
ENDBRANCH 21 30
BRANCH 24 34
ATOM     34   C  SGN C   2      91.760  44.314  12.1140  0.00  0.00     0.000 C
ATOM     35   O  SGN C   2      92.428  44.996  13.1900  0.00  0.00     0.000 O
ATOM     36   S  SGN C   2      93.368  46.225  12.7960  0.00  0.00     0.000 S
ATOM     37   O  SGN C   2      92.523  47.098  12.0050  0.00  0.00     0.000 OA
ATOM     38   O  SGN C   2      93.787  46.811  14.0470  0.00  0.00     0.000 OA
ATOM     39   O  SGN C   2      94.443  45.616  12.0510  0.00  0.00     0.000 OA
ENDBRANCH 24 34
BRANCH 20 40
ATOM     40  O4  IDS C   3      89.975  41.414  14.4410  0.00  0.00     0.000 O
BRANCH 40 44
ATOM     41  C1  IDS C   3      89.841  37.891  14.4220  0.00  0.00     0.000 C
ATOM     42  C2  IDS C   3      89.179  38.709  15.5270  0.00  0.00     0.000 C
ATOM     43  C3  IDS C   3      90.177  39.697  16.1260  0.00  0.00     0.000 C
ATOM     44  C4  IDS C   3      90.890  40.499  15.0490  0.00  0.00     0.000 C
ATOM     45  C5  IDS C   3      91.464  39.548  13.9790  0.00  0.00     0.000 C
ATOM     46  O5  IDS C   3      90.409  38.750  13.4360  0.00  0.00     0.000 O
ATOM     47   O  IDS C   3      91.129  38.989  16.9150  0.00  0.00     0.000 O
ATOM     49  HD  IDS C   3      90.341  39.321  16.7790  0.00  0.00     0.000 HD
BRANCH 42 49
ATOM     49   O  IDS C   3      88.030  39.468  14.9820  0.00  0.00     0.000 O
ATOM     50   S  IDS C   3      86.540  39.076  15.4210  0.00  0.00     0.000 S
ATOM     51   O  IDS C   3      86.467  39.530  16.7930  0.00  0.00     0.000 OA
ATOM     52   O  IDS C   3      86.362  37.639  15.2990  0.00  0.00     0.000 OA
ATOM     53   O  IDS C   3      85.659  39.810  14.5380  0.00  0.00     0.000 OA
ENDBRANCH 42 49
BRANCH 45 54
ATOM     54   C  IDS C   3      92.162  40.274  12.8400  0.00  0.00     0.000 C
ATOM     55   O  IDS C   3      93.088  41.005  13.0770  0.00  0.00     0.000 OA
ATOM     56   O  IDS C   3      91.773  40.127  11.6970  0.00  0.00     0.000 OA
ENDBRANCH 45 54
BRANCH 41 57
ATOM     57  O4  SGN C   4      90.571  36.942  15.0200  0.00  0.00     0.000 O
BRANCH 57 61
ATOM     58  C1  SGN C   4      92.094  33.152  14.0990  0.00  0.00     0.000 C
ATOM     59  C2  SGN C   4      92.397  34.281  13.1000  0.00  0.00     0.000 C
ATOM     60  C3  SGN C   4      92.156  35.659  13.7310  0.00  0.00     0.000 C
ATOM     61  C4  SGN C   4      90.748  35.719  14.2990  0.00  0.00     0.000 C
ATOM     62  C5  SGN C   4      90.508  34.554  15.2580  0.00  0.00     0.000 C
ATOM     63  O5  SGN C   4      90.776  33.297  14.6080  0.00  0.00     0.000 O
BRANCH 59 66
ATOM     64   N  SGN C   4      93.746  33.979  12.6090  0.00  0.00     0.000 N
ATOM     66  HD  SGN C   4      93.009  34.382  12.8210  0.00  0.00     0.000 HD
ATOM     66   O  SGN C   4      95.400  33.588  10.8640  0.00  0.00     0.000 OA
ATOM     67   O  SGN C   4      93.129  32.677  10.6280  0.00  0.00     0.000 OA
ATOM     68   S  SGN C   4      94.021  33.902  11.0310  0.00  0.00     0.000 S
ATOM     69   O  SGN C   4      93.496  35.073  10.4270  0.00  0.00     0.000 OA
ENDBRANCH 59 66
BRANCH 62 70
ATOM     70   C  SGN C   4      89.077  34.513  15.7320  0.00  0.00     0.000 C
ATOM     71   S  SGN C   4      86.894  33.178  15.5730  0.00  0.00     0.000 S
ATOM     72   O  SGN C   4      86.737  33.290  17.0100  0.00  0.00     0.000 OA
ATOM     73   O  SGN C   4      86.291  34.274  14.8420  0.00  0.00     0.000 OA
ATOM     74   O  SGN C   4      86.552  31.873  15.0550  0.00  0.00     0.000 OA
ATOM     75   O  SGN C   4      88.459  33.286  15.3270  0.00  0.00     0.000 O
ENDBRANCH 62 70
ENDBRANCH 57 61
ENDBRANCH 41 57
ENDBRANCH 40 44
ENDBRANCH 20 40
ENDBRANCH 19 23
ENDBRANCH 1 19
TORSDOF 14
ENDMDL
MODEL 87
REMARK VINA RESULT:       0.2    106.941    113.377
ROOT
ATOM      1  C1  IDS C   1      12.545  42.921  90.4990  0.00  0.00     0.000 C
ATOM      2  C2  IDS C   1      13.280  43.562  91.6630  0.00  0.00     0.000 C
ATOM      3  C3  IDS C   1      12.302  44.254  92.6050  0.00  0.00     0.000 C
ATOM      4  C4  IDS C   1      11.165  43.316  93.0070  0.00  0.00     0.000 C
ATOM      5  C5  IDS C   1      10.555  42.650  91.7570  0.00  0.00     0.000 C
ATOM      6  O5  IDS C   1      11.567  42.006  90.9910  0.00  0.00     0.000 O
ATOM      7   O  IDS C   1      11.784  45.427  91.9750  0.00  0.00     0.000 O
ATOM      9  HD  IDS C   1      11.134  45.235  92.5150  0.00  0.00     0.000 HD
ATOM      9   O  IDS C   1      11.684  42.301  93.8810  0.00  0.00     0.000 O
ATOM     11  HD  IDS C   1      11.034  42.109  94.4200  0.00  0.00     0.000 HD
ENDROOT
BRANCH 2 11
ATOM     11   O  IDS C   1      14.001  42.531  92.4420  0.00  0.00     0.000 O
ATOM     12   S  IDS C   1      15.426  41.993  91.9560  0.00  0.00     0.000 S
ATOM     13   O  IDS C   1      16.105  41.749  93.2090  0.00  0.00     0.000 OA
ATOM     14   O  IDS C   1      16.070  43.004  91.1530  0.00  0.00     0.000 OA
ATOM     15   O  IDS C   1      15.127  40.789  91.2210  0.00  0.00     0.000 OA
ENDBRANCH 2 11
BRANCH 5 16
ATOM     16   C  IDS C   1       9.494  41.616  92.0850  0.00  0.00     0.000 C
ATOM     17   O  IDS C   1       9.000  40.977  91.1800  0.00  0.00     0.000 OA
ATOM     18   O  IDS C   1       9.135  41.441  93.2170  0.00  0.00     0.000 OA
ENDBRANCH 5 16
BRANCH 1 19
ATOM     19  O4  SGN C   2      12.164  43.686  89.4720  0.00  0.00     0.000 O
BRANCH 19 23
ATOM     20  C1  SGN C   2      11.491  43.817  85.3540  0.00  0.00     0.000 C
ATOM     21  C2  SGN C   2      10.530  42.951  86.1780  0.00  0.00     0.000 C
ATOM     22  C3  SGN C   2      10.620  43.339  87.6510  0.00  0.00     0.000 C
ATOM     23  C4  SGN C   2      12.061  43.207  88.1300  0.00  0.00     0.000 C
ATOM     24  C5  SGN C   2      12.987  44.020  87.2220  0.00  0.00     0.000 C
ATOM     25  O5  SGN C   2      12.804  43.618  85.8520  0.00  0.00     0.000 O
ATOM     26   O  SGN C   2       9.745  42.534  88.4330  0.00  0.00     0.000 O
ATOM     28  HD  SGN C   2       9.141  42.052  88.8240  0.00  0.00     0.000 HD
BRANCH 21 30
ATOM     28   N  SGN C   2       9.876  42.905  84.8630  0.00  0.00     0.000 N
ATOM     30  HD  SGN C   2       9.178  43.403  84.7400  0.00  0.00     0.000 HD
ATOM     30   S  SGN C   2       8.632  41.937  84.5900  0.00  0.00     0.000 S
ATOM     31   O  SGN C   2       7.686  42.240  85.6100  0.00  0.00     0.000 OA
ATOM     32   O  SGN C   2       8.264  42.052  83.2270  0.00  0.00     0.000 OA
ATOM     33   O  SGN C   2       9.221  40.498  84.7850  0.00  0.00     0.000 OA
ENDBRANCH 21 30
BRANCH 24 34
ATOM     34   C  SGN C   2      14.455  43.833  87.5280  0.00  0.00     0.000 C
ATOM     35   O  SGN C   2      15.044  43.009  86.5060  0.00  0.00     0.000 O
ATOM     36   S  SGN C   2      16.429  42.297  86.8580  0.00  0.00     0.000 S
ATOM     37   O  SGN C   2      16.173  41.580  88.0910  0.00  0.00     0.000 OA
ATOM     38   O  SGN C   2      16.717  41.432  85.7400  0.00  0.00     0.000 OA
ATOM     39   O  SGN C   2      17.357  43.393  86.9990  0.00  0.00     0.000 OA
ENDBRANCH 24 34
BRANCH 20 40
ATOM     40  O4  IDS C   3      11.240  45.122  85.2890  0.00  0.00     0.000 O
BRANCH 40 44
ATOM     41  C1  IDS C   3       9.854  48.248  84.4300  0.00  0.00     0.000 C
ATOM     42  C2  IDS C   3       9.287  46.944  83.8760  0.00  0.00     0.000 C
ATOM     43  C3  IDS C   3      10.398  46.105  83.2510  0.00  0.00     0.000 C
ATOM     44  C4  IDS C   3      11.589  45.961  84.1850  0.00  0.00     0.000 C
ATOM     45  C5  IDS C   3      12.020  47.350  84.7030  0.00  0.00     0.000 C
ATOM     46  O5  IDS C   3      10.913  47.983  85.3470  0.00  0.00     0.000 O
ATOM     47   O  IDS C   3      10.812  46.704  82.0250  0.00  0.00     0.000 O
ATOM     49  HD  IDS C   3      10.254  46.249  82.5070  0.00  0.00     0.000 HD
BRANCH 42 49
ATOM     49   O  IDS C   3       8.655  46.160  84.9630  0.00  0.00     0.000 O
ATOM     50   S  IDS C   3       7.066  45.962  84.9780  0.00  0.00     0.000 S
ATOM     51   O  IDS C   3       6.834  45.043  83.8860  0.00  0.00     0.000 OA
ATOM     52   O  IDS C   3       6.417  47.247  84.7740  0.00  0.00     0.000 OA
ATOM     53   O  IDS C   3       6.749  45.392  86.2710  0.00  0.00     0.000 OA
ENDBRANCH 42 49
BRANCH 45 54
ATOM     54   C  IDS C   3      13.185  47.293  85.6790  0.00  0.00     0.000 C
ATOM     55   O  IDS C   3      14.227  46.798  85.3360  0.00  0.00     0.000 OA
ATOM     56   O  IDS C   3      13.055  47.732  86.8060  0.00  0.00     0.000 OA
ENDBRANCH 45 54
BRANCH 41 57
ATOM     57  O4  SGN C   4      10.026  49.073  83.3910  0.00  0.00     0.000 O
BRANCH 57 61
ATOM     58  C1  SGN C   4      10.204  53.198  82.6970  0.00  0.00     0.000 C
ATOM     59  C2  SGN C   4      11.113  52.644  83.8060  0.00  0.00     0.000 C
ATOM     60  C3  SGN C   4      11.266  51.121  83.6880  0.00  0.00     0.000 C
ATOM     61  C4  SGN C   4       9.892  50.474  83.6540  0.00  0.00     0.000 C
ATOM     62  C5  SGN C   4       9.035  51.092  82.5500  0.00  0.00     0.000 C
ATOM     63  O5  SGN C   4       8.956  52.521  82.7100  0.00  0.00     0.000 O
BRANCH 59 66
ATOM     64   N  SGN C   4      12.327  53.463  83.7240  0.00  0.00     0.000 N
ATOM     66  HD  SGN C   4      11.764  52.824  83.8840  0.00  0.00     0.000 HD
ATOM     66   O  SGN C   4      14.058  54.903  84.6530  0.00  0.00     0.000 OA
ATOM     67   O  SGN C   4      11.722  55.173  85.3700  0.00  0.00     0.000 OA
ATOM     68   S  SGN C   4      12.893  54.183  85.0410  0.00  0.00     0.000 S
ATOM     69   O  SGN C   4      12.984  53.217  86.0760  0.00  0.00     0.000 OA
ENDBRANCH 59 66
BRANCH 62 70
ATOM     70   C  SGN C   4       7.624  50.562  82.5820  0.00  0.00     0.000 C
ATOM     71   S  SGN C   4       5.190  51.217  83.0480  0.00  0.00     0.000 S
ATOM     72   O  SGN C   4       4.786  50.521  81.8430  0.00  0.00     0.000 OA
ATOM     73   O  SGN C   4       5.200  50.370  84.2240  0.00  0.00     0.000 OA
ATOM     74   O  SGN C   4       4.510  52.477  83.2440  0.00  0.00     0.000 OA
ATOM     75   O  SGN C   4       6.699  51.636  82.7880  0.00  0.00     0.000 O
ENDBRANCH 62 70
ENDBRANCH 57 61
ENDBRANCH 41 57
ENDBRANCH 40 44
ENDBRANCH 20 40
ENDBRANCH 19 23
ENDBRANCH 1 19
TORSDOF 14
ENDMDL
MODEL 88
REMARK VINA RESULT:       0.2     79.177     86.651
ROOT
ATOM      1  C1  IDS C   1      33.292  89.836 110.2380  0.00  0.00     0.000 C
ATOM      2  C2  IDS C   1      33.739  90.561 108.9810  0.00  0.00     0.000 C
ATOM      3  C3  IDS C   1      32.901  91.814 108.7540  0.00  0.00     0.000 C
ATOM      4  C4  IDS C   1      32.854  92.682 110.0110  0.00  0.00     0.000 C
ATOM      5  C5  IDS C   1      32.483  91.825 111.2380  0.00  0.00     0.000 C
ATOM      6  O5  IDS C   1      33.368  90.717 111.3570  0.00  0.00     0.000 O
ATOM      7   O  IDS C   1      31.581  91.438 108.3560  0.00  0.00     0.000 O
ATOM      9  HD  IDS C   1      31.425  92.207 108.7230  0.00  0.00     0.000 HD
ATOM      9   O  IDS C   1      34.146  93.275 110.2170  0.00  0.00     0.000 O
ATOM     11  HD  IDS C   1      33.989  94.044 110.5840  0.00  0.00     0.000 HD
ENDROOT
BRANCH 2 11
ATOM     11   O  IDS C   1      35.152  90.983 109.1090  0.00  0.00     0.000 O
ATOM     12   S  IDS C   1      36.338  89.950 108.8250  0.00  0.00     0.000 S
ATOM     13   O  IDS C   1      37.352  90.801 108.2430  0.00  0.00     0.000 OA
ATOM     14   O  IDS C   1      35.874  88.926 107.9200  0.00  0.00     0.000 OA
ATOM     15   O  IDS C   1      36.693  89.439 110.1250  0.00  0.00     0.000 OA
ENDBRANCH 2 11
BRANCH 5 16
ATOM     16   C  IDS C   1      32.529  92.597 112.5440  0.00  0.00     0.000 C
ATOM     17   O  IDS C   1      32.327  92.002 113.5820  0.00  0.00     0.000 OA
ATOM     18   O  IDS C   1      32.745  93.777 112.5540  0.00  0.00     0.000 OA
ENDBRANCH 5 16
BRANCH 1 19
ATOM     19  O4  SGN C   2      32.212  89.051 110.1850  0.00  0.00     0.000 O
BRANCH 19 23
ATOM     20  C1  SGN C   2      30.394  85.607 111.6890  0.00  0.00     0.000 C
ATOM     21  C2  SGN C   2      30.551  86.780 112.6640  0.00  0.00     0.000 C
ATOM     22  C3  SGN C   2      30.812  88.067 111.8850  0.00  0.00     0.000 C
ATOM     23  C4  SGN C   2      32.041  87.891 111.0010  0.00  0.00     0.000 C
ATOM     24  C5  SGN C   2      31.869  86.657 110.1110  0.00  0.00     0.000 C
ATOM     25  O5  SGN C   2      31.584  85.504 110.9240  0.00  0.00     0.000 O
ATOM     26   O  SGN C   2      30.976  89.164 112.7760  0.00  0.00     0.000 O
ATOM     28  HD  SGN C   2      30.995  89.785 113.3790  0.00  0.00     0.000 HD
BRANCH 21 30
ATOM     28   N  SGN C   2      29.724  85.870 113.4670  0.00  0.00     0.000 N
ATOM     30  HD  SGN C   2      28.878  86.044 113.5360  0.00  0.00     0.000 HD
ATOM     30   S  SGN C   2      29.414  86.173 115.0080  0.00  0.00     0.000 S
ATOM     31   O  SGN C   2      28.877  87.492 115.0320  0.00  0.00     0.000 OA
ATOM     32   O  SGN C   2      28.665  85.094 115.5360  0.00  0.00     0.000 OA
ATOM     33   O  SGN C   2      30.822  86.132 115.6940  0.00  0.00     0.000 OA
ENDBRANCH 21 30
BRANCH 24 34
ATOM     34   C  SGN C   2      33.100  86.315 109.3040  0.00  0.00     0.000 C
ATOM     35   O  SGN C   2      33.731  85.158 109.8820  0.00  0.00     0.000 O
ATOM     36   S  SGN C   2      35.261  84.904 109.5060  0.00  0.00     0.000 S
ATOM     37   O  SGN C   2      35.934  86.145 109.8350  0.00  0.00     0.000 OA
ATOM     38   O  SGN C   2      35.682  83.789 110.3200  0.00  0.00     0.000 OA
ATOM     39   O  SGN C   2      35.229  84.612 108.0930  0.00  0.00     0.000 OA
ENDBRANCH 24 34
BRANCH 20 40
ATOM     40  O4  IDS C   3      29.346  85.625 110.8690  0.00  0.00     0.000 O
BRANCH 40 44
ATOM     41  C1  IDS C   3      26.079  85.367 109.5700  0.00  0.00     0.000 C
ATOM     42  C2  IDS C   3      26.370  85.135 111.0500  0.00  0.00     0.000 C
ATOM     43  C3  IDS C   3      27.495  84.116 111.2170  0.00  0.00     0.000 C
ATOM     44  C4  IDS C   3      28.698  84.459 110.3540  0.00  0.00     0.000 C
ATOM     45  C5  IDS C   3      28.246  84.714 108.9000  0.00  0.00     0.000 C
ATOM     46  O5  IDS C   3      27.265  85.753 108.8810  0.00  0.00     0.000 O
ATOM     47   O  IDS C   3      27.010  82.818 110.8820  0.00  0.00     0.000 O
ATOM     49  HD  IDS C   3      27.072  83.501 111.4100  0.00  0.00     0.000 HD
BRANCH 42 49
ATOM     49   O  IDS C   3      26.782  86.405 111.6930  0.00  0.00     0.000 O
ATOM     50   S  IDS C   3      25.818  87.099 112.7680  0.00  0.00     0.000 S
ATOM     51   O  IDS C   3      25.922  86.230 113.9200  0.00  0.00     0.000 OA
ATOM     52   O  IDS C   3      24.466  87.161 112.2370  0.00  0.00     0.000 OA
ATOM     53   O  IDS C   3      26.370  88.416 113.0050  0.00  0.00     0.000 OA
ENDBRANCH 42 49
BRANCH 45 54
ATOM     54   C  IDS C   3      29.388  85.104 107.9740  0.00  0.00     0.000 C
ATOM     55   O  IDS C   3      30.326  84.361 107.8380  0.00  0.00     0.000 OA
ATOM     56   O  IDS C   3      29.358  86.169 107.3890  0.00  0.00     0.000 OA
ENDBRANCH 45 54
BRANCH 41 57
ATOM     57  O4  SGN C   4      25.337  84.334 109.1510  0.00  0.00     0.000 O
BRANCH 57 61
ATOM     58  C1  SGN C   4      22.551  83.536 106.1290  0.00  0.00     0.000 C
ATOM     59  C2  SGN C   4      23.885  84.164 105.6920  0.00  0.00     0.000 C
ATOM     60  C3  SGN C   4      24.949  84.027 106.7900  0.00  0.00     0.000 C
ATOM     61  C4  SGN C   4      24.411  84.597 108.0920  0.00  0.00     0.000 C
ATOM     62  C5  SGN C   4      23.074  83.950 108.4490  0.00  0.00     0.000 C
ATOM     63  O5  SGN C   4      22.135  84.096 107.3660  0.00  0.00     0.000 O
BRANCH 59 66
ATOM     64   N  SGN C   4      24.163  83.554 104.3880  0.00  0.00     0.000 N
ATOM     66  HD  SGN C   4      24.241  83.953 105.1530  0.00  0.00     0.000 HD
ATOM     66   O  SGN C   4      24.707  83.623 102.0140  0.00  0.00     0.000 OA
ATOM     67   O  SGN C   4      23.137  85.261 102.9610  0.00  0.00     0.000 OA
ATOM     68   S  SGN C   4      24.491  84.487 103.1240  0.00  0.00     0.000 S
ATOM     69   O  SGN C   4      25.505  85.406 103.4980  0.00  0.00     0.000 OA
ENDBRANCH 59 66
BRANCH 62 70
ATOM     70   C  SGN C   4      22.455  84.592 109.6640  0.00  0.00     0.000 C
ATOM     71   S  SGN C   4      20.491  86.041 110.4500  0.00  0.00     0.000 S
ATOM     72   O  SGN C   4      20.290  85.137 111.5660  0.00  0.00     0.000 OA
ATOM     73   O  SGN C   4      21.417  87.116 110.7430  0.00  0.00     0.000 OA
ATOM     74   O  SGN C   4      19.261  86.482 109.8350  0.00  0.00     0.000 OA
ATOM     75   O  SGN C   4      21.179  85.152 109.3290  0.00  0.00     0.000 O
ENDBRANCH 62 70
ENDBRANCH 57 61
ENDBRANCH 41 57
ENDBRANCH 40 44
ENDBRANCH 20 40
ENDBRANCH 19 23
ENDBRANCH 1 19
TORSDOF 14
ENDMDL
MODEL 89
REMARK VINA RESULT:       0.2    102.941    109.584
ROOT
ATOM      1  C1  IDS C   1      38.753  32.815  93.6070  0.00  0.00     0.000 C
ATOM      2  C2  IDS C   1      40.123  33.237  93.1070  0.00  0.00     0.000 C
ATOM      3  C3  IDS C   1      40.178  33.197  91.5840  0.00  0.00     0.000 C
ATOM      4  C4  IDS C   1      39.008  33.965  90.9690  0.00  0.00     0.000 C
ATOM      5  C5  IDS C   1      37.680  33.524  91.6170  0.00  0.00     0.000 C
ATOM      6  O5  IDS C   1      37.750  33.652  93.0330  0.00  0.00     0.000 O
ATOM      7   O  IDS C   1      40.171  31.839  91.1430  0.00  0.00     0.000 O
ATOM      9  HD  IDS C   1      39.819  32.231  90.4560  0.00  0.00     0.000 HD
ATOM      9   O  IDS C   1      39.203  35.370  91.1930  0.00  0.00     0.000 O
ATOM     11  HD  IDS C   1      38.850  35.763  90.5070  0.00  0.00     0.000 HD
ENDROOT
BRANCH 2 11
ATOM     11   O  IDS C   1      40.417  34.624  93.5310  0.00  0.00     0.000 O
ATOM     12   S  IDS C   1      40.961  34.927  95.0020  0.00  0.00     0.000 S
ATOM     13   O  IDS C   1      41.849  36.046  94.7770  0.00  0.00     0.000 OA
ATOM     14   O  IDS C   1      41.643  33.760  95.5090  0.00  0.00     0.000 OA
ATOM     15   O  IDS C   1      39.785  35.271  95.7610  0.00  0.00     0.000 OA
ENDBRANCH 2 11
BRANCH 5 16
ATOM     16   C  IDS C   1      36.484  34.325  91.1380  0.00  0.00     0.000 C
ATOM     17   O  IDS C   1      36.546  34.884  90.0630  0.00  0.00     0.000 OA
ATOM     18   O  IDS C   1      35.497  34.422  91.8150  0.00  0.00     0.000 OA
ENDBRANCH 5 16
BRANCH 1 19
ATOM     19  O4  SGN C   2      38.459  31.513  93.6740  0.00  0.00     0.000 O
BRANCH 19 23
ATOM     20  C1  SGN C   2      36.631  28.530  95.9500  0.00  0.00     0.000 C
ATOM     21  C2  SGN C   2      35.698  29.478  95.1890  0.00  0.00     0.000 C
ATOM     22  C3  SGN C   2      36.479  30.202  94.0950  0.00  0.00     0.000 C
ATOM     23  C4  SGN C   2      37.662  30.939  94.7110  0.00  0.00     0.000 C
ATOM     24  C5  SGN C   2      38.512  29.964  95.5310  0.00  0.00     0.000 C
ATOM     25  O5  SGN C   2      37.687  29.297  96.5040  0.00  0.00     0.000 O
ATOM     26   O  SGN C   2      35.631  31.099  93.3870  0.00  0.00     0.000 O
ATOM     28  HD  SGN C   2      35.036  31.567  92.9660  0.00  0.00     0.000 HD
BRANCH 21 30
ATOM     28   N  SGN C   2      34.731  28.490  95.6850  0.00  0.00     0.000 N
ATOM     30  HD  SGN C   2      34.436  27.896  95.1280  0.00  0.00     0.000 HD
ATOM     30   S  SGN C   2      33.156  28.718  95.5250  0.00  0.00     0.000 S
ATOM     31   O  SGN C   2      32.950  28.968  94.1390  0.00  0.00     0.000 OA
ATOM     32   O  SGN C   2      32.481  27.647  96.1590  0.00  0.00     0.000 OA
ATOM     33   O  SGN C   2      32.870  30.004  96.3720  0.00  0.00     0.000 OA
ENDBRANCH 21 30
BRANCH 24 34
ATOM     34   C  SGN C   2      39.627  30.630  96.3020  0.00  0.00     0.000 C
ATOM     35   O  SGN C   2      39.368  30.493  97.7110  0.00  0.00     0.000 O
ATOM     36   S  SGN C   2      40.129  31.500  98.6890  0.00  0.00     0.000 S
ATOM     37   O  SGN C   2      39.816  32.819  98.1770  0.00  0.00     0.000 OA
ATOM     38   O  SGN C   2      39.586  31.250 100.0030  0.00  0.00     0.000 OA
ATOM     39   O  SGN C   2      41.517  31.134  98.5540  0.00  0.00     0.000 OA
ENDBRANCH 24 34
BRANCH 20 40
ATOM     40  O4  IDS C   3      37.143  27.500  95.2800  0.00  0.00     0.000 O
BRANCH 40 44
ATOM     41  C1  IDS C   3      37.546  24.395  93.6610  0.00  0.00     0.000 C
ATOM     42  C2  IDS C   3      36.201  24.824  94.2400  0.00  0.00     0.000 C
ATOM     43  C3  IDS C   3      36.362  25.254  95.6960  0.00  0.00     0.000 C
ATOM     44  C4  IDS C   3      37.502  26.247  95.8670  0.00  0.00     0.000 C
ATOM     45  C5  IDS C   3      38.778  25.703  95.1920  0.00  0.00     0.000 C
ATOM     46  O5  IDS C   3      38.511  25.433  93.8140  0.00  0.00     0.000 O
ATOM     47   O  IDS C   3      36.595  24.104  96.5050  0.00  0.00     0.000 O
ATOM     49  HD  IDS C   3      36.082  24.624  96.0390  0.00  0.00     0.000 HD
BRANCH 42 49
ATOM     49   O  IDS C   3      35.654  25.964  93.4670  0.00  0.00     0.000 O
ATOM     50   S  IDS C   3      34.339  25.760  92.5760  0.00  0.00     0.000 S
ATOM     51   O  IDS C   3      33.285  25.640  93.5590  0.00  0.00     0.000 OA
ATOM     52   O  IDS C   3      34.485  24.562  91.7660  0.00  0.00     0.000 OA
ATOM     53   O  IDS C   3      34.219  26.953  91.7650  0.00  0.00     0.000 OA
ENDBRANCH 42 49
BRANCH 45 54
ATOM     54   C  IDS C   3      39.960  26.656  95.2830  0.00  0.00     0.000 C
ATOM     55   O  IDS C   3      40.501  27.032  94.2750  0.00  0.00     0.000 OA
ATOM     56   O  IDS C   3      40.364  27.020  96.3700  0.00  0.00     0.000 OA
ENDBRANCH 45 54
BRANCH 41 57
ATOM     57  O4  SGN C   4      37.785  23.154  94.1020  0.00  0.00     0.000 O
BRANCH 57 61
ATOM     58  C1  SGN C   4      40.170  19.881  93.0410  0.00  0.00     0.000 C
ATOM     59  C2  SGN C   4      40.884  21.232  93.2060  0.00  0.00     0.000 C
ATOM     60  C3  SGN C   4      40.010  22.231  93.9780  0.00  0.00     0.000 C
ATOM     61  C4  SGN C   4      38.653  22.344  93.3040  0.00  0.00     0.000 C
ATOM     62  C5  SGN C   4      38.016  20.964  93.1470  0.00  0.00     0.000 C
ATOM     63  O5  SGN C   4      38.899  20.075  92.4370  0.00  0.00     0.000 O
BRANCH 59 66
ATOM     64   N  SGN C   4      42.191  20.885  93.7730  0.00  0.00     0.000 N
ATOM     66  HD  SGN C   4      41.473  21.308  93.5370  0.00  0.00     0.000 HD
ATOM     66   O  SGN C   4      44.626  20.926  93.8380  0.00  0.00     0.000 OA
ATOM     67   O  SGN C   4      43.460  20.718  91.6840  0.00  0.00     0.000 OA
ATOM     68   S  SGN C   4      43.532  21.429  93.0790  0.00  0.00     0.000 S
ATOM     69   O  SGN C   4      43.401  22.829  92.8910  0.00  0.00     0.000 OA
ENDBRANCH 59 66
BRANCH 62 70
ATOM     70   C  SGN C   4      36.730  21.034  92.3610  0.00  0.00     0.000 C
ATOM     71   S  SGN C   4      35.690  20.545  90.0700  0.00  0.00     0.000 S
ATOM     72   O  SGN C   4      34.552  19.937  90.7320  0.00  0.00     0.000 OA
ATOM     73   O  SGN C   4      35.534  21.968  89.8500  0.00  0.00     0.000 OA
ATOM     74   O  SGN C   4      36.133  19.820  88.9010  0.00  0.00     0.000 OA
ATOM     75   O  SGN C   4      36.890  20.381  91.0960  0.00  0.00     0.000 O
ENDBRANCH 62 70
ENDBRANCH 57 61
ENDBRANCH 41 57
ENDBRANCH 40 44
ENDBRANCH 20 40
ENDBRANCH 19 23
ENDBRANCH 1 19
TORSDOF 14
ENDMDL
MODEL 90
REMARK VINA RESULT:       0.2    100.092    104.318
ROOT
ATOM      1  C1  IDS C   1      87.799  27.622  15.1920  0.00  0.00     0.000 C
ATOM      2  C2  IDS C   1      88.113  28.162  16.5760  0.00  0.00     0.000 C
ATOM      3  C3  IDS C   1      87.841  27.108  17.6420  0.00  0.00     0.000 C
ATOM      4  C4  IDS C   1      88.528  25.786  17.3000  0.00  0.00     0.000 C
ATOM      5  C5  IDS C   1      88.216  25.383  15.8450  0.00  0.00     0.000 C
ATOM      6  O5  IDS C   1      88.557  26.438  14.9520  0.00  0.00     0.000 O
ATOM      7   O  IDS C   1      86.431  26.918  17.7750  0.00  0.00     0.000 O
ATOM      9  HD  IDS C   1      86.721  26.143  18.0310  0.00  0.00     0.000 HD
ATOM      9   O  IDS C   1      89.947  25.944  17.4570  0.00  0.00     0.000 O
ATOM     11  HD  IDS C   1      90.237  25.169  17.7130  0.00  0.00     0.000 HD
ENDROOT
BRANCH 2 11
ATOM     11   O  IDS C   1      89.543  28.534  16.6670  0.00  0.00     0.000 O
ATOM     12   S  IDS C   1      90.056  29.937  16.0990  0.00  0.00     0.000 S
ATOM     13   O  IDS C   1      91.110  30.276  17.0290  0.00  0.00     0.000 OA
ATOM     14   O  IDS C   1      88.968  30.884  16.1100  0.00  0.00     0.000 OA
ATOM     15   O  IDS C   1      90.535  29.638  14.7730  0.00  0.00     0.000 OA
ENDBRANCH 2 11
BRANCH 5 16
ATOM     16   C  IDS C   1      88.959  24.138  15.3950  0.00  0.00     0.000 C
ATOM     17   O  IDS C   1      89.346  23.353  16.2350  0.00  0.00     0.000 OA
ATOM     18   O  IDS C   1      89.175  23.937  14.2320  0.00  0.00     0.000 OA
ENDBRANCH 5 16
BRANCH 1 19
ATOM     19  O4  SGN C   2      86.528  27.595  14.7790  0.00  0.00     0.000 O
BRANCH 19 23
ATOM     20  C1  SGN C   2      83.967  28.222  11.5430  0.00  0.00     0.000 C
ATOM     21  C2  SGN C   2      84.806  26.940  11.5130  0.00  0.00     0.000 C
ATOM     22  C3  SGN C   2      85.338  26.638  12.9120  0.00  0.00     0.000 C
ATOM     23  C4  SGN C   2      86.136  27.831  13.4260  0.00  0.00     0.000 C
ATOM     24  C5  SGN C   2      85.281  29.099  13.3530  0.00  0.00     0.000 C
ATOM     25  O5  SGN C   2      84.788  29.279  12.0120  0.00  0.00     0.000 O
ATOM     26   O  SGN C   2      86.133  25.458  12.9000  0.00  0.00     0.000 O
ATOM     28  HD  SGN C   2      86.543  24.700  12.8200  0.00  0.00     0.000 HD
BRANCH 21 30
ATOM     28   N  SGN C   2      83.923  26.710  10.3630  0.00  0.00     0.000 N
ATOM     30  HD  SGN C   2      83.260  26.161  10.4630  0.00  0.00     0.000 HD
ATOM     30   S  SGN C   2      84.158  25.478   9.3690  0.00  0.00     0.000 S
ATOM     31   O  SGN C   2      84.205  24.325  10.2030  0.00  0.00     0.000 OA
ATOM     32   O  SGN C   2      83.207  25.557   8.3230  0.00  0.00     0.000 OA
ATOM     33   O  SGN C   2      85.562  25.765   8.7340  0.00  0.00     0.000 OA
ENDBRANCH 21 30
BRANCH 24 34
ATOM     34   C  SGN C   2      86.035  30.360  13.7020  0.00  0.00     0.000 C
ATOM     35   O  SGN C   2      86.146  31.180  12.5250  0.00  0.00     0.000 O
ATOM     36   S  SGN C   2      87.280  32.304  12.5290  0.00  0.00     0.000 S
ATOM     37   O  SGN C   2      88.503  31.593  12.8460  0.00  0.00     0.000 OA
ATOM     38   O  SGN C   2      87.272  32.868  11.2000  0.00  0.00     0.000 OA
ATOM     39   O  SGN C   2      86.855  33.225  13.5540  0.00  0.00     0.000 OA
ENDBRANCH 24 34
BRANCH 20 40
ATOM     40  O4  IDS C   3      82.837  28.201  12.2460  0.00  0.00     0.000 O
BRANCH 40 44
ATOM     41  C1  IDS C   3      79.509  27.618  13.2530  0.00  0.00     0.000 C
ATOM     42  C2  IDS C   3      80.056  27.059  11.9420  0.00  0.00     0.000 C
ATOM     43  C3  IDS C   3      80.702  28.171  11.1190  0.00  0.00     0.000 C
ATOM     44  C4  IDS C   3      81.681  28.988  11.9480  0.00  0.00     0.000 C
ATOM     45  C5  IDS C   3      81.007  29.442  13.2600  0.00  0.00     0.000 C
ATOM     46  O5  IDS C   3      80.534  28.298  13.9730  0.00  0.00     0.000 O
ATOM     47   O  IDS C   3      79.686  29.020  10.5900  0.00  0.00     0.000 O
ATOM     49  HD  IDS C   3      80.139  28.282  10.6040  0.00  0.00     0.000 HD
BRANCH 42 49
ATOM     49   O  IDS C   3      81.075  26.020  12.2170  0.00  0.00     0.000 O
ATOM     50   S  IDS C   3      80.759  24.487  11.8740  0.00  0.00     0.000 S
ATOM     51   O  IDS C   3      80.800  24.454  10.4290  0.00  0.00     0.000 OA
ATOM     52   O  IDS C   3      79.451  24.134  12.4020  0.00  0.00     0.000 OA
ATOM     53   O  IDS C   3      81.819  23.715  12.4860  0.00  0.00     0.000 OA
ENDBRANCH 42 49
BRANCH 45 54
ATOM     54   C  IDS C   3      81.933  30.235  14.1690  0.00  0.00     0.000 C
ATOM     55   O  IDS C   3      82.126  29.861  15.2960  0.00  0.00     0.000 OA
ATOM     56   O  IDS C   3      82.460  31.252  13.7600  0.00  0.00     0.000 OA
ENDBRANCH 45 54
BRANCH 41 57
ATOM     57  O4  SGN C   4      78.346  28.216  12.9680  0.00  0.00     0.000 O
BRANCH 57 61
ATOM     58  C1  SGN C   4      74.879  29.387  15.0030  0.00  0.00     0.000 C
ATOM     59  C2  SGN C   4      76.220  29.826  15.6130  0.00  0.00     0.000 C
ATOM     60  C3  SGN C   4      77.360  29.704  14.5920  0.00  0.00     0.000 C
ATOM     61  C4  SGN C   4      77.387  28.293  14.0280  0.00  0.00     0.000 C
ATOM     62  C5  SGN C   4      76.017  27.914  13.4670  0.00  0.00     0.000 C
ATOM     63  O5  SGN C   4      74.996  28.076  14.4700  0.00  0.00     0.000 O
BRANCH 59 66
ATOM     64   N  SGN C   4      75.952  31.153  16.1760  0.00  0.00     0.000 N
ATOM     66  HD  SGN C   4      76.342  30.451  15.8520  0.00  0.00     0.000 HD
ATOM     66   O  SGN C   4      75.937  32.807  17.9640  0.00  0.00     0.000 OA
ATOM     67   O  SGN C   4      75.352  30.469  18.4500  0.00  0.00     0.000 OA
ATOM     68   S  SGN C   4      76.316  31.459  17.7080  0.00  0.00     0.000 S
ATOM     69   O  SGN C   4      77.657  31.057  17.9380  0.00  0.00     0.000 OA
ENDBRANCH 59 66
BRANCH 62 70
ATOM     70   C  SGN C   4      75.980  26.473  13.0230  0.00  0.00     0.000 C
ATOM     71   S  SGN C   4      75.074  24.155  13.6350  0.00  0.00     0.000 S
ATOM     72   O  SGN C   4      74.668  23.965  12.2560  0.00  0.00     0.000 OA
ATOM     73   O  SGN C   4      76.427  23.710  13.9010  0.00  0.00     0.000 OA
ATOM     74   O  SGN C   4      74.104  23.677  14.5940  0.00  0.00     0.000 OA
ATOM     75   O  SGN C   4      75.073  25.729  13.8450  0.00  0.00     0.000 O
ENDBRANCH 62 70
ENDBRANCH 57 61
ENDBRANCH 41 57
ENDBRANCH 40 44
ENDBRANCH 20 40
ENDBRANCH 19 23
ENDBRANCH 1 19
TORSDOF 14
ENDMDL
MODEL 91
REMARK VINA RESULT:       0.2    106.514    113.264
ROOT
ATOM      1  C1  IDS C   1      12.604  42.524  90.7350  0.00  0.00     0.000 C
ATOM      2  C2  IDS C   1      13.333  42.912  92.0090  0.00  0.00     0.000 C
ATOM      3  C3  IDS C   1      12.344  43.212  93.1280  0.00  0.00     0.000 C
ATOM      4  C4  IDS C   1      11.333  42.077  93.2910  0.00  0.00     0.000 C
ATOM      5  C5  IDS C   1      10.726  41.703  91.9240  0.00  0.00     0.000 C
ATOM      6  O5  IDS C   1      11.755  41.405  90.9860  0.00  0.00     0.000 O
ATOM      7   O  IDS C   1      11.673  44.443  92.8540  0.00  0.00     0.000 O
ATOM      9  HD  IDS C   1      11.078  44.041  93.3380  0.00  0.00     0.000 HD
ATOM      9   O  IDS C   1      12.002  40.932  93.8440  0.00  0.00     0.000 O
ATOM     11  HD  IDS C   1      11.407  40.530  94.3280  0.00  0.00     0.000 HD
ENDROOT
BRANCH 2 11
ATOM     11   O  IDS C   1      14.199  41.800  92.4600  0.00  0.00     0.000 O
ATOM     12   S  IDS C   1      15.791  41.939  92.4170  0.00  0.00     0.000 S
ATOM     13   O  IDS C   1      16.196  41.182  93.5810  0.00  0.00     0.000 OA
ATOM     14   O  IDS C   1      16.151  43.333  92.4970  0.00  0.00     0.000 OA
ATOM     15   O  IDS C   1      16.175  41.324  91.1710  0.00  0.00     0.000 OA
ENDBRANCH 2 11
BRANCH 5 16
ATOM     16   C  IDS C   1       9.797  40.504  91.9880  0.00  0.00     0.000 C
ATOM     17   O  IDS C   1       9.276  40.113  90.9650  0.00  0.00     0.000 OA
ATOM     18   O  IDS C   1       9.565  39.960  93.0320  0.00  0.00     0.000 OA
ENDBRANCH 5 16
BRANCH 1 19
ATOM     19  O4  SGN C   2      12.089  43.486  89.9630  0.00  0.00     0.000 O
BRANCH 19 23
ATOM     20  C1  SGN C   2      11.150  44.612  86.0550  0.00  0.00     0.000 C
ATOM     21  C2  SGN C   2      10.273  43.522  86.6830  0.00  0.00     0.000 C
ATOM     22  C3  SGN C   2      10.444  43.533  88.2000  0.00  0.00     0.000 C
ATOM     23  C4  SGN C   2      11.916  43.354  88.5510  0.00  0.00     0.000 C
ATOM     24  C5  SGN C   2      12.756  44.412  87.8300  0.00  0.00     0.000 C
ATOM     25  O5  SGN C   2      12.498  44.358  86.4150  0.00  0.00     0.000 O
ATOM     26   O  SGN C   2       9.648  42.517  88.7990  0.00  0.00     0.000 O
ATOM     28  HD  SGN C   2       9.086  41.924  89.0860  0.00  0.00     0.000 HD
BRANCH 21 30
ATOM     28   N  SGN C   2       9.858  43.006  85.3720  0.00  0.00     0.000 N
ATOM     30  HD  SGN C   2       9.681  43.579  84.7480  0.00  0.00     0.000 HD
ATOM     30   S  SGN C   2       8.311  42.849  84.9950  0.00  0.00     0.000 S
ATOM     31   O  SGN C   2       7.733  44.128  85.2350  0.00  0.00     0.000 OA
ATOM     32   O  SGN C   2       8.219  42.262  83.7100  0.00  0.00     0.000 OA
ATOM     33   O  SGN C   2       7.774  41.793  86.0200  0.00  0.00     0.000 OA
ENDBRANCH 21 30
BRANCH 24 34
ATOM     34   C  SGN C   2      14.245  44.224  88.0000  0.00  0.00     0.000 C
ATOM     35   O  SGN C   2      14.737  45.204  88.9310  0.00  0.00     0.000 O
ATOM     36   S  SGN C   2      16.304  45.505  88.9060  0.00  0.00     0.000 S
ATOM     37   O  SGN C   2      16.595  45.835  87.5240  0.00  0.00     0.000 OA
ATOM     38   O  SGN C   2      16.503  46.610  89.8130  0.00  0.00     0.000 OA
ATOM     39   O  SGN C   2      16.903  44.271  89.3510  0.00  0.00     0.000 OA
ENDBRANCH 24 34
BRANCH 20 40
ATOM     40  O4  IDS C   3      10.853  45.879  86.3360  0.00  0.00     0.000 O
BRANCH 40 44
ATOM     41  C1  IDS C   3       9.682  49.178  86.7460  0.00  0.00     0.000 C
ATOM     42  C2  IDS C   3       8.798  48.086  86.1510  0.00  0.00     0.000 C
ATOM     43  C3  IDS C   3       9.520  47.385  85.0020  0.00  0.00     0.000 C
ATOM     44  C4  IDS C   3      10.924  46.956  85.3980  0.00  0.00     0.000 C
ATOM     45  C5  IDS C   3      11.679  48.145  86.0270  0.00  0.00     0.000 C
ATOM     46  O5  IDS C   3      10.940  48.641  87.1450  0.00  0.00     0.000 O
ATOM     47   O  IDS C   3       9.579  48.259  83.8770  0.00  0.00     0.000 O
ATOM     49  HD  IDS C   3       9.158  47.721  84.4100  0.00  0.00     0.000 HD
BRANCH 42 49
ATOM     49   O  IDS C   3       8.466  47.079  87.1850  0.00  0.00     0.000 O
ATOM     50   S  IDS C   3       7.013  47.085  87.8600  0.00  0.00     0.000 S
ATOM     51   O  IDS C   3       6.152  46.601  86.8040  0.00  0.00     0.000 OA
ATOM     52   O  IDS C   3       6.679  48.437  88.2770  0.00  0.00     0.000 OA
ATOM     53   O  IDS C   3       7.092  46.174  88.9830  0.00  0.00     0.000 OA
ENDBRANCH 42 49
BRANCH 45 54
ATOM     54   C  IDS C   3      13.084  47.789  86.4900  0.00  0.00     0.000 C
ATOM     55   O  IDS C   3      13.402  47.983  87.6340  0.00  0.00     0.000 OA
ATOM     56   O  IDS C   3      13.884  47.327  85.7000  0.00  0.00     0.000 OA
ENDBRANCH 45 54
BRANCH 41 57
ATOM     57  O4  SGN C   4       9.606  50.233  85.9260  0.00  0.00     0.000 O
BRANCH 57 61
ATOM     58  C1  SGN C   4      10.298  54.359  86.0920  0.00  0.00     0.000 C
ATOM     59  C2  SGN C   4      11.450  53.446  86.5420  0.00  0.00     0.000 C
ATOM     60  C3  SGN C   4      11.238  52.006  86.0560  0.00  0.00     0.000 C
ATOM     61  C4  SGN C   4       9.871  51.516  86.5030  0.00  0.00     0.000 C
ATOM     62  C5  SGN C   4       8.780  52.484  86.0480  0.00  0.00     0.000 C
ATOM     63  O5  SGN C   4       9.056  53.817  86.5180  0.00  0.00     0.000 O
BRANCH 59 66
ATOM     64   N  SGN C   4      12.659  54.150  86.1020  0.00  0.00     0.000 N
ATOM     66  HD  SGN C   4      12.097  53.542  86.3550  0.00  0.00     0.000 HD
ATOM     66   O  SGN C   4      14.868  55.120  86.4390  0.00  0.00     0.000 OA
ATOM     67   O  SGN C   4      13.140  55.373  88.1690  0.00  0.00     0.000 OA
ATOM     68   S  SGN C   4      13.849  54.421  87.1440  0.00  0.00     0.000 S
ATOM     69   O  SGN C   4      14.163  53.199  87.7920  0.00  0.00     0.000 OA
ENDBRANCH 59 66
BRANCH 62 70
ATOM     70   C  SGN C   4       7.429  52.092  86.5930  0.00  0.00     0.000 C
ATOM     71   S  SGN C   4       5.590  52.795  88.2340  0.00  0.00     0.000 S
ATOM     72   O  SGN C   4       4.595  52.513  87.2180  0.00  0.00     0.000 OA
ATOM     73   O  SGN C   4       5.906  51.649  89.0620  0.00  0.00     0.000 OA
ATOM     74   O  SGN C   4       5.322  54.000  88.9860  0.00  0.00     0.000 OA
ATOM     75   O  SGN C   4       6.911  53.138  87.4230  0.00  0.00     0.000 O
ENDBRANCH 62 70
ENDBRANCH 57 61
ENDBRANCH 41 57
ENDBRANCH 40 44
ENDBRANCH 20 40
ENDBRANCH 19 23
ENDBRANCH 1 19
TORSDOF 14
ENDMDL
MODEL 92
REMARK VINA RESULT:       0.2     64.837     70.328
ROOT
ATOM      1  C1  IDS C   1      99.414  45.633  45.0080  0.00  0.00     0.000 C
ATOM      2  C2  IDS C   1      99.758  46.328  43.7020  0.00  0.00     0.000 C
ATOM      3  C3  IDS C   1     100.764  47.448  43.9350  0.00  0.00     0.000 C
ATOM      4  C4  IDS C   1     101.971  46.950  44.7310  0.00  0.00     0.000 C
ATOM      5  C5  IDS C   1     101.503  46.180  45.9830  0.00  0.00     0.000 C
ATOM      6  O5  IDS C   1     100.604  45.138  45.6200  0.00  0.00     0.000 O
ATOM      7   O  IDS C   1     100.125  48.528  44.6180  0.00  0.00     0.000 O
ATOM      9  HD  IDS C   1     100.945  48.640  44.8740  0.00  0.00     0.000 HD
ATOM      9   O  IDS C   1     102.750  46.077  43.8990  0.00  0.00     0.000 O
ATOM     11  HD  IDS C   1     103.570  46.189  44.1540  0.00  0.00     0.000 HD
ENDROOT
BRANCH 2 11
ATOM     11   O  IDS C   1     100.366  45.366  42.7570  0.00  0.00     0.000 O
ATOM     12   S  IDS C   1      99.873  45.295  41.2380  0.00  0.00     0.000 S
ATOM     13   O  IDS C   1     101.095  44.975  40.5340  0.00  0.00     0.000 OA
ATOM     14   O  IDS C   1      99.319  46.571  40.8550  0.00  0.00     0.000 OA
ATOM     15   O  IDS C   1      98.904  44.227  41.2210  0.00  0.00     0.000 OA
ENDBRANCH 2 11
BRANCH 5 16
ATOM     16   C  IDS C   1     102.645  45.556  46.7640  0.00  0.00     0.000 C
ATOM     17   O  IDS C   1     102.406  44.625  47.5050  0.00  0.00     0.000 OA
ATOM     18   O  IDS C   1     103.763  45.981  46.6660  0.00  0.00     0.000 OA
ENDBRANCH 5 16
BRANCH 1 19
ATOM     19  O4  SGN C   2      98.527  46.200  45.8310  0.00  0.00     0.000 O
BRANCH 19 23
ATOM     20  C1  SGN C   2      95.256  45.523  48.3350  0.00  0.00     0.000 C
ATOM     21  C2  SGN C   2      96.624  45.067  48.8570  0.00  0.00     0.000 C
ATOM     22  C3  SGN C   2      97.733  45.754  48.0650  0.00  0.00     0.000 C
ATOM     23  C4  SGN C   2      97.562  45.459  46.5790  0.00  0.00     0.000 C
ATOM     24  C5  SGN C   2      96.152  45.852  46.1310  0.00  0.00     0.000 C
ATOM     25  O5  SGN C   2      95.175  45.194  46.9580  0.00  0.00     0.000 O
ATOM     26   O  SGN C   2      99.011  45.330  48.5260  0.00  0.00     0.000 O
ATOM     28  HD  SGN C   2      99.744  45.074  48.9090  0.00  0.00     0.000 HD
BRANCH 21 30
ATOM     28   N  SGN C   2      95.792  44.843  50.0460  0.00  0.00     0.000 N
ATOM     30  HD  SGN C   2      95.832  45.426  50.6850  0.00  0.00     0.000 HD
ATOM     30   S  SGN C   2      96.375  44.104  51.3400  0.00  0.00     0.000 S
ATOM     31   O  SGN C   2      97.556  44.822  51.6820  0.00  0.00     0.000 OA
ATOM     32   O  SGN C   2      95.332  43.965  52.2860  0.00  0.00     0.000 OA
ATOM     33   O  SGN C   2      96.725  42.665  50.8290  0.00  0.00     0.000 OA
ENDBRANCH 21 30
BRANCH 24 34
ATOM     34   C  SGN C   2      95.837  45.460  44.7060  0.00  0.00     0.000 C
ATOM     35   O  SGN C   2      95.831  46.643  43.8870  0.00  0.00     0.000 O
ATOM     36   S  SGN C   2      95.076  46.549  42.4830  0.00  0.00     0.000 S
ATOM     37   O  SGN C   2      93.745  46.076  42.8120  0.00  0.00     0.000 OA
ATOM     38   O  SGN C   2      95.093  47.886  41.9420  0.00  0.00     0.000 OA
ATOM     39   O  SGN C   2      95.862  45.605  41.7270  0.00  0.00     0.000 OA
ENDBRANCH 24 34
BRANCH 20 40
ATOM     40  O4  IDS C   3      94.931  46.803  48.4990  0.00  0.00     0.000 O
BRANCH 40 44
ATOM     41  C1  IDS C   3      93.893  49.886  49.8570  0.00  0.00     0.000 C
ATOM     42  C2  IDS C   3      94.050  48.643  50.7280  0.00  0.00     0.000 C
ATOM     43  C3  IDS C   3      93.278  47.472  50.1260  0.00  0.00     0.000 C
ATOM     44  C4  IDS C   3      93.594  47.288  48.6500  0.00  0.00     0.000 C
ATOM     45  C5  IDS C   3      93.441  48.632  47.9080  0.00  0.00     0.000 C
ATOM     46  O5  IDS C   3      94.288  49.610  48.5150  0.00  0.00     0.000 O
ATOM     47   O  IDS C   3      91.880  47.688  50.3000  0.00  0.00     0.000 O
ATOM     49  HD  IDS C   3      92.666  47.478  50.5950  0.00  0.00     0.000 HD
BRANCH 42 49
ATOM     49   O  IDS C   3      95.480  48.268  50.8260  0.00  0.00     0.000 O
ATOM     50   S  IDS C   3      96.239  48.396  52.2310  0.00  0.00     0.000 S
ATOM     51   O  IDS C   3      95.678  47.317  53.0130  0.00  0.00     0.000 OA
ATOM     52   O  IDS C   3      95.970  49.703  52.8080  0.00  0.00     0.000 OA
ATOM     53   O  IDS C   3      97.645  48.209  51.9420  0.00  0.00     0.000 OA
ENDBRANCH 42 49
BRANCH 45 54
ATOM     54   C  IDS C   3      93.779  48.545  46.4280  0.00  0.00     0.000 C
ATOM     55   O  IDS C   3      93.187  47.767  45.7260  0.00  0.00     0.000 OA
ATOM     56   O  IDS C   3      94.655  49.248  45.9630  0.00  0.00     0.000 OA
ENDBRANCH 45 54
BRANCH 41 57
ATOM     57  O4  SGN C   4      92.693  50.409  50.1340  0.00  0.00     0.000 O
BRANCH 57 61
ATOM     58  C1  SGN C   4      90.907  54.191  50.3270  0.00  0.00     0.000 C
ATOM     59  C2  SGN C   4      91.551  53.799  48.9880  0.00  0.00     0.000 C
ATOM     60  C3  SGN C   4      91.792  52.285  48.9110  0.00  0.00     0.000 C
ATOM     61  C4  SGN C   4      92.596  51.837  50.1210  0.00  0.00     0.000 C
ATOM     62  C5  SGN C   4      91.914  52.286  51.4130  0.00  0.00     0.000 C
ATOM     63  O5  SGN C   4      91.698  53.710  51.4040  0.00  0.00     0.000 O
BRANCH 59 66
ATOM     64   N  SGN C   4      90.677  54.457  48.0110  0.00  0.00     0.000 N
ATOM     66  HD  SGN C   4      91.222  53.909  48.4030  0.00  0.00     0.000 HD
ATOM     66   O  SGN C   4      90.239  55.779  46.0130  0.00  0.00     0.000 OA
ATOM     67   O  SGN C   4      92.086  56.397  47.5120  0.00  0.00     0.000 OA
ATOM     68   S  SGN C   4      91.319  55.247  46.7710  0.00  0.00     0.000 S
ATOM     69   O  SGN C   4      92.262  54.397  46.1380  0.00  0.00     0.000 OA
ENDBRANCH 59 66
BRANCH 62 70
ATOM     70   C  SGN C   4      92.758  51.972  52.6230  0.00  0.00     0.000 C
ATOM     71   S  SGN C   4      92.667  51.623  55.1610  0.00  0.00     0.000 S
ATOM     72   O  SGN C   4      93.506  50.450  55.0150  0.00  0.00     0.000 OA
ATOM     73   O  SGN C   4      93.419  52.848  55.3440  0.00  0.00     0.000 OA
ATOM     74   O  SGN C   4      91.593  51.451  56.1120  0.00  0.00     0.000 OA
ATOM     75   O  SGN C   4      91.921  51.763  53.7660  0.00  0.00     0.000 O
ENDBRANCH 62 70
ENDBRANCH 57 61
ENDBRANCH 41 57
ENDBRANCH 40 44
ENDBRANCH 20 40
ENDBRANCH 19 23
ENDBRANCH 1 19
TORSDOF 14
ENDMDL
MODEL 93
REMARK VINA RESULT:       0.2    104.900    111.551
ROOT
ATOM      1  C1  IDS C   1      37.158  31.489  93.4210  0.00  0.00     0.000 C
ATOM      2  C2  IDS C   1      38.528  31.911  92.9200  0.00  0.00     0.000 C
ATOM      3  C3  IDS C   1      38.583  31.871  91.3980  0.00  0.00     0.000 C
ATOM      4  C4  IDS C   1      37.413  32.639  90.7830  0.00  0.00     0.000 C
ATOM      5  C5  IDS C   1      36.085  32.198  91.4300  0.00  0.00     0.000 C
ATOM      6  O5  IDS C   1      36.155  32.326  92.8460  0.00  0.00     0.000 O
ATOM      7   O  IDS C   1      38.576  30.513  90.9560  0.00  0.00     0.000 O
ATOM      9  HD  IDS C   1      38.224  30.905  90.2700  0.00  0.00     0.000 HD
ATOM      9   O  IDS C   1      37.608  34.044  91.0070  0.00  0.00     0.000 O
ATOM     11  HD  IDS C   1      37.255  34.437  90.3200  0.00  0.00     0.000 HD
ENDROOT
BRANCH 2 11
ATOM     11   O  IDS C   1      38.822  33.298  93.3440  0.00  0.00     0.000 O
ATOM     12   S  IDS C   1      39.368  33.601  94.8150  0.00  0.00     0.000 S
ATOM     13   O  IDS C   1      40.255  34.720  94.5890  0.00  0.00     0.000 OA
ATOM     14   O  IDS C   1      40.051  32.434  95.3210  0.00  0.00     0.000 OA
ATOM     15   O  IDS C   1      38.192  33.944  95.5750  0.00  0.00     0.000 OA
ENDBRANCH 2 11
BRANCH 5 16
ATOM     16   C  IDS C   1      34.889  32.999  90.9520  0.00  0.00     0.000 C
ATOM     17   O  IDS C   1      34.951  33.556  89.8760  0.00  0.00     0.000 OA
ATOM     18   O  IDS C   1      33.903  33.097  91.6290  0.00  0.00     0.000 OA
ENDBRANCH 5 16
BRANCH 1 19
ATOM     19  O4  SGN C   2      36.864  30.187  93.4880  0.00  0.00     0.000 O
BRANCH 19 23
ATOM     20  C1  SGN C   2      35.029  27.205  95.7590  0.00  0.00     0.000 C
ATOM     21  C2  SGN C   2      34.098  28.154  94.9960  0.00  0.00     0.000 C
ATOM     22  C3  SGN C   2      34.882  28.877  93.9040  0.00  0.00     0.000 C
ATOM     23  C4  SGN C   2      36.065  29.613  94.5230  0.00  0.00     0.000 C
ATOM     24  C5  SGN C   2      36.911  28.637  95.3440  0.00  0.00     0.000 C
ATOM     25  O5  SGN C   2      36.084  27.972  96.3160  0.00  0.00     0.000 O
ATOM     26   O  SGN C   2      34.036  29.775  93.1940  0.00  0.00     0.000 O
ATOM     28  HD  SGN C   2      33.442  30.243  92.7720  0.00  0.00     0.000 HD
BRANCH 21 30
ATOM     28   N  SGN C   2      33.130  27.166  95.4890  0.00  0.00     0.000 N
ATOM     30  HD  SGN C   2      32.835  26.573  94.9310  0.00  0.00     0.000 HD
ATOM     30   S  SGN C   2      31.554  27.396  95.3270  0.00  0.00     0.000 S
ATOM     31   O  SGN C   2      31.352  27.646  93.9390  0.00  0.00     0.000 OA
ATOM     32   O  SGN C   2      30.877  26.325  95.9580  0.00  0.00     0.000 OA
ATOM     33   O  SGN C   2      31.268  28.682  96.1740  0.00  0.00     0.000 OA
ENDBRANCH 21 30
BRANCH 24 34
ATOM     34   C  SGN C   2      38.025  29.303  96.1180  0.00  0.00     0.000 C
ATOM     35   O  SGN C   2      37.759  29.173  97.5260  0.00  0.00     0.000 O
ATOM     36   S  SGN C   2      38.519  30.180  98.5040  0.00  0.00     0.000 S
ATOM     37   O  SGN C   2      38.213  31.499  97.9850  0.00  0.00     0.000 OA
ATOM     38   O  SGN C   2      37.970  29.938  99.8160  0.00  0.00     0.000 OA
ATOM     39   O  SGN C   2      39.907  29.809  98.3760  0.00  0.00     0.000 OA
ENDBRANCH 24 34
BRANCH 20 40
ATOM     40  O4  IDS C   3      35.541  26.175  95.0900  0.00  0.00     0.000 O
BRANCH 40 44
ATOM     41  C1  IDS C   3      35.939  23.068  93.4730  0.00  0.00     0.000 C
ATOM     42  C2  IDS C   3      34.595  23.500  94.0520  0.00  0.00     0.000 C
ATOM     43  C3  IDS C   3      34.757  23.931  95.5080  0.00  0.00     0.000 C
ATOM     44  C4  IDS C   3      35.898  24.922  95.6770  0.00  0.00     0.000 C
ATOM     45  C5  IDS C   3      37.174  24.375  95.0030  0.00  0.00     0.000 C
ATOM     46  O5  IDS C   3      36.905  24.104  93.6250  0.00  0.00     0.000 O
ATOM     47   O  IDS C   3      34.988  22.781  96.3180  0.00  0.00     0.000 O
ATOM     49  HD  IDS C   3      34.476  23.301  95.8520  0.00  0.00     0.000 HD
BRANCH 42 49
ATOM     49   O  IDS C   3      34.049  24.640  93.2790  0.00  0.00     0.000 O
ATOM     50   S  IDS C   3      32.737  24.435  92.3830  0.00  0.00     0.000 S
ATOM     51   O  IDS C   3      31.680  24.313  93.3620  0.00  0.00     0.000 OA
ATOM     52   O  IDS C   3      32.888  23.238  91.5720  0.00  0.00     0.000 OA
ATOM     53   O  IDS C   3      32.619  25.629  91.5730  0.00  0.00     0.000 OA
ENDBRANCH 42 49
BRANCH 45 54
ATOM     54   C  IDS C   3      38.357  25.326  95.0920  0.00  0.00     0.000 C
ATOM     55   O  IDS C   3      38.901  25.697  94.0840  0.00  0.00     0.000 OA
ATOM     56   O  IDS C   3      38.759  25.694  96.1780  0.00  0.00     0.000 OA
ENDBRANCH 45 54
BRANCH 41 57
ATOM     57  O4  SGN C   4      36.175  21.827  93.9150  0.00  0.00     0.000 O
BRANCH 57 61
ATOM     58  C1  SGN C   4      38.384  18.475  92.7280  0.00  0.00     0.000 C
ATOM     59  C2  SGN C   4      39.139  19.812  92.7920  0.00  0.00     0.000 C
ATOM     60  C3  SGN C   4      38.360  20.849  93.6140  0.00  0.00     0.000 C
ATOM     61  C4  SGN C   4      36.950  20.978  93.0630  0.00  0.00     0.000 C
ATOM     62  C5  SGN C   4      36.272  19.610  93.0000  0.00  0.00     0.000 C
ATOM     63  O5  SGN C   4      37.068  18.684  92.2360  0.00  0.00     0.000 O
BRANCH 59 66
ATOM     64   N  SGN C   4      40.484  19.447  93.2470  0.00  0.00     0.000 N
ATOM     66  HD  SGN C   4      39.757  19.881  93.0670  0.00  0.00     0.000 HD
ATOM     66   O  SGN C   4      42.915  19.434  93.0910  0.00  0.00     0.000 OA
ATOM     67   O  SGN C   4      41.554  19.204  91.0570  0.00  0.00     0.000 OA
ATOM     68   S  SGN C   4      41.768  19.945  92.4220  0.00  0.00     0.000 S
ATOM     69   O  SGN C   4      41.649  21.343  92.2120  0.00  0.00     0.000 OA
ENDBRANCH 59 66
BRANCH 62 70
ATOM     70   C  SGN C   4      34.922  19.691  92.3320  0.00  0.00     0.000 C
ATOM     71   S  SGN C   4      33.620  19.003  90.2340  0.00  0.00     0.000 S
ATOM     72   O  SGN C   4      32.512  18.590  91.0740  0.00  0.00     0.000 OA
ATOM     73   O  SGN C   4      33.550  20.394  89.8350  0.00  0.00     0.000 OA
ATOM     74   O  SGN C   4      33.885  18.096  89.1410  0.00  0.00     0.000 OA
ATOM     75   O  SGN C   4      34.903  18.868  91.1600  0.00  0.00     0.000 O
ENDBRANCH 62 70
ENDBRANCH 57 61
ENDBRANCH 41 57
ENDBRANCH 40 44
ENDBRANCH 20 40
ENDBRANCH 19 23
ENDBRANCH 1 19
TORSDOF 14
ENDMDL
MODEL 94
REMARK VINA RESULT:       0.2     10.839     16.807
ROOT
ATOM      1  C1  IDS C   1     102.352 106.102  59.3520  0.00  0.00     0.000 C
ATOM      2  C2  IDS C   1     102.712 106.107  57.8770  0.00  0.00     0.000 C
ATOM      3  C3  IDS C   1     102.140 107.338  57.1840  0.00  0.00     0.000 C
ATOM      4  C4  IDS C   1     102.510 108.616  57.9370  0.00  0.00     0.000 C
ATOM      5  C5  IDS C   1     102.188 108.465  59.4370  0.00  0.00     0.000 C
ATOM      6  O5  IDS C   1     102.818 107.303  59.9670  0.00  0.00     0.000 O
ATOM      7   O  IDS C   1     100.721 107.210  57.0820  0.00  0.00     0.000 O
ATOM      9  HD  IDS C   1     100.804 108.072  57.0870  0.00  0.00     0.000 HD
ATOM      9   O  IDS C   1     103.915 108.864  57.7740  0.00  0.00     0.000 O
ATOM     11  HD  IDS C   1     103.998 109.726  57.7780  0.00  0.00     0.000 HD
ENDROOT
BRANCH 2 11
ATOM     11   O  IDS C   1     104.183 106.140  57.7110  0.00  0.00     0.000 O
ATOM     12   S  IDS C   1     105.045 104.799  57.8240  0.00  0.00     0.000 S
ATOM     13   O  IDS C   1     106.099 105.030  56.8610  0.00  0.00     0.000 OA
ATOM     14   O  IDS C   1     104.214 103.667  57.4900  0.00  0.00     0.000 OA
ATOM     15   O  IDS C   1     105.508 104.780  59.1890  0.00  0.00     0.000 OA
ENDBRANCH 2 11
BRANCH 5 16
ATOM     16   C  IDS C   1     102.634 109.653  60.2690  0.00  0.00     0.000 C
ATOM     17   O  IDS C   1     102.776 110.727  59.7250  0.00  0.00     0.000 OA
ATOM     18   O  IDS C   1     102.860 109.533  61.4420  0.00  0.00     0.000 OA
ENDBRANCH 5 16
BRANCH 1 19
ATOM     19  O4  SGN C   2     101.135 105.691  59.7220  0.00  0.00     0.000 O
BRANCH 19 23
ATOM     20  C1  SGN C   2      98.977 103.468  62.5190  0.00  0.00     0.000 C
ATOM     21  C2  SGN C   2      99.487 104.838  62.9800  0.00  0.00     0.000 C
ATOM     22  C3  SGN C   2      99.854 105.687  61.7660  0.00  0.00     0.000 C
ATOM     23  C4  SGN C   2     100.885 104.950  60.9170  0.00  0.00     0.000 C
ATOM     24  C5  SGN C   2     100.362 103.557  60.5580  0.00  0.00     0.000 C
ATOM     25  O5  SGN C   2     100.000 102.848  61.7570  0.00  0.00     0.000 O
ATOM     26   O  SGN C   2     100.345 106.958  62.1760  0.00  0.00     0.000 O
ATOM     28  HD  SGN C   2     100.566 107.728  62.5060  0.00  0.00     0.000 HD
BRANCH 21 30
ATOM     28   N  SGN C   2      98.641 104.467  64.1220  0.00  0.00     0.000 N
ATOM     30  HD  SGN C   2      97.861 104.837  64.1860  0.00  0.00     0.000 HD
ATOM     30   S  SGN C   2      98.627 105.340  65.4620  0.00  0.00     0.000 S
ATOM     31   O  SGN C   2      98.346 106.671  65.0420  0.00  0.00     0.000 OA
ATOM     32   O  SGN C   2      97.785 104.703  66.4050  0.00  0.00     0.000 OA
ATOM     33   O  SGN C   2     100.092 105.225  66.0060  0.00  0.00     0.000 OA
ENDBRANCH 21 30
BRANCH 24 34
ATOM     34   C  SGN C   2     101.374 102.695  59.8420  0.00  0.00     0.000 C
ATOM     35   O  SGN C   2     101.726 101.586  60.6880  0.00  0.00     0.000 O
ATOM     36   S  SGN C   2     103.091 100.826  60.3580  0.00  0.00     0.000 S
ATOM     37   O  SGN C   2     104.098 101.869  60.3360  0.00  0.00     0.000 OA
ATOM     38   O  SGN C   2     103.275  99.874  61.4260  0.00  0.00     0.000 OA
ATOM     39   O  SGN C   2     102.849 100.219  59.0720  0.00  0.00     0.000 OA
ENDBRANCH 24 34
BRANCH 20 40
ATOM     40  O4  IDS C   3      97.838 103.435  61.8310  0.00  0.00     0.000 O
BRANCH 40 44
ATOM     41  C1  IDS C   3      94.420 103.477  60.9690  0.00  0.00     0.000 C
ATOM     42  C2  IDS C   3      94.884 103.711  62.4040  0.00  0.00     0.000 C
ATOM     43  C3  IDS C   3      95.819 102.589  62.8490  0.00  0.00     0.000 C
ATOM     44  C4  IDS C   3      96.921 102.338  61.8320  0.00  0.00     0.000 C
ATOM     45  C5  IDS C   3      96.309 102.170  60.4250  0.00  0.00     0.000 C
ATOM     46  O5  IDS C   3      95.539 103.329  60.0990  0.00  0.00     0.000 O
ATOM     47   O  IDS C   3      95.065 101.396  63.0520  0.00  0.00     0.000 O
ATOM     49  HD  IDS C   3      95.327 102.188  63.2860  0.00  0.00     0.000 HD
BRANCH 42 49
ATOM     49   O  IDS C   3      95.609 104.999  62.5020  0.00  0.00     0.000 O
ATOM     50   S  IDS C   3      94.960 106.215  63.3170  0.00  0.00     0.000 S
ATOM     51   O  IDS C   3      95.079 105.794  64.6960  0.00  0.00     0.000 OA
ATOM     52   O  IDS C   3      93.577 106.389  62.9050  0.00  0.00     0.000 OA
ATOM     53   O  IDS C   3      95.768 107.376  63.0110  0.00  0.00     0.000 OA
ENDBRANCH 42 49
BRANCH 45 54
ATOM     54   C  IDS C   3      97.350 101.954  59.3370  0.00  0.00     0.000 C
ATOM     55   O  IDS C   3      98.112 101.025  59.4170  0.00  0.00     0.000 OA
ATOM     56   O  IDS C   3      97.420 102.728  58.4020  0.00  0.00     0.000 OA
ENDBRANCH 45 54
BRANCH 41 57
ATOM     57  O4  SGN C   4      93.450 102.556  61.0160  0.00  0.00     0.000 O
BRANCH 57 61
ATOM     58  C1  SGN C   4      90.130 101.422  58.7320  0.00  0.00     0.000 C
ATOM     59  C2  SGN C   4      91.469 101.551  57.9880  0.00  0.00     0.000 C
ATOM     60  C3  SGN C   4      92.649 101.561  58.9690  0.00  0.00     0.000 C
ATOM     61  C4  SGN C   4      92.433 102.643  60.0140  0.00  0.00     0.000 C
ATOM     62  C5  SGN C   4      91.073 102.470  60.6900  0.00  0.00     0.000 C
ATOM     63  O5  SGN C   4      90.018 102.446  59.7100  0.00  0.00     0.000 O
BRANCH 59 66
ATOM     64   N  SGN C   4      91.430 100.489  56.9780  0.00  0.00     0.000 N
ATOM     66  HD  SGN C   4      91.695 101.097  57.5350  0.00  0.00     0.000 HD
ATOM     66   O  SGN C   4      91.596  99.626  54.7060  0.00  0.00     0.000 OA
ATOM     67   O  SGN C   4      90.498 101.786  55.1210  0.00  0.00     0.000 OA
ATOM     68   S  SGN C   4      91.709 100.842  55.4380  0.00  0.00     0.000 S
ATOM     69   O  SGN C   4      92.911 101.591  55.3610  0.00  0.00     0.000 OA
ENDBRANCH 59 66
BRANCH 62 70
ATOM     70   C  SGN C   4      90.776 103.608  61.6350  0.00  0.00     0.000 C
ATOM     71   S  SGN C   4      89.233 105.619  62.0120  0.00  0.00     0.000 S
ATOM     72   O  SGN C   4      89.074 105.219  63.3970  0.00  0.00     0.000 OA
ATOM     73   O  SGN C   4      90.357 106.507  61.7960  0.00  0.00     0.000 OA
ATOM     74   O  SGN C   4      88.006 106.071  61.3980  0.00  0.00     0.000 OA
ATOM     75   O  SGN C   4      89.572 104.274  61.2390  0.00  0.00     0.000 O
ENDBRANCH 62 70
ENDBRANCH 57 61
ENDBRANCH 41 57
ENDBRANCH 40 44
ENDBRANCH 20 40
ENDBRANCH 19 23
ENDBRANCH 1 19
TORSDOF 14
ENDMDL
MODEL 95
REMARK VINA RESULT:       0.2    101.630    106.268
ROOT
ATOM      1  C1  IDS C   1      84.574  25.376  14.3180  0.00  0.00     0.000 C
ATOM      2  C2  IDS C   1      84.832  25.813  15.7490  0.00  0.00     0.000 C
ATOM      3  C3  IDS C   1      84.165  24.861  16.7340  0.00  0.00     0.000 C
ATOM      4  C4  IDS C   1      84.533  23.408  16.4330  0.00  0.00     0.000 C
ATOM      5  C5  IDS C   1      84.320  23.103  14.9370  0.00  0.00     0.000 C
ATOM      6  O5  IDS C   1      85.031  24.037  14.1320  0.00  0.00     0.000 O
ATOM      7   O  IDS C   1      82.749  25.039  16.6830  0.00  0.00     0.000 O
ATOM      9  HD  IDS C   1      82.797  24.215  16.9450  0.00  0.00     0.000 HD
ATOM      9   O  IDS C   1      85.912  23.196  16.7710  0.00  0.00     0.000 O
ATOM     11  HD  IDS C   1      85.961  22.372  17.0330  0.00  0.00     0.000 HD
ENDROOT
BRANCH 2 11
ATOM     11   O  IDS C   1      86.286  25.806  16.0300  0.00  0.00     0.000 O
ATOM     12   S  IDS C   1      87.208  27.030  15.5790  0.00  0.00     0.000 S
ATOM     13   O  IDS C   1      88.184  27.087  16.6450  0.00  0.00     0.000 OA
ATOM     14   O  IDS C   1      86.405  28.225  15.4860  0.00  0.00     0.000 OA
ATOM     15   O  IDS C   1      87.763  26.618  14.3140  0.00  0.00     0.000 OA
ENDBRANCH 2 11
BRANCH 5 16
ATOM     16   C  IDS C   1      84.774  21.710  14.5380  0.00  0.00     0.000 C
ATOM     17   O  IDS C   1      85.955  21.511  14.3530  0.00  0.00     0.000 OA
ATOM     18   O  IDS C   1      83.979  20.823  14.3920  0.00  0.00     0.000 OA
ENDBRANCH 5 16
BRANCH 1 19
ATOM     19  O4  SGN C   2      83.403  25.678  13.7490  0.00  0.00     0.000 O
BRANCH 19 23
ATOM     20  C1  SGN C   2      81.536  27.004  10.2590  0.00  0.00     0.000 C
ATOM     21  C2  SGN C   2      82.005  25.544  10.2720  0.00  0.00     0.000 C
ATOM     22  C3  SGN C   2      82.253  25.095  11.7100  0.00  0.00     0.000 C
ATOM     23  C4  SGN C   2      83.264  26.026  12.3710  0.00  0.00     0.000 C
ATOM     24  C5  SGN C   2      82.790  27.477  12.2520  0.00  0.00     0.000 C
ATOM     25  O5  SGN C   2      82.540  27.797  10.8720  0.00  0.00     0.000 O
ATOM     26   O  SGN C   2      82.705  23.746  11.7400  0.00  0.00     0.000 O
ATOM     28  HD  SGN C   2      82.907  22.907  11.6760  0.00  0.00     0.000 HD
BRANCH 21 30
ATOM     28   N  SGN C   2      81.252  25.574   9.0120  0.00  0.00     0.000 N
ATOM     30  HD  SGN C   2      80.459  25.225   9.0040  0.00  0.00     0.000 HD
ATOM     30   S  SGN C   2      81.278  24.335   8.0000  0.00  0.00     0.000 S
ATOM     31   O  SGN C   2      80.903  23.204   8.7810  0.00  0.00     0.000 OA
ATOM     32   O  SGN C   2      80.529  24.678   6.8490  0.00  0.00     0.000 OA
ATOM     33   O  SGN C   2      82.777  24.236   7.5590  0.00  0.00     0.000 OA
ENDBRANCH 21 30
BRANCH 24 34
ATOM     34   C  SGN C   2      83.798  28.487  12.7480  0.00  0.00     0.000 C
ATOM     35   O  SGN C   2      84.251  29.280  11.6370  0.00  0.00     0.000 O
ATOM     36   S  SGN C   2      85.628  30.066  11.8200  0.00  0.00     0.000 S
ATOM     37   O  SGN C   2      86.582  29.052  12.2230  0.00  0.00     0.000 OA
ATOM     38   O  SGN C   2      85.919  30.648  10.5320  0.00  0.00     0.000 OA
ATOM     39   O  SGN C   2      85.339  31.039  12.8460  0.00  0.00     0.000 OA
ENDBRANCH 24 34
BRANCH 20 40
ATOM     40  O4  IDS C   3      80.360  27.277  10.8170  0.00  0.00     0.000 O
BRANCH 40 44
ATOM     41  C1  IDS C   3      76.898  27.600  11.3990  0.00  0.00     0.000 C
ATOM     42  C2  IDS C   3      77.436  26.927  10.1410  0.00  0.00     0.000 C
ATOM     43  C3  IDS C   3      78.452  27.831   9.4470  0.00  0.00     0.000 C
ATOM     44  C4  IDS C   3      79.501  28.348  10.4180  0.00  0.00     0.000 C
ATOM     45  C5  IDS C   3      78.814  28.955  11.6590  0.00  0.00     0.000 C
ATOM     46  O5  IDS C   3      77.968  27.974  12.2630  0.00  0.00     0.000 O
ATOM     47   O  IDS C   3      77.772  28.926   8.8380  0.00  0.00     0.000 O
ATOM     49  HD  IDS C   3      78.007  28.093   8.8740  0.00  0.00     0.000 HD
BRANCH 42 49
ATOM     49   O  IDS C   3      78.100  25.649  10.4900  0.00  0.00     0.000 O
ATOM     50   S  IDS C   3      77.444  24.262  10.0320  0.00  0.00     0.000 S
ATOM     51   O  IDS C   3      77.672  24.240   8.6040  0.00  0.00     0.000 OA
ATOM     52   O  IDS C   3      76.030  24.261  10.3710  0.00  0.00     0.000 OA
ATOM     53   O  IDS C   3      78.171  23.226  10.7340  0.00  0.00     0.000 OA
ENDBRANCH 42 49
BRANCH 45 54
ATOM     54   C  IDS C   3      79.796  29.463  12.7030  0.00  0.00     0.000 C
ATOM     55   O  IDS C   3      80.605  30.302  12.4030  0.00  0.00     0.000 OA
ATOM     56   O  IDS C   3      79.772  29.008  13.8300  0.00  0.00     0.000 OA
ENDBRANCH 45 54
BRANCH 41 57
ATOM     57  O4  SGN C   4      75.980  28.492  11.0050  0.00  0.00     0.000 O
BRANCH 57 61
ATOM     58  C1  SGN C   4      72.669  30.470  12.6320  0.00  0.00     0.000 C
ATOM     59  C2  SGN C   4      73.984  30.558  13.4230  0.00  0.00     0.000 C
ATOM     60  C3  SGN C   4      75.183  30.165  12.5500  0.00  0.00     0.000 C
ATOM     61  C4  SGN C   4      74.938  28.796  11.9370  0.00  0.00     0.000 C
ATOM     62  C5  SGN C   4      73.604  28.773  11.1930  0.00  0.00     0.000 C
ATOM     63  O5  SGN C   4      72.530  29.176  12.0650  0.00  0.00     0.000 O
BRANCH 59 66
ATOM     64   N  SGN C   4      73.970  31.905  14.0020  0.00  0.00     0.000 N
ATOM     66  HD  SGN C   4      74.219  31.134  13.6980  0.00  0.00     0.000 HD
ATOM     66   O  SGN C   4      74.132  33.497  15.8390  0.00  0.00     0.000 OA
ATOM     67   O  SGN C   4      72.959  31.361  16.1660  0.00  0.00     0.000 OA
ATOM     68   S  SGN C   4      74.210  32.100  15.5770  0.00  0.00     0.000 S
ATOM     69   O  SGN C   4      75.381  31.387  15.9420  0.00  0.00     0.000 OA
ENDBRANCH 59 66
BRANCH 62 70
ATOM     70   C  SGN C   4      73.274  27.391  10.6900  0.00  0.00     0.000 C
ATOM     71   S  SGN C   4      71.720  25.385  11.0560  0.00  0.00     0.000 S
ATOM     72   O  SGN C   4      71.509  25.305   9.6240  0.00  0.00     0.000 OA
ATOM     73   O  SGN C   4      72.852  24.606  11.5130  0.00  0.00     0.000 OA
ATOM     74   O  SGN C   4      70.517  25.175  11.8290  0.00  0.00     0.000 OA
ATOM     75   O  SGN C   4      72.086  26.906  11.3270  0.00  0.00     0.000 O
ENDBRANCH 62 70
ENDBRANCH 57 61
ENDBRANCH 41 57
ENDBRANCH 40 44
ENDBRANCH 20 40
ENDBRANCH 19 23
ENDBRANCH 1 19
TORSDOF 14
ENDMDL
MODEL 96
REMARK VINA RESULT:       0.2    104.917    111.623
ROOT
ATOM      1  C1  IDS C   1      37.163  32.210  94.9220  0.00  0.00     0.000 C
ATOM      2  C2  IDS C   1      38.533  32.632  94.4210  0.00  0.00     0.000 C
ATOM      3  C3  IDS C   1      38.588  32.592  92.8990  0.00  0.00     0.000 C
ATOM      4  C4  IDS C   1      37.418  33.360  92.2840  0.00  0.00     0.000 C
ATOM      5  C5  IDS C   1      36.090  32.918  92.9320  0.00  0.00     0.000 C
ATOM      6  O5  IDS C   1      36.160  33.046  94.3480  0.00  0.00     0.000 O
ATOM      7   O  IDS C   1      38.582  31.233  92.4580  0.00  0.00     0.000 O
ATOM      9  HD  IDS C   1      38.229  31.626  91.7710  0.00  0.00     0.000 HD
ATOM      9   O  IDS C   1      37.613  34.765  92.5080  0.00  0.00     0.000 O
ATOM     11  HD  IDS C   1      37.261  35.158  91.8210  0.00  0.00     0.000 HD
ENDROOT
BRANCH 2 11
ATOM     11   O  IDS C   1      38.827  34.019  94.8460  0.00  0.00     0.000 O
ATOM     12   S  IDS C   1      39.400  34.318  96.3070  0.00  0.00     0.000 S
ATOM     13   O  IDS C   1      40.276  35.444  96.0680  0.00  0.00     0.000 OA
ATOM     14   O  IDS C   1      40.100  33.154  96.7940  0.00  0.00     0.000 OA
ATOM     15   O  IDS C   1      38.238  34.652  97.0910  0.00  0.00     0.000 OA
ENDBRANCH 2 11
BRANCH 5 16
ATOM     16   C  IDS C   1      34.894  33.720  92.4530  0.00  0.00     0.000 C
ATOM     17   O  IDS C   1      34.955  34.275  91.3760  0.00  0.00     0.000 OA
ATOM     18   O  IDS C   1      33.909  33.820  93.1310  0.00  0.00     0.000 OA
ENDBRANCH 5 16
BRANCH 1 19
ATOM     19  O4  SGN C   2      36.869  30.908  94.9890  0.00  0.00     0.000 O
BRANCH 19 23
ATOM     20  C1  SGN C   2      35.008  27.932  97.2480  0.00  0.00     0.000 C
ATOM     21  C2  SGN C   2      34.086  28.871  96.4620  0.00  0.00     0.000 C
ATOM     22  C3  SGN C   2      34.886  29.591  95.3790  0.00  0.00     0.000 C
ATOM     23  C4  SGN C   2      36.054  30.337  96.0140  0.00  0.00     0.000 C
ATOM     24  C5  SGN C   2      36.891  29.371  96.8570  0.00  0.00     0.000 C
ATOM     25  O5  SGN C   2      36.050  28.707  97.8180  0.00  0.00     0.000 O
ATOM     26   O  SGN C   2      34.049  30.480  94.6480  0.00  0.00     0.000 O
ATOM     28  HD  SGN C   2      33.461  30.942  94.2120  0.00  0.00     0.000 HD
BRANCH 21 30
ATOM     28   N  SGN C   2      32.823  28.435  95.8540  0.00  0.00     0.000 N
ATOM     30  HD  SGN C   2      32.223  29.037  95.6880  0.00  0.00     0.000 HD
ATOM     30   S  SGN C   2      31.541  28.102  96.7520  0.00  0.00     0.000 S
ATOM     31   O  SGN C   2      31.337  29.258  97.5590  0.00  0.00     0.000 OA
ATOM     32   O  SGN C   2      30.506  27.639  95.9050  0.00  0.00     0.000 OA
ATOM     33   O  SGN C   2      31.997  26.885  97.6270  0.00  0.00     0.000 OA
ENDBRANCH 21 30
BRANCH 24 34
ATOM     34   C  SGN C   2      37.988  30.047  97.6460  0.00  0.00     0.000 C
ATOM     35   O  SGN C   2      37.691  29.935  99.0490  0.00  0.00     0.000 O
ATOM     36   S  SGN C   2      38.430  30.955 100.0300  0.00  0.00     0.000 S
ATOM     37   O  SGN C   2      38.135  32.267  99.4870  0.00  0.00     0.000 OA
ATOM     38   O  SGN C   2      37.852  30.730 101.3330  0.00  0.00     0.000 OA
ATOM     39   O  SGN C   2      39.820  30.583  99.9370  0.00  0.00     0.000 OA
ENDBRANCH 24 34
BRANCH 20 40
ATOM     40  O4  IDS C   3      35.537  26.900  96.5950  0.00  0.00     0.000 O
BRANCH 40 44
ATOM     41  C1  IDS C   3      35.653  23.661  95.2080  0.00  0.00     0.000 C
ATOM     42  C2  IDS C   3      34.434  24.155  95.9800  0.00  0.00     0.000 C
ATOM     43  C3  IDS C   3      34.854  24.708  97.3400  0.00  0.00     0.000 C
ATOM     44  C4  IDS C   3      36.002  25.698  97.2150  0.00  0.00     0.000 C
ATOM     45  C5  IDS C   3      37.137  25.082  96.3710  0.00  0.00     0.000 C
ATOM     46  O5  IDS C   3      36.626  24.696  95.0930  0.00  0.00     0.000 O
ATOM     47   O  IDS C   3      35.234  23.630  98.1920  0.00  0.00     0.000 O
ATOM     49  HD  IDS C   3      34.643  24.113  97.7820  0.00  0.00     0.000 HD
BRANCH 42 49
ATOM     49   O  IDS C   3      33.751  25.230  95.2220  0.00  0.00     0.000 O
ATOM     50   S  IDS C   3      32.485  24.874  94.3070  0.00  0.00     0.000 S
ATOM     51   O  IDS C   3      31.444  24.595  95.2720  0.00  0.00     0.000 OA
ATOM     52   O  IDS C   3      32.798  23.724  93.4760  0.00  0.00     0.000 OA
ATOM     53   O  IDS C   3      32.220  26.059  93.5190  0.00  0.00     0.000 OA
ENDBRANCH 42 49
BRANCH 45 54
ATOM     54   C  IDS C   3      38.312  26.025  96.1620  0.00  0.00     0.000 C
ATOM     55   O  IDS C   3      38.678  26.284  95.0450  0.00  0.00     0.000 OA
ATOM     56   O  IDS C   3      38.887  26.500  97.1220  0.00  0.00     0.000 OA
ENDBRANCH 45 54
BRANCH 41 57
ATOM     57  O4  SGN C   4      35.973  22.460  95.7060  0.00  0.00     0.000 O
BRANCH 57 61
ATOM     58  C1  SGN C   4      37.721  18.905  94.3530  0.00  0.00     0.000 C
ATOM     59  C2  SGN C   4      38.479  20.207  94.0500  0.00  0.00     0.000 C
ATOM     60  C3  SGN C   4      37.974  21.360  94.9280  0.00  0.00     0.000 C
ATOM     61  C4  SGN C   4      36.468  21.491  94.7780  0.00  0.00     0.000 C
ATOM     62  C5  SGN C   4      35.783  20.155  95.0650  0.00  0.00     0.000 C
ATOM     63  O5  SGN C   4      36.323  19.118  94.2240  0.00  0.00     0.000 O
BRANCH 59 66
ATOM     64   N  SGN C   4      39.892  19.827  94.1500  0.00  0.00     0.000 N
ATOM     66  HD  SGN C   4      39.151  20.274  94.1370  0.00  0.00     0.000 HD
ATOM     66   O  SGN C   4      42.184  19.698  93.3350  0.00  0.00     0.000 OA
ATOM     67   O  SGN C   4      40.308  19.347  91.7850  0.00  0.00     0.000 OA
ATOM     68   S  SGN C   4      40.904  20.196  92.9610  0.00  0.00     0.000 S
ATOM     69   O  SGN C   4      40.754  21.574  92.6570  0.00  0.00     0.000 OA
ENDBRANCH 59 66
BRANCH 62 70
ATOM     70   C  SGN C   4      34.301  20.222  94.7920  0.00  0.00     0.000 C
ATOM     71   S  SGN C   4      31.995  19.932  95.8740  0.00  0.00     0.000 S
ATOM     72   O  SGN C   4      31.559  21.161  95.2410  0.00  0.00     0.000 OA
ATOM     73   O  SGN C   4      31.773  18.756  95.0570  0.00  0.00     0.000 OA
ATOM     74   O  SGN C   4      31.537  19.789  97.2370  0.00  0.00     0.000 OA
ATOM     75   O  SGN C   4      33.570  20.085  96.0160  0.00  0.00     0.000 O
ENDBRANCH 62 70
ENDBRANCH 57 61
ENDBRANCH 41 57
ENDBRANCH 40 44
ENDBRANCH 20 40
ENDBRANCH 19 23
ENDBRANCH 1 19
TORSDOF 14
ENDMDL
MODEL 97
REMARK VINA RESULT:       0.2     81.417     85.789
ROOT
ATOM      1  C1  IDS C   1      69.825  38.600  91.5020  0.00  0.00     0.000 C
ATOM      2  C2  IDS C   1      70.495  39.791  92.1650  0.00  0.00     0.000 C
ATOM      3  C3  IDS C   1      70.081  39.898  93.6280  0.00  0.00     0.000 C
ATOM      4  C4  IDS C   1      70.275  38.568  94.3560  0.00  0.00     0.000 C
ATOM      5  C5  IDS C   1      69.637  37.420  93.5480  0.00  0.00     0.000 C
ATOM      6  O5  IDS C   1      70.142  37.407  92.2170  0.00  0.00     0.000 O
ATOM      7   O  IDS C   1      68.718  40.318  93.7070  0.00  0.00     0.000 O
ATOM      9  HD  IDS C   1      68.795  39.882  94.4520  0.00  0.00     0.000 HD
ATOM      9   O  IDS C   1      71.681  38.320  94.5080  0.00  0.00     0.000 O
ATOM     11  HD  IDS C   1      71.758  37.884  95.2520  0.00  0.00     0.000 HD
ENDROOT
BRANCH 2 11
ATOM     11   O  IDS C   1      71.966  39.636  92.1240  0.00  0.00     0.000 O
ATOM     12   S  IDS C   1      72.798  40.100  90.8410  0.00  0.00     0.000 S
ATOM     13   O  IDS C   1      74.031  40.574  91.4290  0.00  0.00     0.000 OA
ATOM     14   O  IDS C   1      72.069  41.135  90.1470  0.00  0.00     0.000 OA
ATOM     15   O  IDS C   1      72.958  38.899  90.0590  0.00  0.00     0.000 OA
ENDBRANCH 2 11
BRANCH 5 16
ATOM     16   C  IDS C   1      69.889  36.050  94.1510  0.00  0.00     0.000 C
ATOM     17   O  IDS C   1      69.775  35.070  93.4460  0.00  0.00     0.000 OA
ATOM     18   O  IDS C   1      70.181  35.932  95.3090  0.00  0.00     0.000 OA
ENDBRANCH 5 16
BRANCH 1 19
ATOM     19  O4  SGN C   2      68.559  38.715  91.0900  0.00  0.00     0.000 O
BRANCH 19 23
ATOM     20  C1  SGN C   2      65.922  38.068  87.9190  0.00  0.00     0.000 C
ATOM     21  C2  SGN C   2      66.325  36.835  88.7370  0.00  0.00     0.000 C
ATOM     22  C3  SGN C   2      66.911  37.274  90.0770  0.00  0.00     0.000 C
ATOM     23  C4  SGN C   2      68.090  38.211  89.8380  0.00  0.00     0.000 C
ATOM     24  C5  SGN C   2      67.655  39.376  88.9450  0.00  0.00     0.000 C
ATOM     25  O5  SGN C   2      67.077  38.870  87.7290  0.00  0.00     0.000 O
ATOM     26   O  SGN C   2      67.304  36.142  90.8430  0.00  0.00     0.000 O
ATOM     28  HD  SGN C   2      67.452  35.403  91.2700  0.00  0.00     0.000 HD
BRANCH 21 30
ATOM     28   N  SGN C   2      65.428  35.704  89.0100  0.00  0.00     0.000 N
ATOM     30  HD  SGN C   2      65.787  34.937  89.1910  0.00  0.00     0.000 HD
ATOM     30   S  SGN C   2      65.002  34.685  87.8520  0.00  0.00     0.000 S
ATOM     31   O  SGN C   2      66.226  34.229  87.2830  0.00  0.00     0.000 OA
ATOM     32   O  SGN C   2      64.082  33.754  88.3890  0.00  0.00     0.000 OA
ATOM     33   O  SGN C   2      64.212  35.576  86.8340  0.00  0.00     0.000 OA
ENDBRANCH 21 30
BRANCH 24 34
ATOM     34   C  SGN C   2      68.793  40.280  88.5320  0.00  0.00     0.000 C
ATOM     35   O  SGN C   2      68.881  40.294  87.0960  0.00  0.00     0.000 O
ATOM     36   S  SGN C   2      70.262  40.780  86.4590  0.00  0.00     0.000 S
ATOM     37   O  SGN C   2      71.270  39.948  87.0850  0.00  0.00     0.000 OA
ATOM     38   O  SGN C   2      70.135  40.558  85.0390  0.00  0.00     0.000 OA
ATOM     39   O  SGN C   2      70.342  42.173  86.8250  0.00  0.00     0.000 OA
ENDBRANCH 24 34
BRANCH 20 40
ATOM     40  O4  IDS C   3      64.936  38.826  88.3920  0.00  0.00     0.000 O
BRANCH 40 44
ATOM     41  C1  IDS C   3      61.603  39.799  89.0040  0.00  0.00     0.000 C
ATOM     42  C2  IDS C   3      61.934  38.553  88.1870  0.00  0.00     0.000 C
ATOM     43  C3  IDS C   3      62.917  38.896  87.0700  0.00  0.00     0.000 C
ATOM     44  C4  IDS C   3      64.112  39.678  87.5930  0.00  0.00     0.000 C
ATOM     45  C5  IDS C   3      63.627  40.875  88.4380  0.00  0.00     0.000 C
ATOM     46  O5  IDS C   3      62.795  40.402  89.5000  0.00  0.00     0.000 O
ATOM     47   O  IDS C   3      62.246  39.649  86.0630  0.00  0.00     0.000 O
ATOM     49  HD  IDS C   3      62.425  38.910  86.4770  0.00  0.00     0.000 HD
BRANCH 42 49
ATOM     49   O  IDS C   3      62.544  37.521  89.0560  0.00  0.00     0.000 O
ATOM     50   S  IDS C   3      61.635  36.340  89.6450  0.00  0.00     0.000 S
ATOM     51   O  IDS C   3      61.366  35.517  88.4870  0.00  0.00     0.000 OA
ATOM     52   O  IDS C   3      60.426  36.904  90.2220  0.00  0.00     0.000 OA
ATOM     53   O  IDS C   3      62.448  35.669  90.6370  0.00  0.00     0.000 OA
ENDBRANCH 42 49
BRANCH 45 54
ATOM     54   C  IDS C   3      64.764  41.691  89.0340  0.00  0.00     0.000 C
ATOM     55   O  IDS C   3      65.583  42.191  88.3080  0.00  0.00     0.000 OA
ATOM     56   O  IDS C   3      64.850  41.820  90.2400  0.00  0.00     0.000 OA
ENDBRANCH 45 54
BRANCH 41 57
ATOM     57  O4  SGN C   4      60.709  40.503  88.3000  0.00  0.00     0.000 O
BRANCH 57 61
ATOM     58  C1  SGN C   4      57.447  43.015  89.0590  0.00  0.00     0.000 C
ATOM     59  C2  SGN C   4      58.751  43.329  89.8110  0.00  0.00     0.000 C
ATOM     60  C3  SGN C   4      59.949  42.626  89.1590  0.00  0.00     0.000 C
ATOM     61  C4  SGN C   4      59.663  41.138  89.0420  0.00  0.00     0.000 C
ATOM     62  C5  SGN C   4      58.342  40.903  88.3120  0.00  0.00     0.000 C
ATOM     63  O5  SGN C   4      57.270  41.610  88.9630  0.00  0.00     0.000 O
BRANCH 59 66
ATOM     64   N  SGN C   4      58.779  44.793  89.8960  0.00  0.00     0.000 N
ATOM     66  HD  SGN C   4      59.004  43.957  89.8810  0.00  0.00     0.000 HD
ATOM     66   O  SGN C   4      58.968  46.910  91.0850  0.00  0.00     0.000 OA
ATOM     67   O  SGN C   4      57.705  45.051  92.0820  0.00  0.00     0.000 OA
ATOM     68   S  SGN C   4      58.996  45.506  91.3160  0.00  0.00     0.000 S
ATOM     69   O  SGN C   4      60.131  44.926  91.9390  0.00  0.00     0.000 OA
ENDBRANCH 59 66
BRANCH 62 70
ATOM     70   C  SGN C   4      57.969  39.442  88.3010  0.00  0.00     0.000 C
ATOM     71   S  SGN C   4      57.492  37.452  86.7550  0.00  0.00     0.000 S
ATOM     72   O  SGN C   4      58.323  36.616  87.5980  0.00  0.00     0.000 OA
ATOM     73   O  SGN C   4      56.103  37.481  87.1670  0.00  0.00     0.000 OA
ATOM     74   O  SGN C   4      57.676  37.213  85.3420  0.00  0.00     0.000 OA
ATOM     75   O  SGN C   4      58.050  38.924  86.9670  0.00  0.00     0.000 O
ENDBRANCH 62 70
ENDBRANCH 57 61
ENDBRANCH 41 57
ENDBRANCH 40 44
ENDBRANCH 20 40
ENDBRANCH 19 23
ENDBRANCH 1 19
TORSDOF 14
ENDMDL
MODEL 98
REMARK VINA RESULT:       0.2     80.375     84.636
ROOT
ATOM      1  C1  IDS C   1      31.821  89.052 108.8810  0.00  0.00     0.000 C
ATOM      2  C2  IDS C   1      33.201  89.316 108.3050  0.00  0.00     0.000 C
ATOM      3  C3  IDS C   1      33.299  90.737 107.7640  0.00  0.00     0.000 C
ATOM      4  C4  IDS C   1      32.836  91.756 108.8040  0.00  0.00     0.000 C
ATOM      5  C5  IDS C   1      31.471  91.340 109.3890  0.00  0.00     0.000 C
ATOM      6  O5  IDS C   1      31.531  90.012 109.8970  0.00  0.00     0.000 O
ATOM      7   O  IDS C   1      32.519  90.848 106.5730  0.00  0.00     0.000 O
ATOM      9  HD  IDS C   1      32.499  91.667 106.8540  0.00  0.00     0.000 HD
ATOM      9   O  IDS C   1      33.807  91.820 109.8600  0.00  0.00     0.000 O
ATOM     11  HD  IDS C   1      33.787  92.639 110.1410  0.00  0.00     0.000 HD
ENDROOT
BRANCH 2 11
ATOM     11   O  IDS C   1      34.232  89.163 109.3560  0.00  0.00     0.000 O
ATOM     12   S  IDS C   1      35.129  87.843 109.4300  0.00  0.00     0.000 S
ATOM     13   O  IDS C   1      36.397  88.360 109.8970  0.00  0.00     0.000 OA
ATOM     14   O  IDS C   1      35.212  87.246 108.1190  0.00  0.00     0.000 OA
ATOM     15   O  IDS C   1      34.462  87.003 110.3940  0.00  0.00     0.000 OA
ENDBRANCH 2 11
BRANCH 5 16
ATOM     16   C  IDS C   1      30.999  92.244 110.5130  0.00  0.00     0.000 C
ATOM     17   O  IDS C   1      31.739  92.442 111.4540  0.00  0.00     0.000 OA
ATOM     18   O  IDS C   1      29.908  92.744 110.4840  0.00  0.00     0.000 OA
ENDBRANCH 5 16
BRANCH 1 19
ATOM     19  O4  SGN C   2      30.817  88.759 108.0510  0.00  0.00     0.000 O
BRANCH 19 23
ATOM     20  C1  SGN C   2      27.176  86.755 107.6570  0.00  0.00     0.000 C
ATOM     21  C2  SGN C   2      27.152  88.070 108.4450  0.00  0.00     0.000 C
ATOM     22  C3  SGN C   2      28.409  88.879 108.1370  0.00  0.00     0.000 C
ATOM     23  C4  SGN C   2      29.646  88.046 108.4530  0.00  0.00     0.000 C
ATOM     24  C5  SGN C   2      29.576  86.710 107.7090  0.00  0.00     0.000 C
ATOM     25  O5  SGN C   2      28.343  86.039 108.0250  0.00  0.00     0.000 O
ATOM     26   O  SGN C   2      28.411  90.097 108.8730  0.00  0.00     0.000 O
ATOM     28  HD  SGN C   2      28.302  90.842 109.3020  0.00  0.00     0.000 HD
BRANCH 21 30
ATOM     28   N  SGN C   2      25.778  88.423 108.0620  0.00  0.00     0.000 N
ATOM     30  HD  SGN C   2      25.564  89.262 108.0460  0.00  0.00     0.000 HD
ATOM     30   S  SGN C   2      24.642  88.653 109.1650  0.00  0.00     0.000 S
ATOM     31   O  SGN C   2      25.178  89.623 110.0590  0.00  0.00     0.000 OA
ATOM     32   O  SGN C   2      23.417  88.903 108.5010  0.00  0.00     0.000 OA
ATOM     33   O  SGN C   2      24.508  87.260 109.8680  0.00  0.00     0.000 OA
ENDBRANCH 21 30
BRANCH 24 34
ATOM     34   C  SGN C   2      30.687  85.754 108.0750  0.00  0.00     0.000 C
ATOM     35   O  SGN C   2      31.658  85.737 107.0140  0.00  0.00     0.000 O
ATOM     36   S  SGN C   2      32.646  84.485 106.9550  0.00  0.00     0.000 S
ATOM     37   O  SGN C   2      31.774  83.327 106.9480  0.00  0.00     0.000 OA
ATOM     38   O  SGN C   2      33.401  84.642 105.7350  0.00  0.00     0.000 OA
ATOM     39   O  SGN C   2      33.442  84.612 108.1510  0.00  0.00     0.000 OA
ENDBRANCH 24 34
BRANCH 20 40
ATOM     40  O4  IDS C   3      27.110  86.833 106.3300  0.00  0.00     0.000 O
BRANCH 40 44
ATOM     41  C1  IDS C   3      26.515  87.093 102.8650  0.00  0.00     0.000 C
ATOM     42  C2  IDS C   3      25.564  87.711 103.8860  0.00  0.00     0.000 C
ATOM     43  C3  IDS C   3      25.152  86.672 104.9260  0.00  0.00     0.000 C
ATOM     44  C4  IDS C   3      26.357  85.943 105.5010  0.00  0.00     0.000 C
ATOM     45  C5  IDS C   3      27.249  85.418 104.3570  0.00  0.00     0.000 C
ATOM     46  O5  IDS C   3      27.638  86.507 103.5170  0.00  0.00     0.000 O
ATOM     47   O  IDS C   3      24.258  85.736 104.3300  0.00  0.00     0.000 O
ATOM     49  HD  IDS C   3      24.446  86.513 104.6630  0.00  0.00     0.000 HD
BRANCH 42 49
ATOM     49   O  IDS C   3      26.227  88.840 104.5810  0.00  0.00     0.000 O
ATOM     50   S  IDS C   3      25.484  90.255 104.6820  0.00  0.00     0.000 S
ATOM     51   O  IDS C   3      24.424  90.008 105.6340  0.00  0.00     0.000 OA
ATOM     52   O  IDS C   3      24.981  90.632 103.3710  0.00  0.00     0.000 OA
ATOM     53   O  IDS C   3      26.475  91.190 105.1730  0.00  0.00     0.000 OA
ENDBRANCH 42 49
BRANCH 45 54
ATOM     54   C  IDS C   3      28.501  84.708 104.8470  0.00  0.00     0.000 C
ATOM     55   O  IDS C   3      29.585  85.110 104.5110  0.00  0.00     0.000 OA
ATOM     56   O  IDS C   3      28.404  83.729 105.5600  0.00  0.00     0.000 OA
ENDBRANCH 45 54
BRANCH 41 57
ATOM     57  O4  SGN C   4      25.764  86.391 102.0070  0.00  0.00     0.000 O
BRANCH 57 61
ATOM     58  C1  SGN C   4      26.187  84.670  98.2140  0.00  0.00     0.000 C
ATOM     59  C2  SGN C   4      27.298  84.373  99.2350  0.00  0.00     0.000 C
ATOM     60  C3  SGN C   4      26.838  84.699 100.6630  0.00  0.00     0.000 C
ATOM     61  C4  SGN C   4      26.333  86.131 100.7200  0.00  0.00     0.000 C
ATOM     62  C5  SGN C   4      25.256  86.362  99.6610  0.00  0.00     0.000 C
ATOM     63  O5  SGN C   4      25.748  86.013  98.3530  0.00  0.00     0.000 O
BRANCH 59 66
ATOM     64   N  SGN C   4      27.710  83.043  98.7780  0.00  0.00     0.000 N
ATOM     66  HD  SGN C   4      27.483  83.720  99.2670  0.00  0.00     0.000 HD
ATOM     66   O  SGN C   4      29.327  81.253  98.4370  0.00  0.00     0.000 OA
ATOM     67   O  SGN C   4      29.992  83.592  98.0750  0.00  0.00     0.000 OA
ATOM     68   S  SGN C   4      29.228  82.564  98.9810  0.00  0.00     0.000 S
ATOM     69   O  SGN C   4      29.590  82.786 100.3350  0.00  0.00     0.000 OA
ENDBRANCH 59 66
BRANCH 62 70
ATOM     70   C  SGN C   4      24.834  87.808  99.6060  0.00  0.00     0.000 C
ATOM     71   S  SGN C   4      22.794  89.350  99.4180  0.00  0.00     0.000 S
ATOM     72   O  SGN C   4      23.334  90.171 100.4840  0.00  0.00     0.000 OA
ATOM     73   O  SGN C   4      23.238  89.756  98.1000  0.00  0.00     0.000 OA
ATOM     74   O  SGN C   4      21.367  89.143  99.5150  0.00  0.00     0.000 OA
ATOM     75   O  SGN C   4      23.406  87.906  99.6690  0.00  0.00     0.000 O
ENDBRANCH 62 70
ENDBRANCH 57 61
ENDBRANCH 41 57
ENDBRANCH 40 44
ENDBRANCH 20 40
ENDBRANCH 19 23
ENDBRANCH 1 19
TORSDOF 14
ENDMDL
MODEL 99
REMARK VINA RESULT:       0.2     76.170     83.250
ROOT
ATOM      1  C1  IDS C   1      35.712  93.177 109.8070  0.00  0.00     0.000 C
ATOM      2  C2  IDS C   1      35.759  93.732 108.3940  0.00  0.00     0.000 C
ATOM      3  C3  IDS C   1      34.523  94.575 108.1030  0.00  0.00     0.000 C
ATOM      4  C4  IDS C   1      34.299  95.621 109.1940  0.00  0.00     0.000 C
ATOM      5  C5  IDS C   1      34.364  94.963 110.5870  0.00  0.00     0.000 C
ATOM      6  O5  IDS C   1      35.585  94.247 110.7420  0.00  0.00     0.000 O
ATOM      7   O  IDS C   1      33.383  93.722 107.9850  0.00  0.00     0.000 O
ATOM      9  HD  IDS C   1      33.007  94.458 108.2430  0.00  0.00     0.000 HD
ATOM      9   O  IDS C   1      35.319  96.626 109.0940  0.00  0.00     0.000 O
ATOM     11  HD  IDS C   1      34.943  97.362 109.3520  0.00  0.00     0.000 HD
ENDROOT
BRANCH 2 11
ATOM     11   O  IDS C   1      36.945  94.602 108.2270  0.00  0.00     0.000 O
ATOM     12   S  IDS C   1      37.964  94.365 107.0180  0.00  0.00     0.000 S
ATOM     13   O  IDS C   1      38.379  95.713 106.6990  0.00  0.00     0.000 OA
ATOM     14   O  IDS C   1      37.272  93.715 105.9310  0.00  0.00     0.000 OA
ATOM     15   O  IDS C   1      39.017  93.559 107.5830  0.00  0.00     0.000 OA
ENDBRANCH 2 11
BRANCH 5 16
ATOM     16   C  IDS C   1      34.264  95.960 111.7270  0.00  0.00     0.000 C
ATOM     17   O  IDS C   1      34.407  95.564 112.8640  0.00  0.00     0.000 OA
ATOM     18   O  IDS C   1      34.032  97.118 111.5130  0.00  0.00     0.000 OA
ENDBRANCH 5 16
BRANCH 1 19
ATOM     19  O4  SGN C   2      34.970  92.094 110.0530  0.00  0.00     0.000 O
BRANCH 19 23
ATOM     20  C1  SGN C   2      34.590  88.647 112.3780  0.00  0.00     0.000 C
ATOM     21  C2  SGN C   2      34.456  89.987 113.1120  0.00  0.00     0.000 C
ATOM     22  C3  SGN C   2      34.182  91.101 112.1060  0.00  0.00     0.000 C
ATOM     23  C4  SGN C   2      35.290  91.132 111.0600  0.00  0.00     0.000 C
ATOM     24  C5  SGN C   2      35.440  89.749 110.4200  0.00  0.00     0.000 C
ATOM     25  O5  SGN C   2      35.651  88.759 111.4430  0.00  0.00     0.000 O
ATOM     26   O  SGN C   2      34.070  92.355 112.7700  0.00  0.00     0.000 O
ATOM     28  HD  SGN C   2      33.949  93.062 113.2540  0.00  0.00     0.000 HD
BRANCH 21 30
ATOM     28   N  SGN C   2      33.670  89.268 114.1230  0.00  0.00     0.000 N
ATOM     30  HD  SGN C   2      32.944  89.641 114.4130  0.00  0.00     0.000 HD
ATOM     30   S  SGN C   2      33.863  89.558 115.6850  0.00  0.00     0.000 S
ATOM     31   O  SGN C   2      33.700  90.965 115.8300  0.00  0.00     0.000 OA
ATOM     32   O  SGN C   2      33.034  88.670 116.4130  0.00  0.00     0.000 OA
ATOM     33   O  SGN C   2      35.346  89.136 115.9690  0.00  0.00     0.000 OA
ENDBRANCH 21 30
BRANCH 24 34
ATOM     34   C  SGN C   2      36.613  89.642 109.4750  0.00  0.00     0.000 C
ATOM     35   O  SGN C   2      37.384  88.476 109.8170  0.00  0.00     0.000 O
ATOM     36   S  SGN C   2      38.888  88.420 109.2850  0.00  0.00     0.000 S
ATOM     37   O  SGN C   2      39.489  89.656 109.7460  0.00  0.00     0.000 OA
ATOM     38   O  SGN C   2      39.468  87.242 109.8830  0.00  0.00     0.000 OA
ATOM     39   O  SGN C   2      38.748  88.336 107.8520  0.00  0.00     0.000 OA
ENDBRANCH 24 34
BRANCH 20 40
ATOM     40  O4  IDS C   3      33.511  88.173 111.7610  0.00  0.00     0.000 O
BRANCH 40 44
ATOM     41  C1  IDS C   3      30.492  86.792 110.5750  0.00  0.00     0.000 C
ATOM     42  C2  IDS C   3      30.656  87.219 112.0310  0.00  0.00     0.000 C
ATOM     43  C3  IDS C   3      31.911  86.588 112.6310  0.00  0.00     0.000 C
ATOM     44  C4  IDS C   3      33.126  86.796 111.7400  0.00  0.00     0.000 C
ATOM     45  C5  IDS C   3      32.798  86.369 110.2940  0.00  0.00     0.000 C
ATOM     46  O5  IDS C   3      31.664  87.103 109.8270  0.00  0.00     0.000 O
ATOM     47   O  IDS C   3      31.690  85.195 112.8330  0.00  0.00     0.000 O
ATOM     49  HD  IDS C   3      31.579  86.028 113.0420  0.00  0.00     0.000 HD
BRANCH 42 49
ATOM     49   O  IDS C   3      30.778  88.693 112.1190  0.00  0.00     0.000 O
ATOM     50   S  IDS C   3      29.878  89.502 113.1680  0.00  0.00     0.000 S
ATOM     51   O  IDS C   3      30.464  89.160 114.4450  0.00  0.00     0.000 OA
ATOM     52   O  IDS C   3      28.495  89.067 113.0540  0.00  0.00     0.000 OA
ATOM     53   O  IDS C   3      30.036  90.901 112.8320  0.00  0.00     0.000 OA
ENDBRANCH 42 49
BRANCH 45 54
ATOM     54   C  IDS C   3      33.951  86.583 109.3270  0.00  0.00     0.000 C
ATOM     55   O  IDS C   3      33.808  87.312 108.3800  0.00  0.00     0.000 OA
ATOM     56   O  IDS C   3      35.005  86.004 109.5020  0.00  0.00     0.000 OA
ENDBRANCH 45 54
BRANCH 41 57
ATOM     57  O4  SGN C   4      29.983  85.554 110.5850  0.00  0.00     0.000 O
BRANCH 57 61
ATOM     58  C1  SGN C   4      27.546  83.211 108.1150  0.00  0.00     0.000 C
ATOM     59  C2  SGN C   4      28.649  84.029 107.4230  0.00  0.00     0.000 C
ATOM     60  C3  SGN C   4      29.705  84.501 108.4320  0.00  0.00     0.000 C
ATOM     61  C4  SGN C   4      29.024  85.245 109.5680  0.00  0.00     0.000 C
ATOM     62  C5  SGN C   4      27.923  84.386 110.1890  0.00  0.00     0.000 C
ATOM     63  O5  SGN C   4      26.985  83.960 109.1830  0.00  0.00     0.000 O
BRANCH 59 66
ATOM     64   N  SGN C   4      29.039  83.163 106.3060  0.00  0.00     0.000 N
ATOM     66  HD  SGN C   4      29.042  83.747 106.9450  0.00  0.00     0.000 HD
ATOM     66   O  SGN C   4      29.602  82.719 103.9780  0.00  0.00     0.000 OA
ATOM     67   O  SGN C   4      27.783  84.280 104.5240  0.00  0.00     0.000 OA
ATOM     68   S  SGN C   4      29.238  83.789 104.8420  0.00  0.00     0.000 S
ATOM     69   O  SGN C   4      30.091  84.917 104.9510  0.00  0.00     0.000 OA
ENDBRANCH 59 66
BRANCH 62 70
ATOM     70   C  SGN C   4      27.143  85.151 111.2290  0.00  0.00     0.000 C
ATOM     71   S  SGN C   4      24.955  86.422 111.6370  0.00  0.00     0.000 S
ATOM     72   O  SGN C   4      24.804  85.728 112.9000  0.00  0.00     0.000 OA
ATOM     73   O  SGN C   4      25.707  87.656 111.7470  0.00  0.00     0.000 OA
ATOM     74   O  SGN C   4      23.720  86.556 110.8990  0.00  0.00     0.000 OA
ATOM     75   O  SGN C   4      25.830  85.446 110.7400  0.00  0.00     0.000 O
ENDBRANCH 62 70
ENDBRANCH 57 61
ENDBRANCH 41 57
ENDBRANCH 40 44
ENDBRANCH 20 40
ENDBRANCH 19 23
ENDBRANCH 1 19
TORSDOF 14
ENDMDL
MODEL 100
REMARK VINA RESULT:       0.2    115.706    121.318
ROOT
ATOM      1  C1  IDS C   1      33.628  25.436 110.9790  0.00  0.00     0.000 C
ATOM      2  C2  IDS C   1      34.099  26.210 109.7610  0.00  0.00     0.000 C
ATOM      3  C3  IDS C   1      33.422  25.694 108.4970  0.00  0.00     0.000 C
ATOM      4  C4  IDS C   1      31.905  25.633 108.6680  0.00  0.00     0.000 C
ATOM      5  C5  IDS C   1      31.545  24.909 109.9810  0.00  0.00     0.000 C
ATOM      6  O5  IDS C   1      32.208  25.518 111.0840  0.00  0.00     0.000 O
ATOM      7   O  IDS C   1      33.941  24.402 108.1730  0.00  0.00     0.000 O
ATOM      9  HD  IDS C   1      33.154  24.353 107.8150  0.00  0.00     0.000 HD
ATOM      9   O  IDS C   1      31.385  26.971 108.7050  0.00  0.00     0.000 O
ATOM     11  HD  IDS C   1      30.598  26.922 108.3470  0.00  0.00     0.000 HD
ENDROOT
BRANCH 2 11
ATOM     11   O  IDS C   1      33.754  27.643 109.9010  0.00  0.00     0.000 O
ATOM     12   S  IDS C   1      34.899  28.758 109.9090  0.00  0.00     0.000 S
ATOM     13   O  IDS C   1      34.250  29.867 109.2440  0.00  0.00     0.000 OA
ATOM     14   O  IDS C   1      36.051  28.266 109.1930  0.00  0.00     0.000 OA
ATOM     15   O  IDS C   1      35.160  29.000 111.3060  0.00  0.00     0.000 OA
ENDBRANCH 2 11
BRANCH 5 16
ATOM     16   C  IDS C   1      30.056  24.911 110.2780  0.00  0.00     0.000 C
ATOM     17   O  IDS C   1      29.420  23.897 110.0810  0.00  0.00     0.000 OA
ATOM     18   O  IDS C   1      29.511  25.899 110.6850  0.00  0.00     0.000 OA
ENDBRANCH 5 16
BRANCH 1 19
ATOM     19  O4  SGN C   2      34.165  24.239 111.2340  0.00  0.00     0.000 O
BRANCH 19 23
ATOM     20  C1  SGN C   2      35.496  21.650 114.2250  0.00  0.00     0.000 C
ATOM     21  C2  SGN C   2      33.978  21.798 114.0740  0.00  0.00     0.000 C
ATOM     22  C3  SGN C   2      33.652  22.401 112.7100  0.00  0.00     0.000 C
ATOM     23  C4  SGN C   2      34.373  23.735 112.5540  0.00  0.00     0.000 C
ATOM     24  C5  SGN C   2      35.873  23.547 112.8010  0.00  0.00     0.000 C
ATOM     25  O5  SGN C   2      36.082  22.933 114.0860  0.00  0.00     0.000 O
ATOM     26   O  SGN C   2      32.246  22.561 112.5590  0.00  0.00     0.000 O
ATOM     28  HD  SGN C   2      31.381  22.560 112.5200  0.00  0.00     0.000 HD
BRANCH 21 30
ATOM     28   N  SGN C   2      33.033  20.696 114.2990  0.00  0.00     0.000 N
ATOM     30  HD  SGN C   2      32.212  20.897 114.4890  0.00  0.00     0.000 HD
ATOM     30   S  SGN C   2      32.730  20.151 115.7720  0.00  0.00     0.000 S
ATOM     31   O  SGN C   2      32.351  21.298 116.5270  0.00  0.00     0.000 OA
ATOM     32   O  SGN C   2      31.848  19.048 115.6710  0.00  0.00     0.000 OA
ATOM     33   O  SGN C   2      34.109  19.591 116.2610  0.00  0.00     0.000 OA
ENDBRANCH 21 30
BRANCH 24 34
ATOM     34   C  SGN C   2      36.653  24.840 112.8130  0.00  0.00     0.000 C
ATOM     35   O  SGN C   2      37.396  24.950 111.5870  0.00  0.00     0.000 O
ATOM     36   S  SGN C   2      38.629  25.964 111.5740  0.00  0.00     0.000 S
ATOM     37   O  SGN C   2      39.447  25.565 112.7020  0.00  0.00     0.000 OA
ATOM     38   O  SGN C   2      39.277  25.773 110.2990  0.00  0.00     0.000 OA
ATOM     39   O  SGN C   2      38.015  27.261 111.7250  0.00  0.00     0.000 OA
ENDBRANCH 24 34
BRANCH 20 40
ATOM     40  O4  IDS C   3      36.115  20.795 113.4130  0.00  0.00     0.000 O
BRANCH 40 44
ATOM     41  C1  IDS C   3      37.298  17.689 112.2400  0.00  0.00     0.000 C
ATOM     42  C2  IDS C   3      36.521  17.804 113.5480  0.00  0.00     0.000 C
ATOM     43  C3  IDS C   3      37.145  18.871 114.4440  0.00  0.00     0.000 C
ATOM     44  C4  IDS C   3      37.372  20.174 113.6940  0.00  0.00     0.000 C
ATOM     45  C5  IDS C   3      38.122  19.897 112.3750  0.00  0.00     0.000 C
ATOM     46  O5  IDS C   3      37.382  18.957 111.5940  0.00  0.00     0.000 O
ATOM     47   O  IDS C   3      38.382  18.388 114.9640  0.00  0.00     0.000 O
ATOM     49  HD  IDS C   3      37.517  18.410 114.9380  0.00  0.00     0.000 HD
BRANCH 42 49
ATOM     49   O  IDS C   3      35.115  18.179 113.2740  0.00  0.00     0.000 O
ATOM     50   S  IDS C   3      33.979  17.049 113.2660  0.00  0.00     0.000 S
ATOM     51   O  IDS C   3      33.842  16.705 114.6640  0.00  0.00     0.000 OA
ATOM     52   O  IDS C   3      34.420  15.926 112.4550  0.00  0.00     0.000 OA
ATOM     53   O  IDS C   3      32.794  17.680 112.7230  0.00  0.00     0.000 OA
ENDBRANCH 42 49
BRANCH 45 54
ATOM     54   C  IDS C   3      38.355  21.147 111.5410  0.00  0.00     0.000 C
ATOM     55   O  IDS C   3      39.025  22.044 111.9840  0.00  0.00     0.000 OA
ATOM     56   O  IDS C   3      37.852  21.244 110.4390  0.00  0.00     0.000 OA
ENDBRANCH 45 54
BRANCH 41 57
ATOM     57  O4  SGN C   4      38.396  16.968 112.4990  0.00  0.00     0.000 O
BRANCH 57 61
ATOM     58  C1  SGN C   4      41.144  14.618 110.3880  0.00  0.00     0.000 C
ATOM     59  C2  SGN C   4      40.909  16.044 109.8650  0.00  0.00     0.000 C
ATOM     60  C3  SGN C   4      40.225  16.918 110.9250  0.00  0.00     0.000 C
ATOM     61  C4  SGN C   4      38.956  16.234 111.4050  0.00  0.00     0.000 C
ATOM     62  C5  SGN C   4      39.259  14.814 111.8810  0.00  0.00     0.000 C
ATOM     63  O5  SGN C   4      39.920  14.063 110.8460  0.00  0.00     0.000 O
BRANCH 59 66
ATOM     64   N  SGN C   4      42.222  16.468 109.3680  0.00  0.00     0.000 N
ATOM     66  HD  SGN C   4      41.412  16.460 109.6730  0.00  0.00     0.000 HD
ATOM     66   O  SGN C   4      43.736  17.369 107.6860  0.00  0.00     0.000 OA
ATOM     67   O  SGN C   4      41.953  15.812 107.0230  0.00  0.00     0.000 OA
ATOM     68   S  SGN C   4      42.361  17.058 107.8830  0.00  0.00     0.000 S
ATOM     69   O  SGN C   4      41.387  18.075 107.7130  0.00  0.00     0.000 OA
ENDBRANCH 59 66
BRANCH 62 70
ATOM     70   C  SGN C   4      37.997  14.068 112.2360  0.00  0.00     0.000 C
ATOM     71   S  SGN C   4      37.008  12.362 113.8740  0.00  0.00     0.000 S
ATOM     72   O  SGN C   4      35.837  13.204 114.0210  0.00  0.00     0.000 OA
ATOM     73   O  SGN C   4      36.895  11.406 112.7920  0.00  0.00     0.000 OA
ATOM     74   O  SGN C   4      37.464  11.784 115.1180  0.00  0.00     0.000 OA
ATOM     75   O  SGN C   4      38.175  13.360 113.4680  0.00  0.00     0.000 O
ENDBRANCH 62 70
ENDBRANCH 57 61
ENDBRANCH 41 57
ENDBRANCH 40 44
ENDBRANCH 20 40
ENDBRANCH 19 23
ENDBRANCH 1 19
TORSDOF 14
ENDMDL
