MODEL 1
REMARK VINA RESULT:      -7.5      0.000      0.000
ROOT
ATOM      1  C1  NGY C   1      22.224  14.927  45.2730  0.00  0.00     0.000 C
ATOM      2  C2  NGY C   1      22.537  15.397  46.6870  0.00  0.00     0.000 C
ATOM      3  C3  NGY C   1      22.460  14.227  47.6620  0.00  0.00     0.000 C
ATOM      4  C4  NGY C   1      21.098  13.574  47.5150  0.00  0.00     0.000 C
ATOM      5  C5  NGY C   1      20.947  13.077  46.0800  0.00  0.00     0.000 C
ATOM      6  O5  NGY C   1      21.003  14.224  45.1930  0.00  0.00     0.000 O
ATOM      7   O  NGY C   1      22.683  14.703  48.9810  0.00  0.00     0.000 O
ATOM      9  HD  NGY C   1      22.494  15.410  49.4440  0.00  0.00     0.000 HD
ATOM      9   O  NGY C   1      20.952  12.494  48.4240  0.00  0.00     0.000 O
ATOM     11  HD  NGY C   1      20.763  13.201  48.8870  0.00  0.00     0.000 HD
ENDROOT
BRANCH 2 13
ATOM     11   N  NGY C   1      23.726  16.189  46.4750  0.00  0.00     0.000 N
ATOM     13  HD  NGY C   1      23.655  16.721  47.1550  0.00  0.00     0.000 HD
ATOM     13   C  NGY C   1      24.059  17.182  47.2990  0.00  0.00     0.000 C
ATOM     14   O  NGY C   1      23.292  17.555  48.1890  0.00  0.00     0.000 OA
ATOM     15   C  NGY C   1      25.412  17.794  47.1030  0.00  0.00     0.000 C
ENDBRANCH 2 13
BRANCH 5 16
ATOM     16   C  NGY C   1      19.650  12.396  45.7780  0.00  0.00     0.000 C
ATOM     17   O  NGY C   1      19.310   8.784  45.2320  0.00  0.00     0.000 OA
ATOM     18   O  NGY C   1      19.917  11.039  45.4130  0.00  0.00     0.000 O
ATOM     19   S  NGY C   1      18.692  10.059  45.4960  0.00  0.00     0.000 S
ATOM     20   O  NGY C   1      17.768  10.444  44.4620  0.00  0.00     0.000 OA
ATOM     21   O  NGY C   1      18.169  10.240  46.8400  0.00  0.00     0.000 OA
ENDBRANCH 5 16
BRANCH 1 22
ATOM     22  O4  BDP C   2      23.269  14.207  44.8130  0.00  0.00     0.000 O
BRANCH 22 26
ATOM     23  C1  BDP C   2      25.763  13.120  41.7210  0.00  0.00     0.000 C
ATOM     24  C2  BDP C   2      25.403  14.586  41.7810  0.00  0.00     0.000 C
ATOM     25  C3  BDP C   2      24.810  14.906  43.1280  0.00  0.00     0.000 C
ATOM     26  C4  BDP C   2      23.655  13.960  43.4350  0.00  0.00     0.000 C
ATOM     27  C5  BDP C   2      24.081  12.521  43.1720  0.00  0.00     0.000 C
ATOM     28  O5  BDP C   2      24.555  12.316  41.8170  0.00  0.00     0.000 O
ATOM     29   O  BDP C   2      26.550  15.432  41.7080  0.00  0.00     0.000 O
ATOM     31  HD  BDP C   2      26.527  16.158  42.1790  0.00  0.00     0.000 HD
ATOM     31   O  BDP C   2      24.340  16.247  43.0650  0.00  0.00     0.000 O
ATOM     33  HD  BDP C   2      24.317  16.973  43.5360  0.00  0.00     0.000 HD
BRANCH 27 33
ATOM     33   C  BDP C   2      22.949  11.540  43.3640  0.00  0.00     0.000 C
ATOM     34   O  BDP C   2      23.116  10.436  43.9360  0.00  0.00     0.000 OA
ATOM     35   O  BDP C   2      21.852  11.824  42.9150  0.00  0.00     0.000 OA
ENDBRANCH 27 33
BRANCH 23 36
ATOM     36  O4  SGN C   3      26.426  12.732  40.6060  0.00  0.00     0.000 O
BRANCH 36 40
ATOM     37  C1  SGN C   3      29.576  10.456  39.0810  0.00  0.00     0.000 C
ATOM     38  C2  SGN C   3      28.456   9.714  39.8290  0.00  0.00     0.000 C
ATOM     39  C3  SGN C   3      27.213  10.587  39.9270  0.00  0.00     0.000 C
ATOM     40  C4  SGN C   3      27.585  11.894  40.5930  0.00  0.00     0.000 C
ATOM     41  C5  SGN C   3      28.704  12.541  39.8060  0.00  0.00     0.000 C
ATOM     42  O5  SGN C   3      29.842  11.665  39.7730  0.00  0.00     0.000 O
ATOM     43   O  SGN C   3      26.217   9.900  40.6740  0.00  0.00     0.000 O
ATOM     45  HD  SGN C   3      26.107  10.756  40.7530  0.00  0.00     0.000 HD
BRANCH 38 47
ATOM     45   N  SGN C   3      28.764   8.433  40.4900  0.00  0.00     0.000 N
ATOM     47  HD  SGN C   3      28.432   9.231  40.5440  0.00  0.00     0.000 HD
ATOM     47   S  SGN C   3      29.123   7.293  39.4430  0.00  0.00     0.000 S
ATOM     48   O  SGN C   3      28.001   6.953  38.6410  0.00  0.00     0.000 OA
ATOM     49   O  SGN C   3      30.295   7.725  38.7540  0.00  0.00     0.000 OA
ATOM     50   O  SGN C   3      29.402   6.159  40.3220  0.00  0.00     0.000 OA
ENDBRANCH 38 47
BRANCH 41 51
ATOM     51   C  SGN C   3      29.167  13.859  40.3640  0.00  0.00     0.000 C
ATOM     52   O  SGN C   3      29.383  17.117  38.5700  0.00  0.00     0.000 OA
ATOM     53   O  SGN C   3      28.856  16.672  40.8620  0.00  0.00     0.000 OA
ATOM     54   O  SGN C   3      31.034  16.156  39.9920  0.00  0.00     0.000 OA
ATOM     55   O  SGN C   3      29.045  14.845  39.3640  0.00  0.00     0.000 O
ATOM     56   S  SGN C   3      29.636  16.336  39.7330  0.00  0.00     0.000 S
ENDBRANCH 41 51
BRANCH 37 57
ATOM     57  O4  IDS C   4      29.289  10.759  37.7910  0.00  0.00     0.000 O
BRANCH 57 61
ATOM     58  C1  IDS C   4      30.090   9.832  34.1900  0.00  0.00     0.000 C
ATOM     59  C2  IDS C   4      30.334   8.819  35.2640  0.00  0.00     0.000 C
ATOM     60  C3  IDS C   4      30.918   9.436  36.5370  0.00  0.00     0.000 C
ATOM     61  C4  IDS C   4      30.425  10.828  36.9070  0.00  0.00     0.000 C
ATOM     62  C5  IDS C   4      30.091  11.639  35.6490  0.00  0.00     0.000 C
ATOM     63  O5  IDS C   4      29.313  10.888  34.7290  0.00  0.00     0.000 O
ATOM     64   O  IDS C   4      32.314   9.504  36.3120  0.00  0.00     0.000 O
ATOM     66  HD  IDS C   4      32.573  10.328  36.2570  0.00  0.00     0.000 HD
BRANCH 59 66
ATOM     66   O  IDS C   4      29.087   8.139  35.6620  0.00  0.00     0.000 O
ATOM     67   S  IDS C   4      28.911   6.634  35.1760  0.00  0.00     0.000 S
ATOM     68   O  IDS C   4      29.969   5.939  35.8690  0.00  0.00     0.000 OA
ATOM     69   O  IDS C   4      27.570   6.265  35.5820  0.00  0.00     0.000 OA
ATOM     70   O  IDS C   4      29.114   6.622  33.7350  0.00  0.00     0.000 OA
ENDBRANCH 59 66
BRANCH 62 71
ATOM     71   C  IDS C   4      29.283  12.888  35.9440  0.00  0.00     0.000 C
ATOM     72   O  IDS C   4      29.789  13.814  36.5480  0.00  0.00     0.000 OA
ATOM     73   O  IDS C   4      28.071  12.895  35.6470  0.00  0.00     0.000 OA
ENDBRANCH 62 71
BRANCH 58 74
ATOM     74  O4  SGN C   5      31.176  10.129  33.4210  0.00  0.00     0.000 O
BRANCH 74 78
ATOM     75  C1  SGN C   5      32.592  11.058  29.6040  0.00  0.00     0.000 C
ATOM     76  C2  SGN C   5      31.681  12.111  30.2610  0.00  0.00     0.000 C
ATOM     77  C3  SGN C   5      31.512  11.823  31.7590  0.00  0.00     0.000 C
ATOM     78  C4  SGN C   5      31.164  10.363  32.0130  0.00  0.00     0.000 C
ATOM     79  C5  SGN C   5      32.179   9.471  31.3140  0.00  0.00     0.000 C
ATOM     80  O5  SGN C   5      32.154   9.735  29.8860  0.00  0.00     0.000 O
ATOM     81   O  SGN C   5      30.499  12.677  32.2820  0.00  0.00     0.000 O
ATOM     83  HD  SGN C   5      30.406  13.493  32.0070  0.00  0.00     0.000 HD
BRANCH 76 85
ATOM     83   N  SGN C   5      31.906  12.905  29.0460  0.00  0.00     0.000 N
ATOM     85  HD  SGN C   5      32.287  13.548  28.6100  0.00  0.00     0.000 HD
ATOM     85   S  SGN C   5      32.079  14.497  28.8830  0.00  0.00     0.000 S
ATOM     86   O  SGN C   5      32.324  14.834  27.5230  0.00  0.00     0.000 OA
ATOM     87   O  SGN C   5      30.960  15.107  29.5070  0.00  0.00     0.000 OA
ATOM     88   O  SGN C   5      33.361  14.610  29.7040  0.00  0.00     0.000 OA
ENDBRANCH 76 85
BRANCH 79 89
ATOM     89   C  SGN C   5      31.931   7.991  31.5280  0.00  0.00     0.000 C
ATOM     90   O  SGN C   5      33.195   7.300  31.6810  0.00  0.00     0.000 O
ATOM     91   S  SGN C   5      33.199   6.006  32.6310  0.00  0.00     0.000 S
ATOM     92   O  SGN C   5      32.623   6.420  33.8830  0.00  0.00     0.000 OA
ATOM     93   O  SGN C   5      32.414   4.994  31.9720  0.00  0.00     0.000 OA
ATOM     94   O  SGN C   5      34.594   5.670  32.7250  0.00  0.00     0.000 OA
ENDBRANCH 79 89
BRANCH 75 95
ATOM     95  O4  BDP C   6      33.834  11.254  30.1390  0.00  0.00     0.000 O
BRANCH 95 99
ATOM     96  C1  BDP C   6      37.547  11.001  27.9940  0.00  0.00     0.000 C
ATOM     97  C2  BDP C   6      36.261  10.970  27.2170  0.00  0.00     0.000 C
ATOM     98  C3  BDP C   6      35.031  11.444  28.0070  0.00  0.00     0.000 C
ATOM     99  C4  BDP C   6      34.958  10.773  29.3710  0.00  0.00     0.000 C
ATOM    100  C5  BDP C   6      36.339  10.923  30.0520  0.00  0.00     0.000 C
ATOM    101  O5  BDP C   6      37.233  10.248  29.1510  0.00  0.00     0.000 O
BRANCH 100 102
ATOM    102   C  BDP C   6      36.408  10.223  31.3850  0.00  0.00     0.000 C
ATOM    103   O  BDP C   6      36.833  10.784  32.4060  0.00  0.00     0.000 OA
ATOM    104   O  BDP C   6      36.006   9.054  31.4250  0.00  0.00     0.000 OA
ENDBRANCH 100 102
ENDBRANCH 95 99
ENDBRANCH 75 95
ENDBRANCH 74 78
ENDBRANCH 58 74
ENDBRANCH 57 61
ENDBRANCH 37 57
ENDBRANCH 36 40
ENDBRANCH 23 36
ENDBRANCH 22 26
ENDBRANCH 1 22
TORSDOF 20
ENDMDL
MODEL 2
REMARK VINA RESULT:      -7.3      2.713      3.662
ROOT
ATOM      1  C1  NGY C   1      22.336  12.540  44.5770  0.00  0.00     0.000 C
ATOM      2  C2  NGY C   1      22.455  13.447  45.7940  0.00  0.00     0.000 C
ATOM      3  C3  NGY C   1      22.314  12.633  47.0760  0.00  0.00     0.000 C
ATOM      4  C4  NGY C   1      21.012  11.859  47.0070  0.00  0.00     0.000 C
ATOM      5  C5  NGY C   1      21.057  10.932  45.7960  0.00  0.00     0.000 C
ATOM      6  O5  NGY C   1      21.167  11.749  44.6020  0.00  0.00     0.000 O
ATOM      7   O  NGY C   1      22.355  13.511  48.1920  0.00  0.00     0.000 O
ATOM      9  HD  NGY C   1      22.080  14.308  48.3870  0.00  0.00     0.000 HD
ATOM      9   O  NGY C   1      20.806  11.104  48.1920  0.00  0.00     0.000 O
ATOM     11  HD  NGY C   1      20.531  11.902  48.3870  0.00  0.00     0.000 HD
ENDROOT
BRANCH 2 13
ATOM     11   N  NGY C   1      23.536  14.297  45.3530  0.00  0.00     0.000 N
ATOM     13  HD  NGY C   1      23.449  14.936  45.9310  0.00  0.00     0.000 HD
ATOM     13   C  NGY C   1      23.808  15.452  45.9590  0.00  0.00     0.000 C
ATOM     14   O  NGY C   1      23.060  15.907  46.8260  0.00  0.00     0.000 OA
ATOM     15   C  NGY C   1      25.074  16.143  45.5530  0.00  0.00     0.000 C
ENDBRANCH 2 13
BRANCH 5 16
ATOM     16   C  NGY C   1      19.838  10.088  45.5960  0.00  0.00     0.000 C
ATOM     17   O  NGY C   1      16.493  11.441  44.9340  0.00  0.00     0.000 OA
ATOM     18   O  NGY C   1      18.688  10.938  45.5790  0.00  0.00     0.000 O
ATOM     19   S  NGY C   1      17.392  10.315  44.9460  0.00  0.00     0.000 S
ATOM     20   O  NGY C   1      16.948   9.268  45.8290  0.00  0.00     0.000 OA
ATOM     21   O  NGY C   1      17.817   9.833  43.6420  0.00  0.00     0.000 OA
ENDBRANCH 5 16
BRANCH 1 22
ATOM     22  O4  BDP C   2      23.461  11.800  44.4760  0.00  0.00     0.000 O
BRANCH 22 26
ATOM     23  C1  BDP C   2      26.336  10.686  41.7450  0.00  0.00     0.000 C
ATOM     24  C2  BDP C   2      25.276  11.629  41.2250  0.00  0.00     0.000 C
ATOM     25  C3  BDP C   2      24.525  12.234  42.3820  0.00  0.00     0.000 C
ATOM     26  C4  BDP C   2      23.998  11.137  43.3010  0.00  0.00     0.000 C
ATOM     27  C5  BDP C   2      25.112  10.148  43.6180  0.00  0.00     0.000 C
ATOM     28  O5  BDP C   2      25.703   9.568  42.4270  0.00  0.00     0.000 O
ATOM     29   O  BDP C   2      25.834  12.760  40.5570  0.00  0.00     0.000 O
ATOM     31  HD  BDP C   2      25.416  13.513  40.6550  0.00  0.00     0.000 HD
ATOM     31   O  BDP C   2      23.443  12.973  41.8320  0.00  0.00     0.000 O
ATOM     33  HD  BDP C   2      23.025  13.725  41.9290  0.00  0.00     0.000 HD
BRANCH 27 33
ATOM     33   C  BDP C   2      24.630   8.981  44.4470  0.00  0.00     0.000 C
ATOM     34   O  BDP C   2      25.403   8.070  44.8270  0.00  0.00     0.000 OA
ATOM     35   O  BDP C   2      23.443   8.914  44.7190  0.00  0.00     0.000 OA
ENDBRANCH 27 33
BRANCH 23 36
ATOM     36  O4  SGN C   3      27.168  10.176  40.8070  0.00  0.00     0.000 O
BRANCH 36 40
ATOM     37  C1  SGN C   3      31.130   9.321  39.8070  0.00  0.00     0.000 C
ATOM     38  C2  SGN C   3      30.542   8.630  41.0480  0.00  0.00     0.000 C
ATOM     39  C3  SGN C   3      29.022   8.693  41.0220  0.00  0.00     0.000 C
ATOM     40  C4  SGN C   3      28.594  10.140  40.9090  0.00  0.00     0.000 C
ATOM     41  C5  SGN C   3      29.235  10.744  39.6790  0.00  0.00     0.000 C
ATOM     42  O5  SGN C   3      30.664  10.661  39.7870  0.00  0.00     0.000 O
ATOM     43   O  SGN C   3      28.507   8.100  42.2080  0.00  0.00     0.000 O
ATOM     45  HD  SGN C   3      27.952   8.694  41.9100  0.00  0.00     0.000 HD
BRANCH 38 47
ATOM     45   N  SGN C   3      31.470   8.228  42.1200  0.00  0.00     0.000 N
ATOM     47  HD  SGN C   3      30.757   8.660  41.8830  0.00  0.00     0.000 HD
ATOM     47   S  SGN C   3      32.425   7.041  41.6680  0.00  0.00     0.000 S
ATOM     48   O  SGN C   3      31.694   5.845  41.4430  0.00  0.00     0.000 OA
ATOM     49   O  SGN C   3      33.201   7.533  40.5770  0.00  0.00     0.000 OA
ATOM     50   O  SGN C   3      33.242   6.846  42.8640  0.00  0.00     0.000 OA
ENDBRANCH 38 47
BRANCH 41 51
ATOM     51   C  SGN C   3      28.884  12.189  39.4480  0.00  0.00     0.000 C
ATOM     52   O  SGN C   3      29.980  15.125  41.4620  0.00  0.00     0.000 OA
ATOM     53   O  SGN C   3      29.564  14.959  39.1100  0.00  0.00     0.000 OA
ATOM     54   O  SGN C   3      27.776  14.667  40.6860  0.00  0.00     0.000 OA
ATOM     55   O  SGN C   3      29.548  12.978  40.4100  0.00  0.00     0.000 O
ATOM     56   S  SGN C   3      29.181  14.582  40.4170  0.00  0.00     0.000 S
ENDBRANCH 41 51
BRANCH 37 57
ATOM     57  O4  IDS C   4      30.801   8.740  38.6270  0.00  0.00     0.000 O
BRANCH 57 61
ATOM     58  C1  IDS C   4      31.839   6.836  35.5020  0.00  0.00     0.000 C
ATOM     59  C2  IDS C   4      32.517   6.515  36.7960  0.00  0.00     0.000 C
ATOM     60  C3  IDS C   4      32.810   7.762  37.6350  0.00  0.00     0.000 C
ATOM     61  C4  IDS C   4      31.778   8.879  37.5780  0.00  0.00     0.000 C
ATOM     62  C5  IDS C   4      31.101   8.924  36.2020  0.00  0.00     0.000 C
ATOM     63  O5  IDS C   4      30.698   7.633  35.7710  0.00  0.00     0.000 O
ATOM     64   O  IDS C   4      34.037   8.263  37.1410  0.00  0.00     0.000 O
ATOM     66  HD  IDS C   4      33.918   9.027  36.7510  0.00  0.00     0.000 HD
BRANCH 59 66
ATOM     66   O  IDS C   4      31.689   5.630  37.6380  0.00  0.00     0.000 O
ATOM     67   S  IDS C   4      32.374   4.286  38.1440  0.00  0.00     0.000 S
ATOM     68   O  IDS C   4      33.432   4.760  39.0040  0.00  0.00     0.000 OA
ATOM     69   O  IDS C   4      31.317   3.559  38.8180  0.00  0.00     0.000 OA
ATOM     70   O  IDS C   4      32.901   3.604  36.9720  0.00  0.00     0.000 OA
ENDBRANCH 59 66
BRANCH 62 71
ATOM     71   C  IDS C   4      29.844   9.772  36.1850  0.00  0.00     0.000 C
ATOM     72   O  IDS C   4      28.757   9.249  36.0300  0.00  0.00     0.000 OA
ATOM     73   O  IDS C   4      29.963  11.013  36.2280  0.00  0.00     0.000 OA
ENDBRANCH 62 71
BRANCH 58 74
ATOM     74  O4  SGN C   5      32.677   7.192  34.4870  0.00  0.00     0.000 O
BRANCH 74 78
ATOM     75  C1  SGN C   5      33.789   6.455  30.5300  0.00  0.00     0.000 C
ATOM     76  C2  SGN C   5      32.755   7.576  30.7430  0.00  0.00     0.000 C
ATOM     77  C3  SGN C   5      32.689   7.979  32.2220  0.00  0.00     0.000 C
ATOM     78  C4  SGN C   5      32.576   6.762  33.1300  0.00  0.00     0.000 C
ATOM     79  C5  SGN C   5      33.686   5.776  32.7970  0.00  0.00     0.000 C
ATOM     80  O5  SGN C   5      33.567   5.361  31.4110  0.00  0.00     0.000 O
ATOM     81   O  SGN C   5      31.579   8.850  32.4140  0.00  0.00     0.000 O
ATOM     83  HD  SGN C   5      31.354   9.437  31.8180  0.00  0.00     0.000 HD
BRANCH 76 85
ATOM     83   N  SGN C   5      33.140   7.863  29.3550  0.00  0.00     0.000 N
ATOM     85  HD  SGN C   5      33.386   8.402  28.7240  0.00  0.00     0.000 HD
ATOM     85   S  SGN C   5      32.734   9.109  28.4190  0.00  0.00     0.000 S
ATOM     86   O  SGN C   5      33.373   9.008  27.1530  0.00  0.00     0.000 OA
ATOM     87   O  SGN C   5      31.318   9.192  28.4220  0.00  0.00     0.000 OA
ATOM     88   O  SGN C   5      33.402  10.183  29.2740  0.00  0.00     0.000 OA
ENDBRANCH 76 85
BRANCH 79 89
ATOM     89   C  SGN C   5      33.673   4.536  33.6680  0.00  0.00     0.000 C
ATOM     90   O  SGN C   5      34.682   3.603  33.2070  0.00  0.00     0.000 O
ATOM     91   S  SGN C   5      35.365   2.672  34.3220  0.00  0.00     0.000 S
ATOM     92   O  SGN C   5      35.838   3.555  35.3560  0.00  0.00     0.000 OA
ATOM     93   O  SGN C   5      34.352   1.764  34.7940  0.00  0.00     0.000 OA
ATOM     94   O  SGN C   5      36.423   2.017  33.6010  0.00  0.00     0.000 OA
ENDBRANCH 79 89
BRANCH 75 95
ATOM     95  O4  BDP C   6      35.007   7.016  30.7930  0.00  0.00     0.000 O
BRANCH 95 99
ATOM     96  C1  BDP C   6      38.906   6.019  29.2950  0.00  0.00     0.000 C
ATOM     97  C2  BDP C   6      37.717   5.822  28.3980  0.00  0.00     0.000 C
ATOM     98  C3  BDP C   6      36.445   6.549  28.8630  0.00  0.00     0.000 C
ATOM     99  C4  BDP C   6      36.170   6.293  30.3370  0.00  0.00     0.000 C
ATOM    100  C5  BDP C   6      37.474   6.572  31.1220  0.00  0.00     0.000 C
ATOM    101  O5  BDP C   6      38.409   5.636  30.5640  0.00  0.00     0.000 O
BRANCH 100 102
ATOM    102   C  BDP C   6      37.341   6.275  32.5940  0.00  0.00     0.000 C
ATOM    103   O  BDP C   6      36.931   7.118  33.4050  0.00  0.00     0.000 OA
ATOM    104   O  BDP C   6      37.650   5.137  32.9640  0.00  0.00     0.000 OA
ENDBRANCH 100 102
ENDBRANCH 95 99
ENDBRANCH 75 95
ENDBRANCH 74 78
ENDBRANCH 58 74
ENDBRANCH 57 61
ENDBRANCH 37 57
ENDBRANCH 36 40
ENDBRANCH 23 36
ENDBRANCH 22 26
ENDBRANCH 1 22
TORSDOF 20
ENDMDL
MODEL 3
REMARK VINA RESULT:      -7.2     11.868     20.344
ROOT
ATOM      1  C1  NGY C   1      20.859  20.640  32.7450  0.00  0.00     0.000 C
ATOM      2  C2  NGY C   1      22.054  21.578  32.8480  0.00  0.00     0.000 C
ATOM      3  C3  NGY C   1      21.660  22.985  32.4060  0.00  0.00     0.000 C
ATOM      4  C4  NGY C   1      21.061  22.897  31.0160  0.00  0.00     0.000 C
ATOM      5  C5  NGY C   1      19.830  21.996  31.0690  0.00  0.00     0.000 C
ATOM      6  O5  NGY C   1      20.255  20.668  31.4690  0.00  0.00     0.000 O
ATOM      7   O  NGY C   1      22.807  23.823  32.4420  0.00  0.00     0.000 O
ATOM      9  HD  NGY C   1      23.654  23.751  32.2770  0.00  0.00     0.000 HD
ATOM      9   O  NGY C   1      20.704  24.184  30.5340  0.00  0.00     0.000 O
ATOM     11  HD  NGY C   1      21.552  24.112  30.3690  0.00  0.00     0.000 HD
ENDROOT
BRANCH 2 13
ATOM     11   N  NGY C   1      22.842  22.129  33.9250  0.00  0.00     0.000 N
ATOM     13  HD  NGY C   1      23.385  21.465  34.0470  0.00  0.00     0.000 HD
ATOM     13   C  NGY C   1      23.844  21.446  34.4760  0.00  0.00     0.000 C
ATOM     14   O  NGY C   1      24.045  20.265  34.1880  0.00  0.00     0.000 OA
ATOM     15   C  NGY C   1      24.720  22.193  35.4350  0.00  0.00     0.000 C
ENDBRANCH 2 13
BRANCH 5 16
ATOM     16   C  NGY C   1      19.117  21.817  29.7670  0.00  0.00     0.000 C
ATOM     17   O  NGY C   1      15.770  23.142  29.0620  0.00  0.00     0.000 OA
ATOM     18   O  NGY C   1      17.768  22.266  29.9150  0.00  0.00     0.000 O
ATOM     19   S  NGY C   1      17.003  22.576  28.5780  0.00  0.00     0.000 S
ATOM     20   O  NGY C   1      16.803  21.321  27.9020  0.00  0.00     0.000 OA
ATOM     21   O  NGY C   1      17.878  23.489  27.8600  0.00  0.00     0.000 OA
ENDBRANCH 5 16
BRANCH 1 22
ATOM     22  O4  BDP C   2      19.991  20.931  33.7370  0.00  0.00     0.000 O
BRANCH 22 26
ATOM     23  C1  BDP C   2      17.298  19.603  36.5550  0.00  0.00     0.000 C
ATOM     24  C2  BDP C   2      18.440  18.662  36.2540  0.00  0.00     0.000 C
ATOM     25  C3  BDP C   2      19.521  19.401  35.5090  0.00  0.00     0.000 C
ATOM     26  C4  BDP C   2      18.937  20.096  34.2830  0.00  0.00     0.000 C
ATOM     27  C5  BDP C   2      17.688  20.874  34.6770  0.00  0.00     0.000 C
ATOM     28  O5  BDP C   2      16.684  20.040  35.3100  0.00  0.00     0.000 O
ATOM     29   O  BDP C   2      19.097  18.208  37.4370  0.00  0.00     0.000 O
ATOM     31  HD  BDP C   2      19.955  18.095  37.3850  0.00  0.00     0.000 HD
ATOM     31   O  BDP C   2      20.484  18.433  35.1100  0.00  0.00     0.000 O
ATOM     33  HD  BDP C   2      21.341  18.321  35.0580  0.00  0.00     0.000 HD
BRANCH 27 33
ATOM     33   C  BDP C   2      17.005  21.508  33.4880  0.00  0.00     0.000 C
ATOM     34   O  BDP C   2      16.403  20.825  32.6250  0.00  0.00     0.000 OA
ATOM     35   O  BDP C   2      17.075  22.718  33.3560  0.00  0.00     0.000 OA
ENDBRANCH 27 33
BRANCH 23 36
ATOM     36  O4  SGN C   3      16.318  19.093  37.3370  0.00  0.00     0.000 O
BRANCH 36 40
ATOM     37  C1  SGN C   3      13.973  19.741  40.7300  0.00  0.00     0.000 C
ATOM     38  C2  SGN C   3      13.449  20.275  39.3870  0.00  0.00     0.000 C
ATOM     39  C3  SGN C   3      14.165  19.597  38.2280  0.00  0.00     0.000 C
ATOM     40  C4  SGN C   3      15.656  19.801  38.3890  0.00  0.00     0.000 C
ATOM     41  C5  SGN C   3      16.079  19.270  39.7410  0.00  0.00     0.000 C
ATOM     42  O5  SGN C   3      15.373  19.968  40.7780  0.00  0.00     0.000 O
ATOM     43   O  SGN C   3      13.704  20.152  37.0030  0.00  0.00     0.000 O
ATOM     45  HD  SGN C   3      14.513  19.857  36.9070  0.00  0.00     0.000 HD
BRANCH 38 47
ATOM     45   N  SGN C   3      12.678  21.435  39.8690  0.00  0.00     0.000 N
ATOM     47  HD  SGN C   3      13.411  21.126  39.5260  0.00  0.00     0.000 HD
ATOM     47   S  SGN C   3      11.136  21.094  40.0500  0.00  0.00     0.000 S
ATOM     48   O  SGN C   3      10.516  20.822  38.8010  0.00  0.00     0.000 OA
ATOM     49   O  SGN C   3      11.057  20.071  41.0410  0.00  0.00     0.000 OA
ATOM     50   O  SGN C   3      10.607  22.364  40.5430  0.00  0.00     0.000 OA
ENDBRANCH 38 47
BRANCH 41 51
ATOM     51   C  SGN C   3      17.550  19.409  40.0250  0.00  0.00     0.000 C
ATOM     52   O  SGN C   3      19.623  22.489  39.7210  0.00  0.00     0.000 OA
ATOM     53   O  SGN C   3      19.799  20.681  41.2800  0.00  0.00     0.000 OA
ATOM     54   O  SGN C   3      20.178  20.309  38.9390  0.00  0.00     0.000 OA
ATOM     55   O  SGN C   3      17.925  20.754  39.8310  0.00  0.00     0.000 O
ATOM     56   S  SGN C   3      19.532  21.088  39.9530  0.00  0.00     0.000 S
ENDBRANCH 41 51
BRANCH 37 57
ATOM     57  O4  IDS C   4      13.751  18.420  40.9390  0.00  0.00     0.000 O
BRANCH 57 61
ATOM     58  C1  IDS C   4      13.136  15.762  43.5900  0.00  0.00     0.000 C
ATOM     59  C2  IDS C   4      12.775  17.181  43.8980  0.00  0.00     0.000 C
ATOM     60  C3  IDS C   4      13.806  18.182  43.3710  0.00  0.00     0.000 C
ATOM     61  C4  IDS C   4      14.470  17.841  42.0440  0.00  0.00     0.000 C
ATOM     62  C5  IDS C   4      14.602  16.323  41.8770  0.00  0.00     0.000 C
ATOM     63  O5  IDS C   4      13.394  15.650  42.2010  0.00  0.00     0.000 O
ATOM     64   O  IDS C   4      14.808  18.244  44.3680  0.00  0.00     0.000 O
ATOM     66  HD  IDS C   4      15.551  17.912  44.0720  0.00  0.00     0.000 HD
BRANCH 59 66
ATOM     66   O  IDS C   4      11.482  17.555  43.2930  0.00  0.00     0.000 O
ATOM     67   S  IDS C   4      10.275  17.810  44.2970  0.00  0.00     0.000 S
ATOM     68   O  IDS C   4      10.705  18.971  45.0390  0.00  0.00     0.000 OA
ATOM     69   O  IDS C   4       9.120  18.022  43.4470  0.00  0.00     0.000 OA
ATOM     70   O  IDS C   4      10.169  16.637  45.1510  0.00  0.00     0.000 OA
ENDBRANCH 59 66
BRANCH 62 71
ATOM     71   C  IDS C   4      14.933  15.908  40.4560  0.00  0.00     0.000 C
ATOM     72   O  IDS C   4      16.076  15.988  40.0480  0.00  0.00     0.000 OA
ATOM     73   O  IDS C   4      13.996  15.587  39.6970  0.00  0.00     0.000 OA
ENDBRANCH 62 71
BRANCH 58 74
ATOM     74  O4  SGN C   5      13.995  15.183  44.4760  0.00  0.00     0.000 O
BRANCH 74 78
ATOM     75  C1  SGN C   5      15.064  11.677  46.4790  0.00  0.00     0.000 C
ATOM     76  C2  SGN C   5      15.649  11.852  45.0650  0.00  0.00     0.000 C
ATOM     77  C3  SGN C   5      15.473  13.298  44.5800  0.00  0.00     0.000 C
ATOM     78  C4  SGN C   5      14.050  13.793  44.7990  0.00  0.00     0.000 C
ATOM     79  C5  SGN C   5      13.651  13.565  46.2500  0.00  0.00     0.000 C
ATOM     80  O5  SGN C   5      13.725  12.148  46.5560  0.00  0.00     0.000 O
ATOM     81   O  SGN C   5      15.820  13.368  43.2010  0.00  0.00     0.000 O
ATOM     83  HD  SGN C   5      16.471  12.900  42.8720  0.00  0.00     0.000 HD
BRANCH 76 85
ATOM     83   N  SGN C   5      16.287  10.537  45.2000  0.00  0.00     0.000 N
ATOM     85  HD  SGN C   5      16.955  10.026  45.4080  0.00  0.00     0.000 HD
ATOM     85   S  SGN C   5      17.796  10.092  44.8540  0.00  0.00     0.000 S
ATOM     86   O  SGN C   5      17.998   8.724  45.1840  0.00  0.00     0.000 OA
ATOM     87   O  SGN C   5      18.048  10.476  43.5110  0.00  0.00     0.000 OA
ATOM     88   O  SGN C   5      18.475  10.998  45.8770  0.00  0.00     0.000 OA
ENDBRANCH 76 85
BRANCH 79 89
ATOM     89   C  SGN C   5      12.253  14.050  46.5740  0.00  0.00     0.000 C
ATOM     90   O  SGN C   5      12.032  13.985  48.0050  0.00  0.00     0.000 O
ATOM     91   S  SGN C   5      11.045  15.084  48.6330  0.00  0.00     0.000 S
ATOM     92   O  SGN C   5      11.531  16.365  48.1910  0.00  0.00     0.000 OA
ATOM     93   O  SGN C   5       9.723  14.797  48.1400  0.00  0.00     0.000 OA
ATOM     94   O  SGN C   5      11.180  14.878  50.0490  0.00  0.00     0.000 OA
ENDBRANCH 79 89
BRANCH 75 95
ATOM     95  O4  BDP C   6      15.860  12.421  47.3050  0.00  0.00     0.000 O
BRANCH 95 99
ATOM     96  C1  BDP C   6      16.161  12.286  51.5870  0.00  0.00     0.000 C
ATOM     97  C2  BDP C   6      15.670  11.066  50.8590  0.00  0.00     0.000 C
ATOM     98  C3  BDP C   6      15.955  11.071  49.3500  0.00  0.00     0.000 C
ATOM     99  C4  BDP C   6      15.545  12.390  48.7140  0.00  0.00     0.000 C
ATOM    100  C5  BDP C   6      16.155  13.536  49.5540  0.00  0.00     0.000 C
ATOM    101  O5  BDP C   6      15.575  13.346  50.8550  0.00  0.00     0.000 O
BRANCH 100 102
ATOM    102   C  BDP C   6      15.748  14.901  49.0590  0.00  0.00     0.000 C
ATOM    103   O  BDP C   6      14.664  15.419  49.3630  0.00  0.00     0.000 OA
ATOM    104   O  BDP C   6      16.556  15.497  48.3370  0.00  0.00     0.000 OA
ENDBRANCH 100 102
ENDBRANCH 95 99
ENDBRANCH 75 95
ENDBRANCH 74 78
ENDBRANCH 58 74
ENDBRANCH 57 61
ENDBRANCH 37 57
ENDBRANCH 36 40
ENDBRANCH 23 36
ENDBRANCH 22 26
ENDBRANCH 1 22
TORSDOF 20
ENDMDL
MODEL 4
REMARK VINA RESULT:      -7.1     28.060     32.224
ROOT
ATOM      1  C1  NGY C   1      12.624  23.911  23.4870  0.00  0.00     0.000 C
ATOM      2  C2  NGY C   1      12.002  22.989  24.5270  0.00  0.00     0.000 C
ATOM      3  C3  NGY C   1      13.071  22.482  25.4900  0.00  0.00     0.000 C
ATOM      4  C4  NGY C   1      14.179  21.840  24.6770  0.00  0.00     0.000 C
ATOM      5  C5  NGY C   1      14.768  22.888  23.7380  0.00  0.00     0.000 C
ATOM      6  O5  NGY C   1      13.725  23.322  22.8280  0.00  0.00     0.000 O
ATOM      7   O  NGY C   1      12.481  21.569  26.4040  0.00  0.00     0.000 O
ATOM      9  HD  NGY C   1      11.868  20.957  26.3870  0.00  0.00     0.000 HD
ATOM      9   O  NGY C   1      15.192  21.316  25.5230  0.00  0.00     0.000 O
ATOM     11  HD  NGY C   1      14.579  20.705  25.5060  0.00  0.00     0.000 HD
ENDROOT
BRANCH 2 13
ATOM     11   N  NGY C   1      11.014  23.601  25.3820  0.00  0.00     0.000 N
ATOM     13  HD  NGY C   1      10.337  23.096  25.1890  0.00  0.00     0.000 HD
ATOM     13   C  NGY C   1       9.760  23.154  25.4310  0.00  0.00     0.000 C
ATOM     14   O  NGY C   1       9.359  22.295  24.6450  0.00  0.00     0.000 OA
ATOM     15   C  NGY C   1       8.882  23.728  26.5020  0.00  0.00     0.000 C
ENDBRANCH 2 13
BRANCH 5 16
ATOM     16   C  NGY C   1      15.887  22.407  22.8700  0.00  0.00     0.000 C
ATOM     17   O  NGY C   1      19.429  22.569  23.8120  0.00  0.00     0.000 OA
ATOM     18   O  NGY C   1      17.128  22.819  23.4490  0.00  0.00     0.000 O
ATOM     19   S  NGY C   1      18.401  22.046  22.9480  0.00  0.00     0.000 S
ATOM     20   O  NGY C   1      18.605  22.411  21.5700  0.00  0.00     0.000 OA
ATOM     21   O  NGY C   1      18.074  20.642  23.1340  0.00  0.00     0.000 OA
ENDBRANCH 5 16
BRANCH 1 22
ATOM     22  O4  BDP C   2      12.939  25.083  24.0790  0.00  0.00     0.000 O
BRANCH 22 26
ATOM     23  C1  BDP C   2      13.473  29.157  23.8050  0.00  0.00     0.000 C
ATOM     24  C2  BDP C   2      12.353  28.591  22.9650  0.00  0.00     0.000 C
ATOM     25  C3  BDP C   2      12.032  27.193  23.4260  0.00  0.00     0.000 C
ATOM     26  C4  BDP C   2      13.296  26.341  23.4480  0.00  0.00     0.000 C
ATOM     27  C5  BDP C   2      14.410  27.087  24.1710  0.00  0.00     0.000 C
ATOM     28  O5  BDP C   2      14.687  28.385  23.5850  0.00  0.00     0.000 O
ATOM     29   O  BDP C   2      11.125  29.296  23.1480  0.00  0.00     0.000 O
ATOM     31  HD  BDP C   2      10.400  28.824  23.1240  0.00  0.00     0.000 HD
ATOM     31   O  BDP C   2      11.097  26.657  22.4990  0.00  0.00     0.000 O
ATOM     33  HD  BDP C   2      10.371  26.184  22.4750  0.00  0.00     0.000 HD
BRANCH 27 33
ATOM     33   C  BDP C   2      15.721  26.337  24.1430  0.00  0.00     0.000 C
ATOM     34   O  BDP C   2      16.285  26.024  23.0670  0.00  0.00     0.000 OA
ATOM     35   O  BDP C   2      16.219  26.000  25.2040  0.00  0.00     0.000 OA
ENDBRANCH 27 33
BRANCH 23 36
ATOM     36  O4  SGN C   3      13.768  30.458  23.5760  0.00  0.00     0.000 O
BRANCH 36 40
ATOM     37  C1  SGN C   3      14.877  34.076  25.3400  0.00  0.00     0.000 C
ATOM     38  C2  SGN C   3      15.659  32.815  25.7440  0.00  0.00     0.000 C
ATOM     39  C3  SGN C   3      15.443  31.706  24.7250  0.00  0.00     0.000 C
ATOM     40  C4  SGN C   3      13.958  31.447  24.5920  0.00  0.00     0.000 C
ATOM     41  C5  SGN C   3      13.269  32.740  24.2170  0.00  0.00     0.000 C
ATOM     42  O5  SGN C   3      13.506  33.728  25.2310  0.00  0.00     0.000 O
ATOM     43   O  SGN C   3      16.128  30.536  25.1540  0.00  0.00     0.000 O
ATOM     45  HD  SGN C   3      15.449  30.317  24.6630  0.00  0.00     0.000 HD
BRANCH 38 47
ATOM     45   N  SGN C   3      15.953  33.453  27.0400  0.00  0.00     0.000 N
ATOM     47  HD  SGN C   3      15.402  33.002  26.5460  0.00  0.00     0.000 HD
ATOM     47   S  SGN C   3      17.493  33.814  27.1920  0.00  0.00     0.000 S
ATOM     48   O  SGN C   3      18.297  32.645  27.2450  0.00  0.00     0.000 OA
ATOM     49   O  SGN C   3      17.796  34.753  26.1620  0.00  0.00     0.000 OA
ATOM     50   O  SGN C   3      17.523  34.437  28.5140  0.00  0.00     0.000 OA
ENDBRANCH 38 47
BRANCH 41 51
ATOM     51   C  SGN C   3      11.779  32.617  24.0480  0.00  0.00     0.000 C
ATOM     52   O  SGN C   3       9.878  32.447  20.8480  0.00  0.00     0.000 OA
ATOM     53   O  SGN C   3       9.426  31.388  22.9470  0.00  0.00     0.000 OA
ATOM     54   O  SGN C   3       9.357  33.781  22.7510  0.00  0.00     0.000 OA
ATOM     55   O  SGN C   3      11.482  32.535  22.6720  0.00  0.00     0.000 O
ATOM     56   S  SGN C   3       9.886  32.539  22.2680  0.00  0.00     0.000 S
ENDBRANCH 41 51
BRANCH 37 57
ATOM     57  O4  IDS C   4      15.268  34.631  24.1660  0.00  0.00     0.000 O
BRANCH 57 61
ATOM     58  C1  IDS C   4      15.721  38.332  23.4130  0.00  0.00     0.000 C
ATOM     59  C2  IDS C   4      15.299  37.926  24.7890  0.00  0.00     0.000 C
ATOM     60  C3  IDS C   4      14.282  36.782  24.7830  0.00  0.00     0.000 C
ATOM     61  C4  IDS C   4      14.453  35.725  23.7010  0.00  0.00     0.000 C
ATOM     62  C5  IDS C   4      15.041  36.342  22.4260  0.00  0.00     0.000 C
ATOM     63  O5  IDS C   4      16.152  37.179  22.7110  0.00  0.00     0.000 O
ATOM     64   O  IDS C   4      13.023  37.403  24.6040  0.00  0.00     0.000 O
ATOM     66  HD  IDS C   4      12.687  37.191  23.8340  0.00  0.00     0.000 HD
BRANCH 59 66
ATOM     66   O  IDS C   4      16.445  37.463  25.5930  0.00  0.00     0.000 O
ATOM     67   S  IDS C   4      16.856  38.370  26.8340  0.00  0.00     0.000 S
ATOM     68   O  IDS C   4      15.709  38.274  27.7050  0.00  0.00     0.000 OA
ATOM     69   O  IDS C   4      18.069  37.767  27.3520  0.00  0.00     0.000 OA
ATOM     70   O  IDS C   4      17.040  39.724  26.3350  0.00  0.00     0.000 OA
ENDBRANCH 59 66
BRANCH 62 71
ATOM     71   C  IDS C   4      15.551  35.305  21.4440  0.00  0.00     0.000 C
ATOM     72   O  IDS C   4      14.800  34.451  21.0130  0.00  0.00     0.000 OA
ATOM     73   O  IDS C   4      16.770  35.288  21.1780  0.00  0.00     0.000 OA
ENDBRANCH 62 71
BRANCH 58 74
ATOM     74  O4  SGN C   5      14.888  39.217  22.7930  0.00  0.00     0.000 O
BRANCH 74 78
ATOM     75  C1  SGN C   5      14.758  41.846  19.5510  0.00  0.00     0.000 C
ATOM     76  C2  SGN C   5      13.716  40.711  19.5430  0.00  0.00     0.000 C
ATOM     77  C3  SGN C   5      13.638  40.037  20.9190  0.00  0.00     0.000 C
ATOM     78  C4  SGN C   5      15.021  39.692  21.4540  0.00  0.00     0.000 C
ATOM     79  C5  SGN C   5      15.904  40.931  21.4110  0.00  0.00     0.000 C
ATOM     80  O5  SGN C   5      16.016  41.400  20.0420  0.00  0.00     0.000 O
ATOM     81   O  SGN C   5      12.836  38.865  20.8140  0.00  0.00     0.000 O
ATOM     83  HD  SGN C   5      12.138  38.836  20.3020  0.00  0.00     0.000 HD
BRANCH 76 85
ATOM     83   N  SGN C   5      12.407  41.277  19.1930  0.00  0.00     0.000 N
ATOM     85  HD  SGN C   5      11.671  41.282  18.7380  0.00  0.00     0.000 HD
ATOM     85   S  SGN C   5      11.724  41.456  17.7450  0.00  0.00     0.000 S
ATOM     86   O  SGN C   5      10.422  42.012  17.8760  0.00  0.00     0.000 OA
ATOM     87   O  SGN C   5      12.648  42.159  16.9300  0.00  0.00     0.000 OA
ATOM     88   O  SGN C   5      11.643  39.967  17.4160  0.00  0.00     0.000 OA
ENDBRANCH 76 85
BRANCH 79 89
ATOM     89   C  SGN C   5      17.301  40.694  21.9490  0.00  0.00     0.000 C
ATOM     90   O  SGN C   5      18.095  39.995  20.9590  0.00  0.00     0.000 O
ATOM     91   S  SGN C   5      19.669  40.309  20.9440  0.00  0.00     0.000 S
ATOM     92   O  SGN C   5      19.797  41.741  20.8670  0.00  0.00     0.000 OA
ATOM     93   O  SGN C   5      20.219  39.772  22.1620  0.00  0.00     0.000 OA
ATOM     94   O  SGN C   5      20.131  39.629  19.7650  0.00  0.00     0.000 OA
ENDBRANCH 79 89
BRANCH 75 95
ATOM     95  O4  BDP C   6      14.255  42.807  20.3820  0.00  0.00     0.000 O
BRANCH 95 99
ATOM     96  C1  BDP C   6      14.587  47.086  20.2140  0.00  0.00     0.000 C
ATOM     97  C2  BDP C   6      14.524  46.316  18.9250  0.00  0.00     0.000 C
ATOM     98  C3  BDP C   6      14.028  44.869  19.0740  0.00  0.00     0.000 C
ATOM     99  C4  BDP C   6      14.754  44.150  20.2010  0.00  0.00     0.000 C
ATOM    100  C5  BDP C   6      14.700  45.051  21.4570  0.00  0.00     0.000 C
ATOM    101  O5  BDP C   6      15.375  46.249  21.0410  0.00  0.00     0.000 O
BRANCH 100 102
ATOM    102   C  BDP C   6      15.459  44.471  22.6220  0.00  0.00     0.000 C
ATOM    103   O  BDP C   6      14.923  43.732  23.4610  0.00  0.00     0.000 OA
ATOM    104   O  BDP C   6      16.660  44.755  22.7040  0.00  0.00     0.000 OA
ENDBRANCH 100 102
ENDBRANCH 95 99
ENDBRANCH 75 95
ENDBRANCH 74 78
ENDBRANCH 58 74
ENDBRANCH 57 61
ENDBRANCH 37 57
ENDBRANCH 36 40
ENDBRANCH 23 36
ENDBRANCH 22 26
ENDBRANCH 1 22
TORSDOF 20
ENDMDL
MODEL 5
REMARK VINA RESULT:      -6.5      5.145      6.631
ROOT
ATOM      1  C1  NGY C   1      22.609  12.188  44.5660  0.00  0.00     0.000 C
ATOM      2  C2  NGY C   1      22.713  13.180  45.7160  0.00  0.00     0.000 C
ATOM      3  C3  NGY C   1      22.467  12.475  47.0460  0.00  0.00     0.000 C
ATOM      4  C4  NGY C   1      21.132  11.760  46.9650  0.00  0.00     0.000 C
ATOM      5  C5  NGY C   1      21.190  10.741  45.8300  0.00  0.00     0.000 C
ATOM      6  O5  NGY C   1      21.401  11.458  44.5860  0.00  0.00     0.000 O
ATOM      7   O  NGY C   1      22.497  13.432  48.0940  0.00  0.00     0.000 O
ATOM      9  HD  NGY C   1      22.253  14.255  48.2130  0.00  0.00     0.000 HD
ATOM      9   O  NGY C   1      20.828  11.109  48.1900  0.00  0.00     0.000 O
ATOM     11  HD  NGY C   1      20.585  11.932  48.3090  0.00  0.00     0.000 HD
ENDROOT
BRANCH 2 13
ATOM     11   N  NGY C   1      23.937  13.876  45.3960  0.00  0.00     0.000 N
ATOM     13  HD  NGY C   1      23.772  14.628  45.7930  0.00  0.00     0.000 HD
ATOM     13   C  NGY C   1      24.157  15.125  45.8040  0.00  0.00     0.000 C
ATOM     14   O  NGY C   1      23.269  15.783  46.3470  0.00  0.00     0.000 OA
ATOM     15   C  NGY C   1      25.538  15.668  45.5940  0.00  0.00     0.000 C
ENDBRANCH 2 13
BRANCH 5 16
ATOM     16   C  NGY C   1      19.941   9.943  45.6290  0.00  0.00     0.000 C
ATOM     17   O  NGY C   1      16.677  11.410  44.8230  0.00  0.00     0.000 OA
ATOM     18   O  NGY C   1      18.830  10.839  45.5480  0.00  0.00     0.000 O
ATOM     19   S  NGY C   1      17.525  10.248  44.9020  0.00  0.00     0.000 S
ATOM     20   O  NGY C   1      17.013   9.256  45.8110  0.00  0.00     0.000 OA
ATOM     21   O  NGY C   1      17.963   9.699  43.6300  0.00  0.00     0.000 OA
ENDBRANCH 5 16
BRANCH 1 22
ATOM     22  O4  BDP C   2      23.698  11.390  44.5800  0.00  0.00     0.000 O
BRANCH 22 26
ATOM     23  C1  BDP C   2      26.700  10.148  42.0480  0.00  0.00     0.000 C
ATOM     24  C2  BDP C   2      25.650  11.036  41.4240  0.00  0.00     0.000 C
ATOM     25  C3  BDP C   2      24.843  11.703  42.5080  0.00  0.00     0.000 C
ATOM     26  C4  BDP C   2      24.293  10.660  43.4750  0.00  0.00     0.000 C
ATOM     27  C5  BDP C   2      25.407   9.713  43.9020  0.00  0.00     0.000 C
ATOM     28  O5  BDP C   2      26.055   9.066  42.7770  0.00  0.00     0.000 O
ATOM     29   O  BDP C   2      26.219  12.130  40.7060  0.00  0.00     0.000 O
ATOM     31  HD  BDP C   2      25.787  12.880  40.7370  0.00  0.00     0.000 HD
ATOM     31   O  BDP C   2      23.774  12.386  41.8660  0.00  0.00     0.000 O
ATOM     33  HD  BDP C   2      23.342  13.136  41.8960  0.00  0.00     0.000 HD
BRANCH 27 33
ATOM     33   C  BDP C   2      24.907   8.595  44.7860  0.00  0.00     0.000 C
ATOM     34   O  BDP C   2      23.705   8.508  45.1320  0.00  0.00     0.000 OA
ATOM     35   O  BDP C   2      25.712   7.777  45.1980  0.00  0.00     0.000 OA
ENDBRANCH 27 33
BRANCH 23 36
ATOM     36  O4  SGN C   3      27.578   9.591  41.1820  0.00  0.00     0.000 O
BRANCH 36 40
ATOM     37  C1  SGN C   3      31.369   7.844  41.1740  0.00  0.00     0.000 C
ATOM     38  C2  SGN C   3      30.189   6.990  40.6830  0.00  0.00     0.000 C
ATOM     39  C3  SGN C   3      29.000   7.875  40.3360  0.00  0.00     0.000 C
ATOM     40  C4  SGN C   3      28.644   8.711  41.5470  0.00  0.00     0.000 C
ATOM     41  C5  SGN C   3      29.865   9.496  41.9740  0.00  0.00     0.000 C
ATOM     42  O5  SGN C   3      30.933   8.593  42.2980  0.00  0.00     0.000 O
ATOM     43   O  SGN C   3      27.906   7.057  39.9420  0.00  0.00     0.000 O
ATOM     45  HD  SGN C   3      27.613   7.800  40.2770  0.00  0.00     0.000 HD
BRANCH 38 47
ATOM     45   N  SGN C   3      30.680   6.288  39.4840  0.00  0.00     0.000 N
ATOM     47  HD  SGN C   3      30.379   7.017  39.8410  0.00  0.00     0.000 HD
ATOM     47   S  SGN C   3      31.394   4.915  39.8470  0.00  0.00     0.000 S
ATOM     48   O  SGN C   3      32.592   5.131  40.5790  0.00  0.00     0.000 OA
ATOM     49   O  SGN C   3      30.406   4.092  40.4640  0.00  0.00     0.000 OA
ATOM     50   O  SGN C   3      31.764   4.413  38.5250  0.00  0.00     0.000 OA
ENDBRANCH 38 47
BRANCH 41 51
ATOM     51   C  SGN C   3      29.641  10.377  43.1730  0.00  0.00     0.000 C
ATOM     52   O  SGN C   3      30.501   9.622  46.7180  0.00  0.00     0.000 OA
ATOM     53   O  SGN C   3      30.521  11.716  45.5570  0.00  0.00     0.000 OA
ATOM     54   O  SGN C   3      28.458  10.538  45.9070  0.00  0.00     0.000 OA
ATOM     55   O  SGN C   3      30.157   9.731  44.3150  0.00  0.00     0.000 O
ATOM     56   S  SGN C   3      29.882  10.472  45.7590  0.00  0.00     0.000 S
ENDBRANCH 41 51
BRANCH 37 57
ATOM     57  O4  IDS C   4      31.864   8.708  40.2550  0.00  0.00     0.000 O
BRANCH 57 61
ATOM     58  C1  IDS C   4      34.802   9.574  37.9990  0.00  0.00     0.000 C
ATOM     59  C2  IDS C   4      34.575   8.142  38.3630  0.00  0.00     0.000 C
ATOM     60  C3  IDS C   4      34.152   7.962  39.8240  0.00  0.00     0.000 C
ATOM     61  C4  IDS C   4      33.256   9.044  40.4110  0.00  0.00     0.000 C
ATOM     62  C5  IDS C   4      33.565  10.407  39.7800  0.00  0.00     0.000 C
ATOM     63  O5  IDS C   4      33.656  10.324  38.3650  0.00  0.00     0.000 O
ATOM     64   O  IDS C   4      35.360   7.936  40.5600  0.00  0.00     0.000 O
ATOM     66  HD  IDS C   4      35.421   8.635  41.0680  0.00  0.00     0.000 HD
BRANCH 59 66
ATOM     66   O  IDS C   4      33.509   7.535  37.5420  0.00  0.00     0.000 O
ATOM     67   S  IDS C   4      33.980   6.576  36.3630  0.00  0.00     0.000 S
ATOM     68   O  IDS C   4      34.603   5.477  37.0620  0.00  0.00     0.000 OA
ATOM     69   O  IDS C   4      32.764   6.237  35.6500  0.00  0.00     0.000 OA
ATOM     70   O  IDS C   4      34.943   7.318  35.5630  0.00  0.00     0.000 OA
ENDBRANCH 59 66
BRANCH 62 71
ATOM     71   C  IDS C   4      32.497  11.447  40.0600  0.00  0.00     0.000 C
ATOM     72   O  IDS C   4      31.772  11.835  39.1640  0.00  0.00     0.000 OA
ATOM     73   O  IDS C   4      32.454  11.964  41.1950  0.00  0.00     0.000 OA
ENDBRANCH 62 71
BRANCH 58 74
ATOM     74  O4  SGN C   5      36.040  10.057  38.3060  0.00  0.00     0.000 O
BRANCH 74 78
ATOM     75  C1  SGN C   5      38.750  13.042  37.2160  0.00  0.00     0.000 C
ATOM     76  C2  SGN C   5      37.274  13.308  36.8640  0.00  0.00     0.000 C
ATOM     77  C3  SGN C   5      36.355  12.328  37.6050  0.00  0.00     0.000 C
ATOM     78  C4  SGN C   5      36.842  10.892  37.4710  0.00  0.00     0.000 C
ATOM     79  C5  SGN C   5      38.305  10.812  37.8820  0.00  0.00     0.000 C
ATOM     80  O5  SGN C   5      39.097  11.676  37.0250  0.00  0.00     0.000 O
ATOM     81   O  SGN C   5      35.033  12.457  37.0920  0.00  0.00     0.000 O
ATOM     83  HD  SGN C   5      34.710  13.225  36.8570  0.00  0.00     0.000 HD
BRANCH 76 85
ATOM     83   N  SGN C   5      36.692  14.478  36.1950  0.00  0.00     0.000 N
ATOM     85  HD  SGN C   5      36.754  15.254  35.8150  0.00  0.00     0.000 HD
ATOM     85   S  SGN C   5      37.039  16.040  36.3800  0.00  0.00     0.000 S
ATOM     86   O  SGN C   5      36.259  16.831  35.4920  0.00  0.00     0.000 OA
ATOM     87   O  SGN C   5      36.934  16.330  37.7650  0.00  0.00     0.000 OA
ATOM     88   O  SGN C   5      38.482  15.948  35.8920  0.00  0.00     0.000 OA
ENDBRANCH 76 85
BRANCH 79 89
ATOM     89   C  SGN C   5      38.878   9.411  37.8050  0.00  0.00     0.000 C
ATOM     90   O  SGN C   5      38.665   8.725  39.0630  0.00  0.00     0.000 O
ATOM     91   S  SGN C   5      38.461   7.135  38.9920  0.00  0.00     0.000 S
ATOM     92   O  SGN C   5      37.413   6.902  38.0330  0.00  0.00     0.000 OA
ATOM     93   O  SGN C   5      39.719   6.565  38.5820  0.00  0.00     0.000 OA
ATOM     94   O  SGN C   5      38.093   6.788  40.3380  0.00  0.00     0.000 OA
ENDBRANCH 79 89
BRANCH 75 95
ATOM     95  O4  BDP C   6      38.883  13.369  38.5350  0.00  0.00     0.000 O
BRANCH 95 99
ATOM     96  C1  BDP C   6      42.242  15.154  40.5290  0.00  0.00     0.000 C
ATOM     97  C2  BDP C   6      42.088  15.361  39.0490  0.00  0.00     0.000 C
ATOM     98  C3  BDP C   6      40.692  15.025  38.5030  0.00  0.00     0.000 C
ATOM     99  C4  BDP C   6      40.216  13.668  39.0010  0.00  0.00     0.000 C
ATOM    100  C5  BDP C   6      40.407  13.628  40.5360  0.00  0.00     0.000 C
ATOM    101  O5  BDP C   6      41.821  13.814  40.7050  0.00  0.00     0.000 O
BRANCH 100 102
ATOM    102   C  BDP C   6      40.039  12.294  41.1330  0.00  0.00     0.000 C
ATOM    103   O  BDP C   6      39.283  12.192  42.1100  0.00  0.00     0.000 OA
ATOM    104   O  BDP C   6      40.519  11.289  40.5950  0.00  0.00     0.000 OA
ENDBRANCH 100 102
ENDBRANCH 95 99
ENDBRANCH 75 95
ENDBRANCH 74 78
ENDBRANCH 58 74
ENDBRANCH 57 61
ENDBRANCH 37 57
ENDBRANCH 36 40
ENDBRANCH 23 36
ENDBRANCH 22 26
ENDBRANCH 1 22
TORSDOF 20
ENDMDL
MODEL 6
REMARK VINA RESULT:      -6.3     15.370     23.471
ROOT
ATOM      1  C1  NGY C   1      13.596  24.959  26.3010  0.00  0.00     0.000 C
ATOM      2  C2  NGY C   1      12.283  24.672  25.5870  0.00  0.00     0.000 C
ATOM      3  C3  NGY C   1      12.376  23.360  24.8150  0.00  0.00     0.000 C
ATOM      4  C4  NGY C   1      13.578  23.435  23.8920  0.00  0.00     0.000 C
ATOM      5  C5  NGY C   1      14.832  23.641  24.7370  0.00  0.00     0.000 C
ATOM      6  O5  NGY C   1      14.708  24.909  25.4330  0.00  0.00     0.000 O
ATOM      7   O  NGY C   1      11.167  23.152  24.1000  0.00  0.00     0.000 O
ATOM      9  HD  NGY C   1      10.585  23.635  23.6770  0.00  0.00     0.000 HD
ATOM      9   O  NGY C   1      13.700  22.251  23.1180  0.00  0.00     0.000 O
ATOM     11  HD  NGY C   1      13.118  22.734  22.6950  0.00  0.00     0.000 HD
ENDROOT
BRANCH 2 13
ATOM     11   N  NGY C   1      11.315  24.905  26.6330  0.00  0.00     0.000 N
ATOM     13  HD  NGY C   1      10.637  25.128  26.1420  0.00  0.00     0.000 HD
ATOM     13   C  NGY C   1      10.068  25.287  26.3580  0.00  0.00     0.000 C
ATOM     14   O  NGY C   1       9.734  25.594  25.2130  0.00  0.00     0.000 OA
ATOM     15   C  NGY C   1       9.100  25.295  27.5020  0.00  0.00     0.000 C
ENDBRANCH 2 13
BRANCH 5 16
ATOM     16   C  NGY C   1      16.110  23.727  23.9660  0.00  0.00     0.000 C
ATOM     17   O  NGY C   1      18.136  20.816  23.0280  0.00  0.00     0.000 OA
ATOM     18   O  NGY C   1      16.735  22.440  23.9680  0.00  0.00     0.000 O
ATOM     19   S  NGY C   1      17.829  22.214  22.8630  0.00  0.00     0.000 S
ATOM     20   O  NGY C   1      18.945  23.063  23.1890  0.00  0.00     0.000 OA
ATOM     21   O  NGY C   1      17.170  22.573  21.6180  0.00  0.00     0.000 OA
ENDBRANCH 5 16
BRANCH 1 22
ATOM     22  O4  BDP C   2      13.716  24.113  27.3470  0.00  0.00     0.000 O
BRANCH 22 26
ATOM     23  C1  BDP C   2      14.778  23.405  31.2620  0.00  0.00     0.000 C
ATOM     24  C2  BDP C   2      14.035  24.696  31.0140  0.00  0.00     0.000 C
ATOM     25  C3  BDP C   2      13.397  24.658  29.6500  0.00  0.00     0.000 C
ATOM     26  C4  BDP C   2      14.438  24.317  28.5890  0.00  0.00     0.000 C
ATOM     27  C5  BDP C   2      15.244  23.101  29.0290  0.00  0.00     0.000 C
ATOM     28  O5  BDP C   2      15.880  23.287  30.3190  0.00  0.00     0.000 O
ATOM     29   O  BDP C   2      12.927  24.865  31.8990  0.00  0.00     0.000 O
ATOM     31  HD  BDP C   2      12.224  25.250  31.5700  0.00  0.00     0.000 HD
ATOM     31   O  BDP C   2      12.860  25.953  29.4080  0.00  0.00     0.000 O
ATOM     33  HD  BDP C   2      12.158  26.338  29.0800  0.00  0.00     0.000 HD
BRANCH 27 33
ATOM     33   C  BDP C   2      16.359  22.769  28.0660  0.00  0.00     0.000 C
ATOM     34   O  BDP C   2      17.150  23.642  27.6370  0.00  0.00     0.000 OA
ATOM     35   O  BDP C   2      16.463  21.618  27.6740  0.00  0.00     0.000 OA
ENDBRANCH 27 33
BRANCH 23 36
ATOM     36  O4  SGN C   3      15.288  23.260  32.5080  0.00  0.00     0.000 O
BRANCH 36 40
ATOM     37  C1  SGN C   3      15.630  20.628  35.7300  0.00  0.00     0.000 C
ATOM     38  C2  SGN C   3      16.800  20.696  34.7360  0.00  0.00     0.000 C
ATOM     39  C3  SGN C   3      16.722  21.970  33.9080  0.00  0.00     0.000 C
ATOM     40  C4  SGN C   3      15.376  22.022  33.2180  0.00  0.00     0.000 C
ATOM     41  C5  SGN C   3      14.288  21.926  34.2650  0.00  0.00     0.000 C
ATOM     42  O5  SGN C   3      14.420  20.694  34.9910  0.00  0.00     0.000 O
ATOM     43   O  SGN C   3      17.781  21.978  32.9580  0.00  0.00     0.000 O
ATOM     45  HD  SGN C   3      17.113  22.440  32.6590  0.00  0.00     0.000 HD
BRANCH 38 47
ATOM     45   N  SGN C   3      17.115  19.313  35.1370  0.00  0.00     0.000 N
ATOM     47  HD  SGN C   3      16.631  19.853  34.6630  0.00  0.00     0.000 HD
ATOM     47   S  SGN C   3      18.512  19.211  35.8870  0.00  0.00     0.000 S
ATOM     48   O  SGN C   3      19.591  19.523  35.0180  0.00  0.00     0.000 OA
ATOM     49   O  SGN C   3      18.397  19.997  37.0720  0.00  0.00     0.000 OA
ATOM     50   O  SGN C   3      18.583  17.783  36.1920  0.00  0.00     0.000 OA
ENDBRANCH 38 47
BRANCH 41 51
ATOM     51   C  SGN C   3      12.891  21.972  33.7070  0.00  0.00     0.000 C
ATOM     52   O  SGN C   3       9.968  23.820  35.0930  0.00  0.00     0.000 OA
ATOM     53   O  SGN C   3      10.542  23.364  32.8140  0.00  0.00     0.000 OA
ATOM     54   O  SGN C   3       9.998  21.570  34.3130  0.00  0.00     0.000 OA
ATOM     55   O  SGN C   3      12.107  22.827  34.5090  0.00  0.00     0.000 O
ATOM     56   S  SGN C   3      10.504  22.900  34.1480  0.00  0.00     0.000 S
ENDBRANCH 41 51
BRANCH 37 57
ATOM     57  O4  IDS C   4      15.615  21.618  36.6560  0.00  0.00     0.000 O
BRANCH 57 61
ATOM     58  C1  IDS C   4      14.751  20.813  40.2720  0.00  0.00     0.000 C
ATOM     59  C2  IDS C   4      14.607  19.737  39.2430  0.00  0.00     0.000 C
ATOM     60  C3  IDS C   4      14.030  20.255  37.9230  0.00  0.00     0.000 C
ATOM     61  C4  IDS C   4      14.448  21.656  37.5000  0.00  0.00     0.000 C
ATOM     62  C5  IDS C   4      14.687  22.545  38.7260  0.00  0.00     0.000 C
ATOM     63  O5  IDS C   4      15.479  21.889  39.7060  0.00  0.00     0.000 O
ATOM     64   O  IDS C   4      12.626  20.243  38.1000  0.00  0.00     0.000 O
ATOM     66  HD  IDS C   4      12.314  21.052  38.1060  0.00  0.00     0.000 HD
BRANCH 59 66
ATOM     66   O  IDS C   4      15.906  19.119  38.9170  0.00  0.00     0.000 O
ATOM     67   S  IDS C   4      16.056  17.568  39.2380  0.00  0.00     0.000 S
ATOM     68   O  IDS C   4      15.102  16.954  38.3450  0.00  0.00     0.000 OA
ATOM     69   O  IDS C   4      17.444  17.261  38.9540  0.00  0.00     0.000 OA
ATOM     70   O  IDS C   4      15.685  17.379  40.6320  0.00  0.00     0.000 OA
ENDBRANCH 59 66
BRANCH 62 71
ATOM     71   C  IDS C   4      15.426  23.828  38.3950  0.00  0.00     0.000 C
ATOM     72   O  IDS C   4      16.530  24.034  38.8620  0.00  0.00     0.000 OA
ATOM     73   O  IDS C   4      14.835  24.698  37.7260  0.00  0.00     0.000 OA
ENDBRANCH 62 71
BRANCH 58 74
ATOM     74  O4  SGN C   5      13.623  21.076  40.9910  0.00  0.00     0.000 O
BRANCH 74 78
ATOM     75  C1  SGN C   5      12.064  21.784  44.8000  0.00  0.00     0.000 C
ATOM     76  C2  SGN C   5      12.429  23.033  43.9770  0.00  0.00     0.000 C
ATOM     77  C3  SGN C   5      12.657  22.665  42.5050  0.00  0.00     0.000 C
ATOM     78  C4  SGN C   5      13.578  21.460  42.3650  0.00  0.00     0.000 C
ATOM     79  C5  SGN C   5      13.053  20.318  43.2230  0.00  0.00     0.000 C
ATOM     80  O5  SGN C   5      13.008  20.737  44.6130  0.00  0.00     0.000 O
ATOM     81   O  SGN C   5      13.202  23.792  41.8260  0.00  0.00     0.000 O
ATOM     83  HD  SGN C   5      12.952  24.599  42.0130  0.00  0.00     0.000 HD
BRANCH 76 85
ATOM     83   N  SGN C   5      11.229  23.768  44.3960  0.00  0.00     0.000 N
ATOM     85  HD  SGN C   5      10.771  24.496  44.4950  0.00  0.00     0.000 HD
ATOM     85   S  SGN C   5      11.109  25.187  45.1480  0.00  0.00     0.000 S
ATOM     86   O  SGN C   5       9.743  25.545  45.3200  0.00  0.00     0.000 OA
ATOM     87   O  SGN C   5      11.909  25.111  46.3170  0.00  0.00     0.000 OA
ATOM     88   O  SGN C   5      11.746  26.018  44.0360  0.00  0.00     0.000 OA
ENDBRANCH 76 85
BRANCH 79 89
ATOM     89   C  SGN C   5      13.892  19.060  43.1320  0.00  0.00     0.000 C
ATOM     90   O  SGN C   5      13.524  18.148  44.1950  0.00  0.00     0.000 O
ATOM     91   S  SGN C   5      13.660  16.580  43.8800  0.00  0.00     0.000 S
ATOM     92   O  SGN C   5      12.939  16.347  42.6560  0.00  0.00     0.000 OA
ATOM     93   O  SGN C   5      15.066  16.295  43.7530  0.00  0.00     0.000 OA
ATOM     94   O  SGN C   5      13.057  15.958  45.0270  0.00  0.00     0.000 OA
ENDBRANCH 79 89
BRANCH 75 95
ATOM     95  O4  BDP C   6      10.839  21.384  44.3470  0.00  0.00     0.000 O
BRANCH 95 99
ATOM     96  C1  BDP C   6       7.651  19.422  46.4530  0.00  0.00     0.000 C
ATOM     97  C2  BDP C   6       8.586  20.311  47.2240  0.00  0.00     0.000 C
ATOM     98  C3  BDP C   6       9.432  21.250  46.3510  0.00  0.00     0.000 C
ATOM     99  C4  BDP C   6      10.085  20.497  45.2020  0.00  0.00     0.000 C
ATOM    100  C5  BDP C   6       8.991  19.664  44.4930  0.00  0.00     0.000 C
ATOM    101  O5  BDP C   6       8.513  18.788  45.5260  0.00  0.00     0.000 O
BRANCH 100 102
ATOM    102   C  BDP C   6       9.541  18.811  43.3780  0.00  0.00     0.000 C
ATOM    103   O  BDP C   6       9.381  19.100  42.1830  0.00  0.00     0.000 OA
ATOM    104   O  BDP C   6      10.178  17.804  43.7070  0.00  0.00     0.000 OA
ENDBRANCH 100 102
ENDBRANCH 95 99
ENDBRANCH 75 95
ENDBRANCH 74 78
ENDBRANCH 58 74
ENDBRANCH 57 61
ENDBRANCH 37 57
ENDBRANCH 36 40
ENDBRANCH 23 36
ENDBRANCH 22 26
ENDBRANCH 1 22
TORSDOF 20
ENDMDL
MODEL 7
REMARK VINA RESULT:      -6.1      5.902      7.768
ROOT
ATOM      1  C1  NGY C   1      22.423  12.390  44.7890  0.00  0.00     0.000 C
ATOM      2  C2  NGY C   1      22.385  13.357  45.9650  0.00  0.00     0.000 C
ATOM      3  C3  NGY C   1      22.087  12.604  47.2580  0.00  0.00     0.000 C
ATOM      4  C4  NGY C   1      20.807  11.814  47.0650  0.00  0.00     0.000 C
ATOM      5  C5  NGY C   1      21.007  10.830  45.9160  0.00  0.00     0.000 C
ATOM      6  O5  NGY C   1      21.263  11.590  44.7060  0.00  0.00     0.000 O
ATOM      7   O  NGY C   1      21.984  13.535  48.3260  0.00  0.00     0.000 O
ATOM      9  HD  NGY C   1      21.684  14.338  48.4450  0.00  0.00     0.000 HD
ATOM      9   O  NGY C   1      20.457  11.115  48.2510  0.00  0.00     0.000 O
ATOM     11  HD  NGY C   1      20.156  11.919  48.3690  0.00  0.00     0.000 HD
ENDROOT
BRANCH 2 13
ATOM     11   N  NGY C   1      23.579  14.136  45.7390  0.00  0.00     0.000 N
ATOM     13  HD  NGY C   1      23.345  14.862  46.1500  0.00  0.00     0.000 HD
ATOM     13   C  NGY C   1      23.698  15.380  46.2000  0.00  0.00     0.000 C
ATOM     14   O  NGY C   1      22.741  15.964  46.7110  0.00  0.00     0.000 OA
ATOM     15   C  NGY C   1      25.052  16.013  46.0880  0.00  0.00     0.000 C
ENDBRANCH 2 13
BRANCH 5 16
ATOM     16   C  NGY C   1      19.827   9.965  45.6070  0.00  0.00     0.000 C
ATOM     17   O  NGY C   1      16.498  11.261  44.7750  0.00  0.00     0.000 OA
ATOM     18   O  NGY C   1      18.659  10.787  45.5440  0.00  0.00     0.000 O
ATOM     19   S  NGY C   1      17.423  10.157  44.8060  0.00  0.00     0.000 S
ATOM     20   O  NGY C   1      16.951   9.068  45.6200  0.00  0.00     0.000 OA
ATOM     21   O  NGY C   1      17.944   9.734  43.5160  0.00  0.00     0.000 OA
ENDBRANCH 5 16
BRANCH 1 22
ATOM     22  O4  BDP C   2      23.555  11.658  44.8660  0.00  0.00     0.000 O
BRANCH 22 26
ATOM     23  C1  BDP C   2      26.593  10.221  42.4840  0.00  0.00     0.000 C
ATOM     24  C2  BDP C   2      25.542  11.042  41.7730  0.00  0.00     0.000 C
ATOM     25  C3  BDP C   2      24.719  11.795  42.7850  0.00  0.00     0.000 C
ATOM     26  C4  BDP C   2      24.167  10.838  43.8360  0.00  0.00     0.000 C
ATOM     27  C5  BDP C   2      25.283   9.942  44.3560  0.00  0.00     0.000 C
ATOM     28  O5  BDP C   2      25.948   9.203  43.2990  0.00  0.00     0.000 O
ATOM     29   O  BDP C   2      26.111  12.073  40.9670  0.00  0.00     0.000 O
ATOM     31  HD  BDP C   2      25.673  12.819  40.9260  0.00  0.00     0.000 HD
ATOM     31   O  BDP C   2      23.652  12.410  42.0740  0.00  0.00     0.000 O
ATOM     33  HD  BDP C   2      23.214  13.156  42.0340  0.00  0.00     0.000 HD
BRANCH 27 33
ATOM     33   C  BDP C   2      24.782   8.902  45.3310  0.00  0.00     0.000 C
ATOM     34   O  BDP C   2      24.878   7.673  45.1010  0.00  0.00     0.000 OA
ATOM     35   O  BDP C   2      24.238   9.282  46.3540  0.00  0.00     0.000 OA
ENDBRANCH 27 33
BRANCH 23 36
ATOM     36  O4  SGN C   3      27.483   9.597  41.6790  0.00  0.00     0.000 O
BRANCH 36 40
ATOM     37  C1  SGN C   3      31.474   8.435  42.0670  0.00  0.00     0.000 C
ATOM     38  C2  SGN C   3      30.508   7.453  41.3860  0.00  0.00     0.000 C
ATOM     39  C3  SGN C   3      29.246   8.174  40.9360  0.00  0.00     0.000 C
ATOM     40  C4  SGN C   3      28.623   8.861  42.1320  0.00  0.00     0.000 C
ATOM     41  C5  SGN C   3      29.647   9.787  42.7510  0.00  0.00     0.000 C
ATOM     42  O5  SGN C   3      30.797   9.032  43.1620  0.00  0.00     0.000 O
ATOM     43   O  SGN C   3      28.346   7.232  40.3640  0.00  0.00     0.000 O
ATOM     45  HD  SGN C   3      27.904   7.899  40.6960  0.00  0.00     0.000 HD
BRANCH 38 47
ATOM     45   N  SGN C   3      31.313   6.970  40.2500  0.00  0.00     0.000 N
ATOM     47  HD  SGN C   3      30.856   7.610  40.6120  0.00  0.00     0.000 HD
ATOM     47   S  SGN C   3      32.112   5.642  40.6060  0.00  0.00     0.000 S
ATOM     48   O  SGN C   3      33.103   5.883  41.5950  0.00  0.00     0.000 OA
ATOM     49   O  SGN C   3      31.135   4.647  40.9070  0.00  0.00     0.000 OA
ATOM     50   O  SGN C   3      32.797   5.361  39.3460  0.00  0.00     0.000 OA
ENDBRANCH 38 47
BRANCH 41 51
ATOM     51   C  SGN C   3      29.149  10.539  43.9550  0.00  0.00     0.000 C
ATOM     52   O  SGN C   3      30.126  10.008  47.5100  0.00  0.00     0.000 OA
ATOM     53   O  SGN C   3      29.545  12.034  46.3760  0.00  0.00     0.000 OA
ATOM     54   O  SGN C   3      27.919  10.291  46.6610  0.00  0.00     0.000 OA
ATOM     55   O  SGN C   3      29.811  10.055  45.1010  0.00  0.00     0.000 O
ATOM     56   S  SGN C   3      29.301  10.653  46.5470  0.00  0.00     0.000 S
ENDBRANCH 41 51
BRANCH 37 57
ATOM     57  O4  IDS C   4      31.934   9.425  41.2630  0.00  0.00     0.000 O
BRANCH 57 61
ATOM     58  C1  IDS C   4      34.983  10.956  39.5800  0.00  0.00     0.000 C
ATOM     59  C2  IDS C   4      34.989   9.491  39.8820  0.00  0.00     0.000 C
ATOM     60  C3  IDS C   4      34.365   9.164  41.2410  0.00  0.00     0.000 C
ATOM     61  C4  IDS C   4      33.181  10.021  41.6700  0.00  0.00     0.000 C
ATOM     62  C5  IDS C   4      33.314  11.446  41.1200  0.00  0.00     0.000 C
ATOM     63  O5  IDS C   4      33.664  11.448  39.7440  0.00  0.00     0.000 O
ATOM     64   O  IDS C   4      35.407   9.341  42.1820  0.00  0.00     0.000 O
ATOM     66  HD  IDS C   4      35.237  10.014  42.7000  0.00  0.00     0.000 HD
BRANCH 59 66
ATOM     66   O  IDS C   4      34.227   8.727  38.8770  0.00  0.00     0.000 O
ATOM     67   S  IDS C   4      35.074   7.818  37.8820  0.00  0.00     0.000 S
ATOM     68   O  IDS C   4      35.659   6.831  38.7570  0.00  0.00     0.000 OA
ATOM     69   O  IDS C   4      34.107   7.299  36.9350  0.00  0.00     0.000 OA
ATOM     70   O  IDS C   4      36.088   8.670  37.2800  0.00  0.00     0.000 OA
ENDBRANCH 59 66
BRANCH 62 71
ATOM     71   C  IDS C   4      32.026  12.242  41.2160  0.00  0.00     0.000 C
ATOM     72   O  IDS C   4      31.332  12.400  40.2310  0.00  0.00     0.000 OA
ATOM     73   O  IDS C   4      31.759  12.810  42.2940  0.00  0.00     0.000 OA
ENDBRANCH 62 71
BRANCH 58 74
ATOM     74  O4  SGN C   5      36.026  11.657  40.1090  0.00  0.00     0.000 O
BRANCH 74 78
ATOM     75  C1  SGN C   5      38.981  14.528  39.4230  0.00  0.00     0.000 C
ATOM     76  C2  SGN C   5      37.586  15.068  39.7890  0.00  0.00     0.000 C
ATOM     77  C3  SGN C   5      36.698  13.947  40.3440  0.00  0.00     0.000 C
ATOM     78  C4  SGN C   5      36.742  12.708  39.4600  0.00  0.00     0.000 C
ATOM     79  C5  SGN C   5      38.189  12.303  39.2250  0.00  0.00     0.000 C
ATOM     80  O5  SGN C   5      38.897  13.391  38.5730  0.00  0.00     0.000 O
ATOM     81   O  SGN C   5      35.363  14.430  40.4620  0.00  0.00     0.000 O
ATOM     83  HD  SGN C   5      35.195  15.244  40.7030  0.00  0.00     0.000 HD
BRANCH 76 85
ATOM     83   N  SGN C   5      37.097  16.383  40.2240  0.00  0.00     0.000 N
ATOM     85  HD  SGN C   5      37.117  17.249  40.2180  0.00  0.00     0.000 HD
ATOM     85   S  SGN C   5      37.929  17.710  40.5990  0.00  0.00     0.000 S
ATOM     86   O  SGN C   5      37.045  18.775  40.9260  0.00  0.00     0.000 OA
ATOM     87   O  SGN C   5      38.887  17.341  41.5800  0.00  0.00     0.000 OA
ATOM     88   O  SGN C   5      38.537  17.922  39.2140  0.00  0.00     0.000 OA
ENDBRANCH 76 85
BRANCH 79 89
ATOM     89   C  SGN C   5      38.338  11.060  38.3710  0.00  0.00     0.000 C
ATOM     90   O  SGN C   5      39.645  10.474  38.5840  0.00  0.00     0.000 O
ATOM     91   S  SGN C   5      39.751   8.878  38.4470  0.00  0.00     0.000 S
ATOM     92   O  SGN C   5      38.735   8.328  39.3060  0.00  0.00     0.000 OA
ATOM     93   O  SGN C   5      39.531   8.557  37.0600  0.00  0.00     0.000 OA
ATOM     94   O  SGN C   5      41.089   8.596  38.8900  0.00  0.00     0.000 OA
ENDBRANCH 79 89
BRANCH 75 95
ATOM     95  O4  BDP C   6      39.565  14.174  40.6060  0.00  0.00     0.000 O
BRANCH 95 99
ATOM     96  C1  BDP C   6      43.693  14.766  41.6330  0.00  0.00     0.000 C
ATOM     97  C2  BDP C   6      43.162  15.407  40.3820  0.00  0.00     0.000 C
ATOM     98  C3  BDP C   6      41.629  15.464  40.3010  0.00  0.00     0.000 C
ATOM     99  C4  BDP C   6      41.007  14.114  40.6290  0.00  0.00     0.000 C
ATOM    100  C5  BDP C   6      41.629  13.610  41.9520  0.00  0.00     0.000 C
ATOM    101  O5  BDP C   6      43.031  13.515  41.6510  0.00  0.00     0.000 O
BRANCH 100 102
ATOM    102   C  BDP C   6      41.143  12.236  42.3370  0.00  0.00     0.000 C
ATOM    103   O  BDP C   6      40.882  11.366  41.4940  0.00  0.00     0.000 OA
ATOM    104   O  BDP C   6      41.025  12.004  43.5460  0.00  0.00     0.000 OA
ENDBRANCH 100 102
ENDBRANCH 95 99
ENDBRANCH 75 95
ENDBRANCH 74 78
ENDBRANCH 58 74
ENDBRANCH 57 61
ENDBRANCH 37 57
ENDBRANCH 36 40
ENDBRANCH 23 36
ENDBRANCH 22 26
ENDBRANCH 1 22
TORSDOF 20
ENDMDL
MODEL 8
REMARK VINA RESULT:      -6.0     30.911     37.123
ROOT
ATOM      1  C1  NGY C   1       8.790   5.926  64.5690  0.00  0.00     0.000 C
ATOM      2  C2  NGY C   1       8.379   4.654  65.2980  0.00  0.00     0.000 C
ATOM      3  C3  NGY C   1       9.471   4.229  66.2750  0.00  0.00     0.000 C
ATOM      4  C4  NGY C   1      10.775   4.110  65.5100  0.00  0.00     0.000 C
ATOM      5  C5  NGY C   1      11.111   5.469  64.9000  0.00  0.00     0.000 C
ATOM      6  O5  NGY C   1      10.060   5.819  63.9630  0.00  0.00     0.000 O
ATOM      7   O  NGY C   1       9.098   3.003  66.8880  0.00  0.00     0.000 O
ATOM      9  HD  NGY C   1       8.688   2.276  66.6590  0.00  0.00     0.000 HD
ATOM      9   O  NGY C   1      11.828   3.683  66.3620  0.00  0.00     0.000 O
ATOM     11  HD  NGY C   1      11.418   2.955  66.1330  0.00  0.00     0.000 HD
ENDROOT
BRANCH 2 13
ATOM     11   N  NGY C   1       7.336   4.408  66.2650  0.00  0.00     0.000 N
ATOM     13  HD  NGY C   1       6.703   4.172  65.7230  0.00  0.00     0.000 HD
ATOM     13   C  NGY C   1       6.120   4.009  65.8940  0.00  0.00     0.000 C
ATOM     14   O  NGY C   1       5.797   3.973  64.7060  0.00  0.00     0.000 OA
ATOM     15   C  NGY C   1       5.188   3.586  66.9880  0.00  0.00     0.000 C
ENDBRANCH 2 13
BRANCH 5 16
ATOM     16   C  NGY C   1      12.384   5.516  64.1170  0.00  0.00     0.000 C
ATOM     17   O  NGY C   1      13.175   8.111  61.6470  0.00  0.00     0.000 OA
ATOM     18   O  NGY C   1      12.264   6.521  63.1060  0.00  0.00     0.000 O
ATOM     19   S  NGY C   1      13.617   7.026  62.4860  0.00  0.00     0.000 S
ATOM     20   O  NGY C   1      14.170   5.936  61.7270  0.00  0.00     0.000 OA
ATOM     21   O  NGY C   1      14.426   7.404  63.6330  0.00  0.00     0.000 OA
ENDBRANCH 5 16
BRANCH 1 22
ATOM     22  O4  BDP C   2       8.711   6.964  65.4290  0.00  0.00     0.000 O
BRANCH 22 26
ATOM     23  C1  BDP C   2       8.430  11.013  66.1280  0.00  0.00     0.000 C
ATOM     24  C2  BDP C   2       7.542  10.480  65.0290  0.00  0.00     0.000 C
ATOM     25  C3  BDP C   2       7.466   8.979  65.1230  0.00  0.00     0.000 C
ATOM     26  C4  BDP C   2       8.868   8.379  65.1470  0.00  0.00     0.000 C
ATOM     27  C5  BDP C   2       9.726   9.111  66.1710  0.00  0.00     0.000 C
ATOM     28  O5  BDP C   2       9.792  10.540  65.9280  0.00  0.00     0.000 O
ATOM     29   O  BDP C   2       6.184  10.896  65.1770  0.00  0.00     0.000 O
ATOM     31  HD  BDP C   2       5.577  10.325  64.9430  0.00  0.00     0.000 HD
ATOM     31   O  BDP C   2       6.761   8.528  63.9730  0.00  0.00     0.000 O
ATOM     33  HD  BDP C   2       6.153   7.957  63.7400  0.00  0.00     0.000 HD
BRANCH 27 33
ATOM     33   C  BDP C   2      11.157   8.629  66.1750  0.00  0.00     0.000 C
ATOM     34   O  BDP C   2      11.961   8.923  65.2580  0.00  0.00     0.000 OA
ATOM     35   O  BDP C   2      11.523   7.905  67.0850  0.00  0.00     0.000 OA
ENDBRANCH 27 33
BRANCH 23 36
ATOM     36  O4  SGN C   3       8.477  12.361  66.2330  0.00  0.00     0.000 O
BRANCH 36 40
ATOM     37  C1  SGN C   3       8.924  15.591  68.8410  0.00  0.00     0.000 C
ATOM     38  C2  SGN C   3       9.998  14.492  68.8750  0.00  0.00     0.000 C
ATOM     39  C3  SGN C   3       9.937  13.649  67.6090  0.00  0.00     0.000 C
ATOM     40  C4  SGN C   3       8.539  13.086  67.4650  0.00  0.00     0.000 C
ATOM     41  C5  SGN C   3       7.550  14.230  67.4650  0.00  0.00     0.000 C
ATOM     42  O5  SGN C   3       7.658  14.966  68.6930  0.00  0.00     0.000 O
ATOM     43   O  SGN C   3      10.900  12.606  67.6940  0.00  0.00     0.000 O
ATOM     45  HD  SGN C   3      10.243  12.360  67.1870  0.00  0.00     0.000 HD
BRANCH 38 47
ATOM     45   N  SGN C   3      10.201  15.022  70.2350  0.00  0.00     0.000 N
ATOM     47  HD  SGN C   3       9.707  14.573  69.6830  0.00  0.00     0.000 HD
ATOM     47   S  SGN C   3      11.696  15.510  70.4680  0.00  0.00     0.000 S
ATOM     48   O  SGN C   3      12.608  14.422  70.4330  0.00  0.00     0.000 OA
ATOM     49   O  SGN C   3      11.928  16.572  69.5440  0.00  0.00     0.000 OA
ATOM     50   O  SGN C   3      11.637  15.998  71.8450  0.00  0.00     0.000 OA
ENDBRANCH 38 47
BRANCH 41 51
ATOM     51   C  SGN C   3       6.115  13.803  67.3210  0.00  0.00     0.000 C
ATOM     52   O  SGN C   3       4.289  11.302  69.3930  0.00  0.00     0.000 OA
ATOM     53   O  SGN C   3       3.482  13.305  68.3600  0.00  0.00     0.000 OA
ATOM     54   O  SGN C   3       4.271  11.477  67.0180  0.00  0.00     0.000 OA
ATOM     55   O  SGN C   3       5.812  12.874  68.3380  0.00  0.00     0.000 O
ATOM     56   S  SGN C   3       4.324  12.174  68.2690  0.00  0.00     0.000 S
ENDBRANCH 41 51
BRANCH 37 57
ATOM     57  O4  IDS C   4       9.069  16.494  67.8410  0.00  0.00     0.000 O
BRANCH 57 61
ATOM     58  C1  IDS C   4       9.642  20.040  66.5880  0.00  0.00     0.000 C
ATOM     59  C2  IDS C   4      10.453  19.547  67.7440  0.00  0.00     0.000 C
ATOM     60  C3  IDS C   4       9.635  18.703  68.7240  0.00  0.00     0.000 C
ATOM     61  C4  IDS C   4       8.558  17.812  68.1200  0.00  0.00     0.000 C
ATOM     62  C5  IDS C   4       7.969  18.451  66.8570  0.00  0.00     0.000 C
ATOM     63  O5  IDS C   4       8.984  18.936  65.9900  0.00  0.00     0.000 O
ATOM     64   O  IDS C   4       9.011  19.634  69.5870  0.00  0.00     0.000 O
ATOM     66  HD  IDS C   4       8.153  19.630  69.4680  0.00  0.00     0.000 HD
BRANCH 59 66
ATOM     66   O  IDS C   4      11.575  18.699  67.2970  0.00  0.00     0.000 O
ATOM     67   S  IDS C   4      13.025  19.354  67.3460  0.00  0.00     0.000 S
ATOM     68   O  IDS C   4      13.240  19.569  68.7570  0.00  0.00     0.000 OA
ATOM     69   O  IDS C   4      13.899  18.372  66.7370  0.00  0.00     0.000 OA
ATOM     70   O  IDS C   4      12.954  20.611  66.6170  0.00  0.00     0.000 OA
ENDBRANCH 59 66
BRANCH 62 71
ATOM     71   C  IDS C   4       7.152  17.480  66.0260  0.00  0.00     0.000 C
ATOM     72   O  IDS C   4       6.018  17.195  66.3600  0.00  0.00     0.000 OA
ATOM     73   O  IDS C   4       7.704  16.912  65.0620  0.00  0.00     0.000 OA
ENDBRANCH 62 71
BRANCH 58 74
ATOM     74  O4  SGN C   5       8.941  21.185  66.8240  0.00  0.00     0.000 O
BRANCH 74 78
ATOM     75  C1  SGN C   5       7.386  24.707  65.2050  0.00  0.00     0.000 C
ATOM     76  C2  SGN C   5       6.566  23.428  64.9520  0.00  0.00     0.000 C
ATOM     77  C3  SGN C   5       7.041  22.290  65.8650  0.00  0.00     0.000 C
ATOM     78  C4  SGN C   5       8.557  22.148  65.8430  0.00  0.00     0.000 C
ATOM     79  C5  SGN C   5       9.197  23.496  66.1360  0.00  0.00     0.000 C
ATOM     80  O5  SGN C   5       8.784  24.459  65.1300  0.00  0.00     0.000 O
ATOM     81   O  SGN C   5       6.419  21.077  65.4530  0.00  0.00     0.000 O
ATOM     83  HD  SGN C   5       5.602  21.060  65.1670  0.00  0.00     0.000 HD
BRANCH 76 85
ATOM     83   N  SGN C   5       5.620  24.235  64.1720  0.00  0.00     0.000 N
ATOM     85  HD  SGN C   5       4.897  24.706  64.0930  0.00  0.00     0.000 HD
ATOM     85   S  SGN C   5       4.010  24.240  64.2060  0.00  0.00     0.000 S
ATOM     86   O  SGN C   5       3.497  25.219  63.3110  0.00  0.00     0.000 OA
ATOM     87   O  SGN C   5       3.583  22.900  64.0110  0.00  0.00     0.000 OA
ATOM     88   O  SGN C   5       3.875  24.710  65.6520  0.00  0.00     0.000 OA
ENDBRANCH 76 85
BRANCH 79 89
ATOM     89   C  SGN C   5      10.712  23.453  66.1600  0.00  0.00     0.000 C
ATOM     90   O  SGN C   5      11.232  23.822  64.8590  0.00  0.00     0.000 O
ATOM     91   S  SGN C   5      12.652  24.571  64.8360  0.00  0.00     0.000 S
ATOM     92   O  SGN C   5      12.536  25.686  65.7390  0.00  0.00     0.000 OA
ATOM     93   O  SGN C   5      13.641  23.616  65.2640  0.00  0.00     0.000 OA
ATOM     94   O  SGN C   5      12.797  24.961  63.4600  0.00  0.00     0.000 OA
ENDBRANCH 79 89
BRANCH 75 95
ATOM     95  O4  BDP C   6       7.059  25.114  66.4680  0.00  0.00     0.000 O
BRANCH 95 99
ATOM     96  C1  BDP C   6       6.840  29.009  68.2650  0.00  0.00     0.000 C
ATOM     97  C2  BDP C   6       6.227  28.805  66.9080  0.00  0.00     0.000 C
ATOM     98  C3  BDP C   6       6.015  27.333  66.5240  0.00  0.00     0.000 C
ATOM     99  C4  BDP C   6       7.269  26.509  66.7780  0.00  0.00     0.000 C
ATOM    100  C5  BDP C   6       7.750  26.803  68.2180  0.00  0.00     0.000 C
ATOM    101  O5  BDP C   6       8.011  28.216  68.2030  0.00  0.00     0.000 O
BRANCH 100 102
ATOM    102   C  BDP C   6       9.038  26.096  68.5550  0.00  0.00     0.000 C
ATOM    103   O  BDP C   6       9.084  25.148  69.3520  0.00  0.00     0.000 OA
ATOM    104   O  BDP C   6      10.061  26.498  67.9880  0.00  0.00     0.000 OA
ENDBRANCH 100 102
ENDBRANCH 95 99
ENDBRANCH 75 95
ENDBRANCH 74 78
ENDBRANCH 58 74
ENDBRANCH 57 61
ENDBRANCH 37 57
ENDBRANCH 36 40
ENDBRANCH 23 36
ENDBRANCH 22 26
ENDBRANCH 1 22
TORSDOF 20
ENDMDL
MODEL 9
REMARK VINA RESULT:      -6.0     13.537     18.833
ROOT
ATOM      1  C1  NGY C   1      13.805  24.707  25.9410  0.00  0.00     0.000 C
ATOM      2  C2  NGY C   1      12.300  24.710  26.1740  0.00  0.00     0.000 C
ATOM      3  C3  NGY C   1      11.724  23.319  25.9230  0.00  0.00     0.000 C
ATOM      4  C4  NGY C   1      12.134  22.878  24.5310  0.00  0.00     0.000 C
ATOM      5  C5  NGY C   1      13.658  22.840  24.4590  0.00  0.00     0.000 C
ATOM      6  O5  NGY C   1      14.158  24.184  24.6790  0.00  0.00     0.000 O
ATOM      7   O  NGY C   1      10.313  23.364  26.0750  0.00  0.00     0.000 O
ATOM      9  HD  NGY C   1       9.671  23.921  25.9050  0.00  0.00     0.000 HD
ATOM      9   O  NGY C   1      11.598  21.599  24.2250  0.00  0.00     0.000 O
ATOM     11  HD  NGY C   1      10.957  22.156  24.0550  0.00  0.00     0.000 HD
ENDROOT
BRANCH 2 13
ATOM     11   N  NGY C   1      12.161  25.331  27.4690  0.00  0.00     0.000 N
ATOM     13  HD  NGY C   1      11.397  25.722  27.3500  0.00  0.00     0.000 HD
ATOM     13   C  NGY C   1      11.100  26.076  27.7760  0.00  0.00     0.000 C
ATOM     14   O  NGY C   1      10.266  26.380  26.9210  0.00  0.00     0.000 OA
ATOM     15   C  NGY C   1      10.963  26.494  29.2090  0.00  0.00     0.000 C
ENDBRANCH 2 13
BRANCH 5 16
ATOM     16   C  NGY C   1      14.221  22.410  23.1410  0.00  0.00     0.000 C
ATOM     17   O  NGY C   1      17.486  23.485  21.8580  0.00  0.00     0.000 OA
ATOM     18   O  NGY C   1      15.395  23.181  22.8690  0.00  0.00     0.000 O
ATOM     19   S  NGY C   1      16.361  22.587  21.7820  0.00  0.00     0.000 S
ATOM     20   O  NGY C   1      15.679  22.668  20.5170  0.00  0.00     0.000 OA
ATOM     21   O  NGY C   1      16.611  21.223  22.2210  0.00  0.00     0.000 OA
ENDBRANCH 5 16
BRANCH 1 22
ATOM     22  O4  BDP C   2      14.400  24.052  26.9600  0.00  0.00     0.000 O
BRANCH 22 26
ATOM     23  C1  BDP C   2      17.608  23.468  29.4770  0.00  0.00     0.000 C
ATOM     24  C2  BDP C   2      17.119  24.893  29.3670  0.00  0.00     0.000 C
ATOM     25  C3  BDP C   2      15.755  24.912  28.7290  0.00  0.00     0.000 C
ATOM     26  C4  BDP C   2      15.778  24.149  27.4090  0.00  0.00     0.000 C
ATOM     27  C5  BDP C   2      16.449  22.796  27.6050  0.00  0.00     0.000 C
ATOM     28  O5  BDP C   2      17.791  22.909  28.1460  0.00  0.00     0.000 O
ATOM     29   O  BDP C   2      16.903  25.494  30.6430  0.00  0.00     0.000 O
ATOM     31  HD  BDP C   2      16.236  26.043  30.7050  0.00  0.00     0.000 HD
ATOM     31   O  BDP C   2      15.424  26.276  28.5000  0.00  0.00     0.000 O
ATOM     33  HD  BDP C   2      14.757  26.825  28.5620  0.00  0.00     0.000 HD
BRANCH 27 33
ATOM     33   C  BDP C   2      16.592  22.030  26.3120  0.00  0.00     0.000 C
ATOM     34   O  BDP C   2      17.352  22.414  25.3900  0.00  0.00     0.000 OA
ATOM     35   O  BDP C   2      15.918  21.025  26.1550  0.00  0.00     0.000 OA
ENDBRANCH 27 33
BRANCH 23 36
ATOM     36  O4  SGN C   3      18.769  23.304  30.1530  0.00  0.00     0.000 O
BRANCH 36 40
ATOM     37  C1  SGN C   3      21.397  20.533  31.8400  0.00  0.00     0.000 C
ATOM     38  C2  SGN C   3      21.520  20.808  30.3320  0.00  0.00     0.000 C
ATOM     39  C3  SGN C   3      20.826  22.113  29.9710  0.00  0.00     0.000 C
ATOM     40  C4  SGN C   3      19.385  22.043  30.4290  0.00  0.00     0.000 C
ATOM     41  C5  SGN C   3      19.359  21.747  31.9130  0.00  0.00     0.000 C
ATOM     42  O5  SGN C   3      20.017  20.497  32.1690  0.00  0.00     0.000 O
ATOM     43   O  SGN C   3      20.904  22.312  28.5650  0.00  0.00     0.000 O
ATOM     45  HD  SGN C   3      20.200  22.707  28.8800  0.00  0.00     0.000 HD
BRANCH 38 47
ATOM     45   N  SGN C   3      22.114  19.460  30.3030  0.00  0.00     0.000 N
ATOM     47  HD  SGN C   3      21.406  19.954  30.3730  0.00  0.00     0.000 HD
ATOM     47   S  SGN C   3      23.606  19.476  29.7560  0.00  0.00     0.000 S
ATOM     48   O  SGN C   3      23.652  19.851  28.3870  0.00  0.00     0.000 OA
ATOM     49   O  SGN C   3      24.366  20.271  30.6640  0.00  0.00     0.000 OA
ATOM     50   O  SGN C   3      23.970  18.062  29.8430  0.00  0.00     0.000 OA
ENDBRANCH 38 47
BRANCH 41 51
ATOM     51   C  SGN C   3      17.976  21.656  32.4980  0.00  0.00     0.000 C
ATOM     52   O  SGN C   3      17.065  21.356  36.0980  0.00  0.00     0.000 OA
ATOM     53   O  SGN C   3      15.916  22.479  34.3230  0.00  0.00     0.000 OA
ATOM     54   O  SGN C   3      16.173  20.092  34.2870  0.00  0.00     0.000 OA
ATOM     55   O  SGN C   3      18.078  21.606  33.9030  0.00  0.00     0.000 O
ATOM     56   S  SGN C   3      16.676  21.359  34.7290  0.00  0.00     0.000 S
ENDBRANCH 41 51
BRANCH 37 57
ATOM     57  O4  IDS C   4      21.999  21.452  32.6340  0.00  0.00     0.000 O
BRANCH 57 61
ATOM     58  C1  IDS C   4      23.757  20.300  35.8040  0.00  0.00     0.000 C
ATOM     59  C2  IDS C   4      22.952  19.306  35.0280  0.00  0.00     0.000 C
ATOM     60  C3  IDS C   4      21.647  19.896  34.4860  0.00  0.00     0.000 C
ATOM     61  C4  IDS C   4      21.692  21.350  34.0370  0.00  0.00     0.000 C
ATOM     62  C5  IDS C   4      22.696  22.147  34.8770  0.00  0.00     0.000 C
ATOM     63  O5  IDS C   4      23.933  21.462  35.0110  0.00  0.00     0.000 O
ATOM     64   O  IDS C   4      20.719  19.785  35.5480  0.00  0.00     0.000 O
ATOM     66  HD  IDS C   4      20.500  20.570  35.8420  0.00  0.00     0.000 HD
BRANCH 59 66
ATOM     66   O  IDS C   4      23.697  18.798  33.8610  0.00  0.00     0.000 O
ATOM     67   S  IDS C   4      24.085  17.254  33.8830  0.00  0.00     0.000 S
ATOM     68   O  IDS C   4      22.803  16.593  33.8410  0.00  0.00     0.000 OA
ATOM     69   O  IDS C   4      24.911  17.060  32.7070  0.00  0.00     0.000 OA
ATOM     70   O  IDS C   4      24.778  17.003  35.1370  0.00  0.00     0.000 OA
ENDBRANCH 59 66
BRANCH 62 71
ATOM     71   C  IDS C   4      23.040  23.495  34.2720  0.00  0.00     0.000 C
ATOM     72   O  IDS C   4      22.177  24.342  34.1400  0.00  0.00     0.000 OA
ATOM     73   O  IDS C   4      24.191  23.669  33.8250  0.00  0.00     0.000 OA
ENDBRANCH 62 71
BRANCH 58 74
ATOM     74  O4  SGN C   5      23.397  20.434  37.1120  0.00  0.00     0.000 O
BRANCH 74 78
ATOM     75  C1  SGN C   5      24.681  21.180  41.0160  0.00  0.00     0.000 C
ATOM     76  C2  SGN C   5      24.590  22.407  40.0890  0.00  0.00     0.000 C
ATOM     77  C3  SGN C   5      23.796  22.069  38.8200  0.00  0.00     0.000 C
ATOM     78  C4  SGN C   5      24.273  20.768  38.1890  0.00  0.00     0.000 C
ATOM     79  C5  SGN C   5      24.275  19.667  39.2390  0.00  0.00     0.000 C
ATOM     80  O5  SGN C   5      25.165  20.035  40.3260  0.00  0.00     0.000 O
ATOM     81   O  SGN C   5      23.920  23.147  37.8980  0.00  0.00     0.000 O
ATOM     83  HD  SGN C   5      23.941  23.971  38.1620  0.00  0.00     0.000 HD
BRANCH 76 85
ATOM     83   N  SGN C   5      24.090  23.208  41.2130  0.00  0.00     0.000 N
ATOM     85  HD  SGN C   5      23.855  23.959  41.5750  0.00  0.00     0.000 HD
ATOM     85   S  SGN C   5      24.567  24.658  41.7270  0.00  0.00     0.000 S
ATOM     86   O  SGN C   5      23.773  25.081  42.8280  0.00  0.00     0.000 OA
ATOM     87   O  SGN C   5      25.969  24.591  41.9300  0.00  0.00     0.000 OA
ATOM     88   O  SGN C   5      24.178  25.418  40.4610  0.00  0.00     0.000 OA
ENDBRANCH 76 85
BRANCH 79 89
ATOM     89   C  SGN C   5      24.714  18.320  38.7000  0.00  0.00     0.000 C
ATOM     90   O  SGN C   5      26.151  18.313  38.5100  0.00  0.00     0.000 O
ATOM     91   S  SGN C   5      26.897  16.906  38.7060  0.00  0.00     0.000 S
ATOM     92   O  SGN C   5      26.492  16.408  39.9950  0.00  0.00     0.000 OA
ATOM     93   O  SGN C   5      26.476  16.049  37.6270  0.00  0.00     0.000 OA
ATOM     94   O  SGN C   5      28.289  17.259  38.6410  0.00  0.00     0.000 OA
ENDBRANCH 79 89
BRANCH 75 95
ATOM     95  O4  BDP C   6      23.407  20.949  41.4530  0.00  0.00     0.000 O
BRANCH 95 99
ATOM     96  C1  BDP C   6      21.941  19.291  45.1340  0.00  0.00     0.000 C
ATOM     97  C2  BDP C   6      23.133  20.205  45.1780  0.00  0.00     0.000 C
ATOM     98  C3  BDP C   6      23.343  21.036  43.9030  0.00  0.00     0.000 C
ATOM     99  C4  BDP C   6      23.264  20.165  42.6580  0.00  0.00     0.000 C
ATOM    100  C5  BDP C   6      21.973  19.318  42.7480  0.00  0.00     0.000 C
ATOM    101  O5  BDP C   6      22.157  18.550  43.9480  0.00  0.00     0.000 O
BRANCH 100 102
ATOM    102   C  BDP C   6      21.828  18.355  41.5970  0.00  0.00     0.000 C
ATOM    103   O  BDP C   6      21.057  18.566  40.6500  0.00  0.00     0.000 OA
ATOM    104   O  BDP C   6      22.528  17.336  41.6300  0.00  0.00     0.000 OA
ENDBRANCH 100 102
ENDBRANCH 95 99
ENDBRANCH 75 95
ENDBRANCH 74 78
ENDBRANCH 58 74
ENDBRANCH 57 61
ENDBRANCH 37 57
ENDBRANCH 36 40
ENDBRANCH 23 36
ENDBRANCH 22 26
ENDBRANCH 1 22
TORSDOF 20
ENDMDL
MODEL 10
REMARK VINA RESULT:      -5.8     14.439     21.592
ROOT
ATOM      1  C1  NGY C   1      13.701  23.844  25.7590  0.00  0.00     0.000 C
ATOM      2  C2  NGY C   1      12.240  23.585  25.4200  0.00  0.00     0.000 C
ATOM      3  C3  NGY C   1      12.049  22.139  24.9740  0.00  0.00     0.000 C
ATOM      4  C4  NGY C   1      13.008  21.863  23.8310  0.00  0.00     0.000 C
ATOM      5  C5  NGY C   1      14.435  22.079  24.3270  0.00  0.00     0.000 C
ATOM      6  O5  NGY C   1      14.576  23.470  24.7160  0.00  0.00     0.000 O
ATOM      7   O  NGY C   1      10.695  21.943  24.5940  0.00  0.00     0.000 O
ATOM      9  HD  NGY C   1      10.071  22.396  24.2000  0.00  0.00     0.000 HD
ATOM      9   O  NGY C   1      12.854  20.536  23.3480  0.00  0.00     0.000 O
ATOM     11  HD  NGY C   1      12.230  20.990  22.9540  0.00  0.00     0.000 HD
ENDROOT
BRANCH 2 13
ATOM     11   N  NGY C   1      10.836  23.629  25.7540  0.00  0.00     0.000 N
ATOM     13  HD  NGY C   1      10.827  24.372  26.1990  0.00  0.00     0.000 HD
ATOM     13   C  NGY C   1      10.319  24.629  26.4670  0.00  0.00     0.000 C
ATOM     14   O  NGY C   1      11.042  25.479  26.9890  0.00  0.00     0.000 OA
ATOM     15   C  NGY C   1       8.825  24.677  26.5730  0.00  0.00     0.000 C
ENDBRANCH 2 13
BRANCH 5 16
ATOM     16   C  NGY C   1      15.504  21.834  23.3100  0.00  0.00     0.000 C
ATOM     17   O  NGY C   1      18.942  23.079  23.6100  0.00  0.00     0.000 OA
ATOM     18   O  NGY C   1      16.642  22.636  23.6370  0.00  0.00     0.000 O
ATOM     19   S  NGY C   1      17.996  22.198  22.9720  0.00  0.00     0.000 S
ATOM     20   O  NGY C   1      17.879  22.450  21.5600  0.00  0.00     0.000 OA
ATOM     21   O  NGY C   1      18.126  20.788  23.3020  0.00  0.00     0.000 OA
ENDBRANCH 5 16
BRANCH 1 22
ATOM     22  O4  BDP C   2      13.991  23.230  26.9260  0.00  0.00     0.000 O
BRANCH 22 26
ATOM     23  C1  BDP C   2      16.005  23.078  30.5150  0.00  0.00     0.000 C
ATOM     24  C2  BDP C   2      15.241  24.354  30.2520  0.00  0.00     0.000 C
ATOM     25  C3  BDP C   2      14.277  24.141  29.1150  0.00  0.00     0.000 C
ATOM     26  C4  BDP C   2      15.010  23.582  27.8990  0.00  0.00     0.000 C
ATOM     27  C5  BDP C   2      15.883  22.407  28.3170  0.00  0.00     0.000 C
ATOM     28  O5  BDP C   2      16.830  22.755  29.3600  0.00  0.00     0.000 O
ATOM     29   O  BDP C   2      14.398  24.718  31.3450  0.00  0.00     0.000 O
ATOM     31  HD  BDP C   2      13.640  25.086  31.1430  0.00  0.00     0.000 HD
ATOM     31   O  BDP C   2      13.715  25.410  28.8060  0.00  0.00     0.000 O
ATOM     33  HD  BDP C   2      12.957  25.777  28.6050  0.00  0.00     0.000 HD
BRANCH 27 33
ATOM     33   C  BDP C   2      16.712  21.869  27.1750  0.00  0.00     0.000 C
ATOM     34   O  BDP C   2      17.732  22.465  26.7540  0.00  0.00     0.000 OA
ATOM     35   O  BDP C   2      16.350  20.840  26.6290  0.00  0.00     0.000 OA
ENDBRANCH 27 33
BRANCH 23 36
ATOM     36  O4  SGN C   3      16.813  23.099  31.6010  0.00  0.00     0.000 O
BRANCH 36 40
ATOM     37  C1  SGN C   3      18.500  20.800  34.6500  0.00  0.00     0.000 C
ATOM     38  C2  SGN C   3      19.265  20.894  33.3200  0.00  0.00     0.000 C
ATOM     39  C3  SGN C   3      18.769  22.078  32.5030  0.00  0.00     0.000 C
ATOM     40  C4  SGN C   3      17.275  21.941  32.3020  0.00  0.00     0.000 C
ATOM     41  C5  SGN C   3      16.609  21.832  33.6550  0.00  0.00     0.000 C
ATOM     42  O5  SGN C   3      17.117  20.686  34.3550  0.00  0.00     0.000 O
ATOM     43   O  SGN C   3      19.451  22.106  31.2550  0.00  0.00     0.000 O
ATOM     45  HD  SGN C   3      18.671  22.474  31.1740  0.00  0.00     0.000 HD
BRANCH 38 47
ATOM     45   N  SGN C   3      19.834  19.691  33.9530  0.00  0.00     0.000 N
ATOM     47  HD  SGN C   3      19.142  20.097  33.6280  0.00  0.00     0.000 HD
ATOM     47   S  SGN C   3      21.423  19.685  33.9040  0.00  0.00     0.000 S
ATOM     48   O  SGN C   3      21.900  19.575  32.5710  0.00  0.00     0.000 OA
ATOM     49   O  SGN C   3      21.859  20.821  34.6480  0.00  0.00     0.000 OA
ATOM     50   O  SGN C   3      21.737  18.436  34.5950  0.00  0.00     0.000 OA
ENDBRANCH 38 47
BRANCH 41 51
ATOM     51   C  SGN C   3      15.112  21.695  33.5950  0.00  0.00     0.000 C
ATOM     52   O  SGN C   3      12.573  24.241  34.5700  0.00  0.00     0.000 OA
ATOM     53   O  SGN C   3      12.493  22.598  32.8310  0.00  0.00     0.000 OA
ATOM     54   O  SGN C   3      12.567  21.927  35.1350  0.00  0.00     0.000 OA
ATOM     55   O  SGN C   3      14.526  22.910  34.0080  0.00  0.00     0.000 O
ATOM     56   S  SGN C   3      12.886  22.918  34.1500  0.00  0.00     0.000 S
ENDBRANCH 41 51
BRANCH 37 57
ATOM     57  O4  IDS C   4      18.671  21.860  35.4770  0.00  0.00     0.000 O
BRANCH 57 61
ATOM     58  C1  IDS C   4      19.525  22.390  39.1460  0.00  0.00     0.000 C
ATOM     59  C2  IDS C   4      19.703  21.027  38.5570  0.00  0.00     0.000 C
ATOM     60  C3  IDS C   4      18.574  20.645  37.5960  0.00  0.00     0.000 C
ATOM     61  C4  IDS C   4      17.995  21.767  36.7460  0.00  0.00     0.000 C
ATOM     62  C5  IDS C   4      18.053  23.103  37.4960  0.00  0.00     0.000 C
ATOM     63  O5  IDS C   4      19.324  23.318  38.0930  0.00  0.00     0.000 O
ATOM     64   O  IDS C   4      17.543  20.132  38.4190  0.00  0.00     0.000 O
ATOM     66  HD  IDS C   4      16.854  20.657  38.4050  0.00  0.00     0.000 HD
BRANCH 59 66
ATOM     66   O  IDS C   4      20.958  20.928  37.7880  0.00  0.00     0.000 O
ATOM     67   S  IDS C   4      21.959  19.765  38.2090  0.00  0.00     0.000 S
ATOM     68   O  IDS C   4      21.219  18.565  37.8980  0.00  0.00     0.000 OA
ATOM     69   O  IDS C   4      23.143  19.980  37.4000  0.00  0.00     0.000 OA
ATOM     70   O  IDS C   4      22.194  19.895  39.6390  0.00  0.00     0.000 OA
ENDBRANCH 59 66
BRANCH 62 71
ATOM     71   C  IDS C   4      17.817  24.301  36.5960  0.00  0.00     0.000 C
ATOM     72   O  IDS C   4      18.686  25.139  36.4550  0.00  0.00     0.000 OA
ATOM     73   O  IDS C   4      16.684  24.454  36.0960  0.00  0.00     0.000 OA
ENDBRANCH 62 71
BRANCH 58 74
ATOM     74  O4  SGN C   5      18.717  22.442  40.2430  0.00  0.00     0.000 O
BRANCH 74 78
ATOM     75  C1  SGN C   5      17.947  24.266  43.9200  0.00  0.00     0.000 C
ATOM     76  C2  SGN C   5      17.636  25.109  42.6700  0.00  0.00     0.000 C
ATOM     77  C3  SGN C   5      17.630  24.231  41.4110  0.00  0.00     0.000 C
ATOM     78  C4  SGN C   5      18.860  23.338  41.3450  0.00  0.00     0.000 C
ATOM     79  C5  SGN C   5      18.997  22.565  42.6480  0.00  0.00     0.000 C
ATOM     80  O5  SGN C   5      19.132  23.497  43.7540  0.00  0.00     0.000 O
ATOM     81   O  SGN C   5      17.559  25.071  40.2630  0.00  0.00     0.000 O
ATOM     83  HD  SGN C   5      17.087  25.797  40.2590  0.00  0.00     0.000 HD
BRANCH 76 85
ATOM     83   N  SGN C   5      16.432  25.640  43.3230  0.00  0.00     0.000 N
ATOM     85  HD  SGN C   5      15.758  26.182  43.3640  0.00  0.00     0.000 HD
ATOM     85   S  SGN C   5      15.945  27.167  43.4830  0.00  0.00     0.000 S
ATOM     86   O  SGN C   5      14.690  27.220  44.1490  0.00  0.00     0.000 OA
ATOM     87   O  SGN C   5      17.017  27.890  44.0660  0.00  0.00     0.000 OA
ATOM     88   O  SGN C   5      15.773  27.443  41.9910  0.00  0.00     0.000 OA
ENDBRANCH 76 85
BRANCH 79 89
ATOM     89   C  SGN C   5      20.185  21.625  42.6710  0.00  0.00     0.000 C
ATOM     90   O  SGN C   5      21.413  22.389  42.7460  0.00  0.00     0.000 O
ATOM     91   S  SGN C   5      22.641  21.708  43.5240  0.00  0.00     0.000 S
ATOM     92   O  SGN C   5      22.136  21.316  44.8140  0.00  0.00     0.000 OA
ATOM     93   O  SGN C   5      23.070  20.582  42.7350  0.00  0.00     0.000 OA
ATOM     94   O  SGN C   5      23.617  22.761  43.5870  0.00  0.00     0.000 OA
ENDBRANCH 79 89
BRANCH 75 95
ATOM     95  O4  BDP C   6      16.878  23.432  44.0830  0.00  0.00     0.000 O
BRANCH 95 99
ATOM     96  C1  BDP C   6      15.247  22.090  47.8220  0.00  0.00     0.000 C
ATOM     97  C2  BDP C   6      16.238  23.219  47.8310  0.00  0.00     0.000 C
ATOM     98  C3  BDP C   6      16.467  23.872  46.4600  0.00  0.00     0.000 C
ATOM     99  C4  BDP C   6      16.715  22.826  45.3830  0.00  0.00     0.000 C
ATOM    100  C5  BDP C   6      15.597  21.762  45.4840  0.00  0.00     0.000 C
ATOM    101  O5  BDP C   6      15.751  21.236  46.8120  0.00  0.00     0.000 O
BRANCH 100 102
ATOM    102   C  BDP C   6      15.785  20.628  44.5100  0.00  0.00     0.000 C
ATOM    103   O  BDP C   6      15.801  19.442  44.8700  0.00  0.00     0.000 OA
ATOM    104   O  BDP C   6      15.911  20.930  43.3170  0.00  0.00     0.000 OA
ENDBRANCH 100 102
ENDBRANCH 95 99
ENDBRANCH 75 95
ENDBRANCH 74 78
ENDBRANCH 58 74
ENDBRANCH 57 61
ENDBRANCH 37 57
ENDBRANCH 36 40
ENDBRANCH 23 36
ENDBRANCH 22 26
ENDBRANCH 1 22
TORSDOF 20
ENDMDL
MODEL 11
REMARK VINA RESULT:      -5.7     14.911     22.094
ROOT
ATOM      1  C1  NGY C   1      13.852  24.007  25.4390  0.00  0.00     0.000 C
ATOM      2  C2  NGY C   1      12.409  23.693  25.0720  0.00  0.00     0.000 C
ATOM      3  C3  NGY C   1      12.277  22.234  24.6460  0.00  0.00     0.000 C
ATOM      4  C4  NGY C   1      13.270  21.973  23.5290  0.00  0.00     0.000 C
ATOM      5  C5  NGY C   1      14.677  22.245  24.0520  0.00  0.00     0.000 C
ATOM      6  O5  NGY C   1      14.762  23.646  24.4210  0.00  0.00     0.000 O
ATOM      7   O  NGY C   1      10.939  21.985  24.2400  0.00  0.00     0.000 O
ATOM      9  HD  NGY C   1      10.309  22.411  23.8240  0.00  0.00     0.000 HD
ATOM      9   O  NGY C   1      13.171  20.634  23.0650  0.00  0.00     0.000 O
ATOM     11  HD  NGY C   1      12.542  21.060  22.6490  0.00  0.00     0.000 HD
ENDROOT
BRANCH 2 13
ATOM     11   N  NGY C   1      11.659  24.191  26.2010  0.00  0.00     0.000 N
ATOM     13  HD  NGY C   1      10.935  24.427  25.7880  0.00  0.00     0.000 HD
ATOM     13   C  NGY C   1      10.430  24.687  26.0590  0.00  0.00     0.000 C
ATOM     14   O  NGY C   1       9.943  24.871  24.9430  0.00  0.00     0.000 OA
ATOM     15   C  NGY C   1       9.673  24.978  27.3190  0.00  0.00     0.000 C
ENDBRANCH 2 13
BRANCH 5 16
ATOM     16   C  NGY C   1      15.776  22.021  23.0630  0.00  0.00     0.000 C
ATOM     17   O  NGY C   1      19.318  22.692  23.7470  0.00  0.00     0.000 OA
ATOM     18   O  NGY C   1      16.984  22.587  23.5810  0.00  0.00     0.000 O
ATOM     19   S  NGY C   1      18.313  22.074  22.9190  0.00  0.00     0.000 S
ATOM     20   O  NGY C   1      18.334  22.571  21.5680  0.00  0.00     0.000 OA
ATOM     21   O  NGY C   1      18.229  20.625  23.0040  0.00  0.00     0.000 OA
ENDBRANCH 5 16
BRANCH 1 22
ATOM     22  O4  BDP C   2      14.137  23.421  26.6210  0.00  0.00     0.000 O
BRANCH 22 26
ATOM     23  C1  BDP C   2      16.030  23.496  30.2790  0.00  0.00     0.000 C
ATOM     24  C2  BDP C   2      15.375  24.791  29.8590  0.00  0.00     0.000 C
ATOM     25  C3  BDP C   2      14.430  24.532  28.7150  0.00  0.00     0.000 C
ATOM     26  C4  BDP C   2      15.151  23.797  27.5900  0.00  0.00     0.000 C
ATOM     27  C5  BDP C   2      15.919  22.610  28.1570  0.00  0.00     0.000 C
ATOM     28  O5  BDP C   2      16.859  22.994  29.1930  0.00  0.00     0.000 O
ATOM     29   O  BDP C   2      14.531  25.329  30.8770  0.00  0.00     0.000 O
ATOM     31  HD  BDP C   2      13.810  25.729  30.6120  0.00  0.00     0.000 HD
ATOM     31   O  BDP C   2      13.977  25.801  28.2580  0.00  0.00     0.000 O
ATOM     33  HD  BDP C   2      13.256  26.200  27.9920  0.00  0.00     0.000 HD
BRANCH 27 33
ATOM     33   C  BDP C   2      16.736  21.896  27.1070  0.00  0.00     0.000 C
ATOM     34   O  BDP C   2      17.803  22.374  26.6550  0.00  0.00     0.000 OA
ATOM     35   O  BDP C   2      16.317  20.838  26.6670  0.00  0.00     0.000 OA
ENDBRANCH 27 33
BRANCH 23 36
ATOM     36  O4  SGN C   3      16.805  23.571  31.3850  0.00  0.00     0.000 O
BRANCH 36 40
ATOM     37  C1  SGN C   3      17.984  21.640  34.8930  0.00  0.00     0.000 C
ATOM     38  C2  SGN C   3      18.667  21.218  33.5820  0.00  0.00     0.000 C
ATOM     39  C3  SGN C   3      18.462  22.279  32.5100  0.00  0.00     0.000 C
ATOM     40  C4  SGN C   3      16.978  22.518  32.3380  0.00  0.00     0.000 C
ATOM     41  C5  SGN C   3      16.387  22.904  33.6760  0.00  0.00     0.000 C
ATOM     42  O5  SGN C   3      16.607  21.849  34.6250  0.00  0.00     0.000 O
ATOM     43   O  SGN C   3      19.052  21.836  31.2940  0.00  0.00     0.000 O
ATOM     45  HD  SGN C   3      18.397  22.378  31.1250  0.00  0.00     0.000 HD
BRANCH 38 47
ATOM     45   N  SGN C   3      18.922  20.066  34.4660  0.00  0.00     0.000 N
ATOM     47  HD  SGN C   3      18.350  20.567  34.0510  0.00  0.00     0.000 HD
ATOM     47   S  SGN C   3      20.449  19.623  34.4430  0.00  0.00     0.000 S
ATOM     48   O  SGN C   3      20.821  19.112  33.1720  0.00  0.00     0.000 OA
ATOM     49   O  SGN C   3      21.203  20.730  34.9350  0.00  0.00     0.000 OA
ATOM     50   O  SGN C   3      20.449  18.509  35.3890  0.00  0.00     0.000 OA
ENDBRANCH 38 47
BRANCH 41 51
ATOM     51   C  SGN C   3      14.908  23.176  33.6400  0.00  0.00     0.000 C
ATOM     52   O  SGN C   3      12.311  21.830  35.9470  0.00  0.00     0.000 OA
ATOM     53   O  SGN C   3      12.424  23.957  34.8560  0.00  0.00     0.000 OA
ATOM     54   O  SGN C   3      12.192  21.942  33.5710  0.00  0.00     0.000 OA
ATOM     55   O  SGN C   3      14.296  22.510  34.7220  0.00  0.00     0.000 O
ATOM     56   S  SGN C   3      12.652  22.565  34.7770  0.00  0.00     0.000 S
ENDBRANCH 41 51
BRANCH 37 57
ATOM     57  O4  IDS C   4      18.484  22.768  35.4540  0.00  0.00     0.000 O
BRANCH 57 61
ATOM     58  C1  IDS C   4      19.615  23.580  38.9930  0.00  0.00     0.000 C
ATOM     59  C2  IDS C   4      19.246  22.169  38.6630  0.00  0.00     0.000 C
ATOM     60  C3  IDS C   4      18.021  22.075  37.7520  0.00  0.00     0.000 C
ATOM     61  C4  IDS C   4      17.872  23.163  36.6970  0.00  0.00     0.000 C
ATOM     62  C5  IDS C   4      18.455  24.489  37.1980  0.00  0.00     0.000 C
ATOM     63  O5  IDS C   4      19.735  24.313  37.7860  0.00  0.00     0.000 O
ATOM     64   O  IDS C   4      16.905  22.141  38.6200  0.00  0.00     0.000 O
ATOM     66  HD  IDS C   4      16.463  22.875  38.4910  0.00  0.00     0.000 HD
BRANCH 59 66
ATOM     66   O  IDS C   4      20.342  21.471  37.9640  0.00  0.00     0.000 O
ATOM     67   S  IDS C   4      21.014  20.251  38.7330  0.00  0.00     0.000 S
ATOM     68   O  IDS C   4      19.940  19.290  38.8250  0.00  0.00     0.000 OA
ATOM     69   O  IDS C   4      22.125  19.846  37.8950  0.00  0.00     0.000 OA
ATOM     70   O  IDS C   4      21.413  20.736  40.0450  0.00  0.00     0.000 OA
ENDBRANCH 59 66
BRANCH 62 71
ATOM     71   C  IDS C   4      18.650  25.509  36.0920  0.00  0.00     0.000 C
ATOM     72   O  IDS C   4      17.690  25.933  35.4770  0.00  0.00     0.000 OA
ATOM     73   O  IDS C   4      19.814  25.815  35.7650  0.00  0.00     0.000 OA
ENDBRANCH 62 71
BRANCH 58 74
ATOM     74  O4  SGN C   5      18.928  24.125  40.0380  0.00  0.00     0.000 O
BRANCH 74 78
ATOM     75  C1  SGN C   5      19.103  26.533  43.4460  0.00  0.00     0.000 C
ATOM     76  C2  SGN C   5      19.264  27.258  42.0970  0.00  0.00     0.000 C
ATOM     77  C3  SGN C   5      18.845  26.346  40.9360  0.00  0.00     0.000 C
ATOM     78  C4  SGN C   5      19.478  24.966  41.0520  0.00  0.00     0.000 C
ATOM     79  C5  SGN C   5      19.198  24.393  42.4330  0.00  0.00     0.000 C
ATOM     80  O5  SGN C   5      19.758  25.271  43.4450  0.00  0.00     0.000 O
ATOM     81   O  SGN C   5      19.213  26.964  39.7070  0.00  0.00     0.000 O
ATOM     83  HD  SGN C   5      19.160  27.821  39.5960  0.00  0.00     0.000 HD
BRANCH 76 85
ATOM     83   N  SGN C   5      18.429  28.394  42.5090  0.00  0.00     0.000 N
ATOM     85  HD  SGN C   5      18.141  29.206  42.4210  0.00  0.00     0.000 HD
ATOM     85   S  SGN C   5      18.793  29.961  42.5710  0.00  0.00     0.000 S
ATOM     86   O  SGN C   5      17.663  30.717  42.9880  0.00  0.00     0.000 OA
ATOM     87   O  SGN C   5      19.975  30.087  43.3460  0.00  0.00     0.000 OA
ATOM     88   O  SGN C   5      19.033  30.135  41.0740  0.00  0.00     0.000 OA
ENDBRANCH 76 85
BRANCH 79 89
ATOM     89   C  SGN C   5      19.769  23.005  42.6380  0.00  0.00     0.000 C
ATOM     90   O  SGN C   5      21.099  23.101  43.2040  0.00  0.00     0.000 O
ATOM     91   S  SGN C   5      21.557  21.909  44.1760  0.00  0.00     0.000 S
ATOM     92   O  SGN C   5      20.525  21.775  45.1700  0.00  0.00     0.000 OA
ATOM     93   O  SGN C   5      21.694  20.728  43.3620  0.00  0.00     0.000 OA
ATOM     94   O  SGN C   5      22.807  22.378  44.7090  0.00  0.00     0.000 OA
ENDBRANCH 79 89
BRANCH 75 95
ATOM     95  O4  BDP C   6      17.759  26.352  43.6120  0.00  0.00     0.000 O
BRANCH 95 99
ATOM     96  C1  BDP C   6      15.730  26.653  47.3860  0.00  0.00     0.000 C
ATOM     97  C2  BDP C   6      17.198  26.968  47.3290  0.00  0.00     0.000 C
ATOM     98  C3  BDP C   6      17.741  27.205  45.9120  0.00  0.00     0.000 C
ATOM     99  C4  BDP C   6      17.296  26.107  44.9580  0.00  0.00     0.000 C
ATOM    100  C5  BDP C   6      15.767  25.931  45.1110  0.00  0.00     0.000 C
ATOM    101  O5  BDP C   6      15.607  25.563  46.4910  0.00  0.00     0.000 O
BRANCH 100 102
ATOM    102   C  BDP C   6      15.223  24.808  44.2650  0.00  0.00     0.000 C
ATOM    103   O  BDP C   6      14.562  25.014  43.2380  0.00  0.00     0.000 OA
ATOM    104   O  BDP C   6      15.477  23.656  44.6360  0.00  0.00     0.000 OA
ENDBRANCH 100 102
ENDBRANCH 95 99
ENDBRANCH 75 95
ENDBRANCH 74 78
ENDBRANCH 58 74
ENDBRANCH 57 61
ENDBRANCH 37 57
ENDBRANCH 36 40
ENDBRANCH 23 36
ENDBRANCH 22 26
ENDBRANCH 1 22
TORSDOF 20
ENDMDL
MODEL 12
REMARK VINA RESULT:      -5.6     18.169     21.304
ROOT
ATOM      1  C1  NGY C   1       8.257  26.395  28.6300  0.00  0.00     0.000 C
ATOM      2  C2  NGY C   1       7.324  25.594  29.5280  0.00  0.00     0.000 C
ATOM      3  C3  NGY C   1       6.494  24.622  28.6940  0.00  0.00     0.000 C
ATOM      4  C4  NGY C   1       5.784  25.411  27.6110  0.00  0.00     0.000 C
ATOM      5  C5  NGY C   1       6.831  26.096  26.7370  0.00  0.00     0.000 C
ATOM      6  O5  NGY C   1       7.577  27.025  27.5650  0.00  0.00     0.000 O
ATOM      7   O  NGY C   1       5.582  23.940  29.5430  0.00  0.00     0.000 O
ATOM      9  HD  NGY C   1       5.103  24.122  30.2410  0.00  0.00     0.000 HD
ATOM      9   O  NGY C   1       4.965  24.563  26.8190  0.00  0.00     0.000 O
ATOM     11  HD  NGY C   1       4.486  24.745  27.5170  0.00  0.00     0.000 HD
ENDROOT
BRANCH 2 13
ATOM     11   N  NGY C   1       7.457  24.590  30.5570  0.00  0.00     0.000 N
ATOM     13  HD  NGY C   1       7.652  25.107  31.2240  0.00  0.00     0.000 HD
ATOM     13   C  NGY C   1       7.767  24.914  31.8120  0.00  0.00     0.000 C
ATOM     14   O  NGY C   1       8.092  26.064  32.1110  0.00  0.00     0.000 OA
ATOM     15   C  NGY C   1       7.672  23.820  32.8310  0.00  0.00     0.000 C
ENDBRANCH 2 13
BRANCH 5 16
ATOM     16   C  NGY C   1       6.282  26.910  25.6090  0.00  0.00     0.000 C
ATOM     17   O  NGY C   1       4.720  30.203  26.0290  0.00  0.00     0.000 OA
ATOM     18   O  NGY C   1       5.563  28.021  26.1510  0.00  0.00     0.000 O
ATOM     19   S  NGY C   1       5.303  29.212  25.1600  0.00  0.00     0.000 S
ATOM     20   O  NGY C   1       4.375  28.742  24.1650  0.00  0.00     0.000 OA
ATOM     21   O  NGY C   1       6.615  29.535  24.6240  0.00  0.00     0.000 OA
ENDBRANCH 5 16
BRANCH 1 22
ATOM     22  O4  BDP C   2       9.251  25.587  28.2060  0.00  0.00     0.000 O
BRANCH 22 26
ATOM     23  C1  BDP C   2      13.257  25.235  27.3150  0.00  0.00     0.000 C
ATOM     24  C2  BDP C   2      12.895  26.371  28.2420  0.00  0.00     0.000 C
ATOM     25  C3  BDP C   2      11.498  26.169  28.7680  0.00  0.00     0.000 C
ATOM     26  C4  BDP C   2      10.523  25.962  27.6140  0.00  0.00     0.000 C
ATOM     27  C5  BDP C   2      11.076  24.918  26.6520  0.00  0.00     0.000 C
ATOM     28  O5  BDP C   2      12.391  25.263  26.1460  0.00  0.00     0.000 O
ATOM     29   O  BDP C   2      13.700  26.390  29.4210  0.00  0.00     0.000 O
ATOM     31  HD  BDP C   2      13.309  26.637  30.1530  0.00  0.00     0.000 HD
ATOM     31   O  BDP C   2      11.156  27.344  29.4930  0.00  0.00     0.000 O
ATOM     33  HD  BDP C   2      10.765  27.591  30.2250  0.00  0.00     0.000 HD
BRANCH 27 33
ATOM     33   C  BDP C   2      10.202  24.737  25.4340  0.00  0.00     0.000 C
ATOM     34   O  BDP C   2       9.961  23.605  24.9500  0.00  0.00     0.000 OA
ATOM     35   O  BDP C   2       9.750  25.731  24.8900  0.00  0.00     0.000 OA
ENDBRANCH 27 33
BRANCH 23 36
ATOM     36  O4  SGN C   3      14.537  25.230  26.8760  0.00  0.00     0.000 O
BRANCH 36 40
ATOM     37  C1  SGN C   3      17.779  22.690  26.1960  0.00  0.00     0.000 C
ATOM     38  C2  SGN C   3      17.047  23.257  24.9690  0.00  0.00     0.000 C
ATOM     39  C3  SGN C   3      16.211  24.467  25.3600  0.00  0.00     0.000 C
ATOM     40  C4  SGN C   3      15.259  24.066  26.4670  0.00  0.00     0.000 C
ATOM     41  C5  SGN C   3      16.061  23.500  27.6180  0.00  0.00     0.000 C
ATOM     42  O5  SGN C   3      16.807  22.356  27.1740  0.00  0.00     0.000 O
ATOM     43   O  SGN C   3      15.499  24.933  24.2210  0.00  0.00     0.000 O
ATOM     45  HD  SGN C   3      15.065  25.135  24.9420  0.00  0.00     0.000 HD
BRANCH 38 47
ATOM     45   N  SGN C   3      17.325  22.127  24.0640  0.00  0.00     0.000 N
ATOM     47  HD  SGN C   3      16.787  22.508  24.6260  0.00  0.00     0.000 HD
ATOM     47   S  SGN C   3      18.535  22.433  23.0810  0.00  0.00     0.000 S
ATOM     48   O  SGN C   3      18.211  23.473  22.1690  0.00  0.00     0.000 OA
ATOM     49   O  SGN C   3      19.686  22.634  23.8990  0.00  0.00     0.000 OA
ATOM     50   O  SGN C   3      18.625  21.187  22.3220  0.00  0.00     0.000 OA
ENDBRANCH 38 47
BRANCH 41 51
ATOM     51   C  SGN C   3      15.228  23.065  28.7930  0.00  0.00     0.000 C
ATOM     52   O  SGN C   3      15.100  24.632  32.1710  0.00  0.00     0.000 OA
ATOM     53   O  SGN C   3      13.363  23.556  30.9230  0.00  0.00     0.000 OA
ATOM     54   O  SGN C   3      15.270  22.308  31.6790  0.00  0.00     0.000 OA
ATOM     55   O  SGN C   3      15.442  23.962  29.8600  0.00  0.00     0.000 O
ATOM     56   S  SGN C   3      14.727  23.577  31.2920  0.00  0.00     0.000 S
ENDBRANCH 41 51
BRANCH 37 57
ATOM     57  O4  IDS C   4      18.676  23.536  26.7600  0.00  0.00     0.000 O
BRANCH 57 61
ATOM     58  C1  IDS C   4      21.953  23.417  28.6880  0.00  0.00     0.000 C
ATOM     59  C2  IDS C   4      21.513  22.196  27.9440  0.00  0.00     0.000 C
ATOM     60  C3  IDS C   4      20.007  21.946  28.0550  0.00  0.00     0.000 C
ATOM     61  C4  IDS C   4      19.112  23.177  28.0850  0.00  0.00     0.000 C
ATOM     62  C5  IDS C   4      19.827  24.352  28.7630  0.00  0.00     0.000 C
ATOM     63  O5  IDS C   4      21.153  24.512  28.2780  0.00  0.00     0.000 O
ATOM     64   O  IDS C   4      19.835  21.240  29.2690  0.00  0.00     0.000 O
ATOM     66  HD  IDS C   4      19.406  21.725  29.8440  0.00  0.00     0.000 HD
BRANCH 59 66
ATOM     66   O  IDS C   4      21.814  22.302  26.5030  0.00  0.00     0.000 O
ATOM     67   S  IDS C   4      22.908  21.298  25.9310  0.00  0.00     0.000 S
ATOM     68   O  IDS C   4      22.290  20.005  26.1030  0.00  0.00     0.000 OA
ATOM     69   O  IDS C   4      23.102  21.704  24.5530  0.00  0.00     0.000 OA
ATOM     70   O  IDS C   4      24.096  21.439  26.7580  0.00  0.00     0.000 OA
ENDBRANCH 59 66
BRANCH 62 71
ATOM     71   C  IDS C   4      19.141  25.683  28.5250  0.00  0.00     0.000 C
ATOM     72   O  IDS C   4      18.838  26.021  27.3970  0.00  0.00     0.000 OA
ATOM     73   O  IDS C   4      18.993  26.456  29.4930  0.00  0.00     0.000 OA
ENDBRANCH 62 71
BRANCH 58 74
ATOM     74  O4  SGN C   5      22.190  23.225  30.0170  0.00  0.00     0.000 O
BRANCH 74 78
ATOM     75  C1  SGN C   5      24.719  23.994  33.2510  0.00  0.00     0.000 C
ATOM     76  C2  SGN C   5      23.845  25.172  32.7820  0.00  0.00     0.000 C
ATOM     77  C3  SGN C   5      22.736  24.684  31.8400  0.00  0.00     0.000 C
ATOM     78  C4  SGN C   5      23.285  23.765  30.7570  0.00  0.00     0.000 C
ATOM     79  C5  SGN C   5      24.096  22.651  31.4010  0.00  0.00     0.000 C
ATOM     80  O5  SGN C   5      25.197  23.225  32.1550  0.00  0.00     0.000 O
ATOM     81   O  SGN C   5      22.094  25.814  31.2580  0.00  0.00     0.000 O
ATOM     83  HD  SGN C   5      21.959  26.542  31.7080  0.00  0.00     0.000 HD
BRANCH 76 85
ATOM     83   N  SGN C   5      24.482  26.022  33.7960  0.00  0.00     0.000 N
ATOM     85  HD  SGN C   5      24.523  26.371  34.5880  0.00  0.00     0.000 HD
ATOM     85   S  SGN C   5      23.807  27.028  34.8570  0.00  0.00     0.000 S
ATOM     86   O  SGN C   5      24.802  27.617  35.6850  0.00  0.00     0.000 OA
ATOM     87   O  SGN C   5      22.971  27.911  34.1250  0.00  0.00     0.000 OA
ATOM     88   O  SGN C   5      23.030  25.962  35.6260  0.00  0.00     0.000 OA
ENDBRANCH 76 85
BRANCH 79 89
ATOM     89   C  SGN C   5      24.667  21.665  30.4020  0.00  0.00     0.000 C
ATOM     90   O  SGN C   5      24.683  20.336  30.9790  0.00  0.00     0.000 O
ATOM     91   S  SGN C   5      24.492  19.107  29.9640  0.00  0.00     0.000 S
ATOM     92   O  SGN C   5      23.299  19.385  29.2090  0.00  0.00     0.000 OA
ATOM     93   O  SGN C   5      25.669  19.056  29.1350  0.00  0.00     0.000 OA
ATOM     94   O  SGN C   5      24.365  17.973  30.8390  0.00  0.00     0.000 OA
ENDBRANCH 79 89
BRANCH 75 95
ATOM     95  O4  BDP C   6      23.910  23.221  34.0360  0.00  0.00     0.000 O
BRANCH 95 99
ATOM     96  C1  BDP C   6      24.862  20.863  37.4970  0.00  0.00     0.000 C
ATOM     97  C2  BDP C   6      25.663  22.106  37.2280  0.00  0.00     0.000 C
ATOM     98  C3  BDP C   6      25.020  23.068  36.2180  0.00  0.00     0.000 C
ATOM     99  C4  BDP C   6      24.563  22.331  34.9670  0.00  0.00     0.000 C
ATOM    100  C5  BDP C   6      23.729  21.107  35.4110  0.00  0.00     0.000 C
ATOM    101  O5  BDP C   6      24.652  20.339  36.1990  0.00  0.00     0.000 O
BRANCH 100 102
ATOM    102   C  BDP C   6      23.286  20.253  34.2500  0.00  0.00     0.000 C
ATOM    103   O  BDP C   6      22.295  20.535  33.5610  0.00  0.00     0.000 OA
ATOM    104   O  BDP C   6      23.969  19.253  34.0000  0.00  0.00     0.000 OA
ENDBRANCH 100 102
ENDBRANCH 95 99
ENDBRANCH 75 95
ENDBRANCH 74 78
ENDBRANCH 58 74
ENDBRANCH 57 61
ENDBRANCH 37 57
ENDBRANCH 36 40
ENDBRANCH 23 36
ENDBRANCH 22 26
ENDBRANCH 1 22
TORSDOF 20
ENDMDL
MODEL 13
REMARK VINA RESULT:      -4.9     30.757     38.066
ROOT
ATOM      1  C1  NGY C   1       9.564   6.678  65.2450  0.00  0.00     0.000 C
ATOM      2  C2  NGY C   1       9.296   5.412  66.0470  0.00  0.00     0.000 C
ATOM      3  C3  NGY C   1      10.462   5.125  66.9870  0.00  0.00     0.000 C
ATOM      4  C4  NGY C   1      11.736   5.077  66.1640  0.00  0.00     0.000 C
ATOM      5  C5  NGY C   1      11.928   6.428  65.4810  0.00  0.00     0.000 C
ATOM      6  O5  NGY C   1      10.810   6.647  64.5820  0.00  0.00     0.000 O
ATOM      7   O  NGY C   1      10.222   3.903  67.6700  0.00  0.00     0.000 O
ATOM      9  HD  NGY C   1       9.865   3.134  67.4930  0.00  0.00     0.000 HD
ATOM      9   O  NGY C   1      12.858   4.779  66.9810  0.00  0.00     0.000 O
ATOM     11  HD  NGY C   1      12.501   4.010  66.8050  0.00  0.00     0.000 HD
ENDROOT
BRANCH 2 13
ATOM     11   N  NGY C   1       7.908   5.619  66.3870  0.00  0.00     0.000 N
ATOM     13  HD  NGY C   1       7.697   4.805  66.5940  0.00  0.00     0.000 HD
ATOM     13   C  NGY C   1       7.128   4.614  66.7810  0.00  0.00     0.000 C
ATOM     14   O  NGY C   1       7.521   3.447  66.7320  0.00  0.00     0.000 OA
ATOM     15   C  NGY C   1       5.773   4.979  67.3060  0.00  0.00     0.000 C
ENDBRANCH 2 13
BRANCH 5 16
ATOM     16   C  NGY C   1      13.155   6.543  64.6340  0.00  0.00     0.000 C
ATOM     17   O  NGY C   1      13.102   6.868  60.9800  0.00  0.00     0.000 OA
ATOM     18   O  NGY C   1      12.777   6.434  63.2590  0.00  0.00     0.000 O
ATOM     19   S  NGY C   1      13.829   6.967  62.2200  0.00  0.00     0.000 S
ATOM     20   O  NGY C   1      14.960   6.078  62.2660  0.00  0.00     0.000 OA
ATOM     21   O  NGY C   1      14.133   8.317  62.6670  0.00  0.00     0.000 OA
ENDBRANCH 5 16
BRANCH 1 22
ATOM     22  O4  BDP C   2       9.437   7.745  66.0610  0.00  0.00     0.000 O
BRANCH 22 26
ATOM     23  C1  BDP C   2       8.826  11.791  66.5320  0.00  0.00     0.000 C
ATOM     24  C2  BDP C   2       8.060  11.145  65.4010  0.00  0.00     0.000 C
ATOM     25  C3  BDP C   2       8.082   9.648  65.5660  0.00  0.00     0.000 C
ATOM     26  C4  BDP C   2       9.516   9.154  65.7190  0.00  0.00     0.000 C
ATOM     27  C5  BDP C   2      10.243   9.992  66.7630  0.00  0.00     0.000 C
ATOM     28  O5  BDP C   2      10.228  11.410  66.4530  0.00  0.00     0.000 O
ATOM     29   O  BDP C   2       6.670  11.467  65.4310  0.00  0.00     0.000 O
ATOM     31  HD  BDP C   2       6.122  10.843  65.1850  0.00  0.00     0.000 HD
ATOM     31   O  BDP C   2       7.497   9.095  64.3940  0.00  0.00     0.000 O
ATOM     33  HD  BDP C   2       6.949   8.471  64.1470  0.00  0.00     0.000 HD
BRANCH 27 33
ATOM     33   C  BDP C   2      11.700   9.617  66.8920  0.00  0.00     0.000 C
ATOM     34   O  BDP C   2      12.529   9.841  65.9780  0.00  0.00     0.000 OA
ATOM     35   O  BDP C   2      12.065   9.048  67.9070  0.00  0.00     0.000 OA
ENDBRANCH 27 33
BRANCH 23 36
ATOM     36  O4  SGN C   3       8.771  13.143  66.5710  0.00  0.00     0.000 O
BRANCH 36 40
ATOM     37  C1  SGN C   3       9.002  16.541  68.9850  0.00  0.00     0.000 C
ATOM     38  C2  SGN C   3      10.281  15.709  68.7980  0.00  0.00     0.000 C
ATOM     39  C3  SGN C   3      10.152  14.799  67.5860  0.00  0.00     0.000 C
ATOM     40  C4  SGN C   3       8.921  13.935  67.7520  0.00  0.00     0.000 C
ATOM     41  C5  SGN C   3       7.719  14.832  67.9520  0.00  0.00     0.000 C
ATOM     42  O5  SGN C   3       7.910  15.645  69.1210  0.00  0.00     0.000 O
ATOM     43   O  SGN C   3      11.323  14.001  67.4720  0.00  0.00     0.000 O
ATOM     45  HD  SGN C   3      10.649  13.586  67.1210  0.00  0.00     0.000 HD
BRANCH 38 47
ATOM     45   N  SGN C   3      10.622  16.374  70.0690  0.00  0.00     0.000 N
ATOM     47  HD  SGN C   3      10.139  15.793  69.6460  0.00  0.00     0.000 HD
ATOM     47   S  SGN C   3      11.995  17.169  69.9770  0.00  0.00     0.000 S
ATOM     48   O  SGN C   3      13.093  16.286  69.7980  0.00  0.00     0.000 OA
ATOM     49   O  SGN C   3      11.817  18.179  68.9870  0.00  0.00     0.000 OA
ATOM     50   O  SGN C   3      12.097  17.741  71.3190  0.00  0.00     0.000 OA
ENDBRANCH 38 47
BRANCH 41 51
ATOM     51   C  SGN C   3       6.421  14.091  68.1270  0.00  0.00     0.000 C
ATOM     52   O  SGN C   3       3.922  13.270  65.4890  0.00  0.00     0.000 OA
ATOM     53   O  SGN C   3       4.546  12.026  67.4370  0.00  0.00     0.000 OA
ATOM     54   O  SGN C   3       3.477  14.165  67.6500  0.00  0.00     0.000 OA
ATOM     55   O  SGN C   3       5.803  13.953  66.8670  0.00  0.00     0.000 O
ATOM     56   S  SGN C   3       4.295  13.292  66.8620  0.00  0.00     0.000 S
ENDBRANCH 41 51
BRANCH 37 57
ATOM     57  O4  IDS C   4       8.727  17.393  67.9670  0.00  0.00     0.000 O
BRANCH 57 61
ATOM     58  C1  IDS C   4       7.937  20.877  66.6600  0.00  0.00     0.000 C
ATOM     59  C2  IDS C   4       8.960  20.730  67.7420  0.00  0.00     0.000 C
ATOM     60  C3  IDS C   4       8.565  19.688  68.7920  0.00  0.00     0.000 C
ATOM     61  C4  IDS C   4       7.817  18.463  68.2870  0.00  0.00     0.000 C
ATOM     62  C5  IDS C   4       6.944  18.819  67.0780  0.00  0.00     0.000 C
ATOM     63  O5  IDS C   4       7.655  19.595  66.1240  0.00  0.00     0.000 O
ATOM     64   O  IDS C   4       7.730  20.376  69.7040  0.00  0.00     0.000 O
ATOM     66  HD  IDS C   4       6.919  20.073  69.6600  0.00  0.00     0.000 HD
BRANCH 59 66
ATOM     66   O  IDS C   4      10.265  20.306  67.2010  0.00  0.00     0.000 O
ATOM     67   S  IDS C   4      11.438  21.381  67.2500  0.00  0.00     0.000 S
ATOM     68   O  IDS C   4      11.649  21.573  68.6640  0.00  0.00     0.000 OA
ATOM     69   O  IDS C   4      12.542  20.760  66.5460  0.00  0.00     0.000 OA
ATOM     70   O  IDS C   4      10.940  22.590  66.6120  0.00  0.00     0.000 OA
ENDBRANCH 59 66
BRANCH 62 71
ATOM     71   C  IDS C   4       6.447  17.600  66.3230  0.00  0.00     0.000 C
ATOM     72   O  IDS C   4       5.373  17.104  66.6050  0.00  0.00     0.000 OA
ATOM     73   O  IDS C   4       7.207  17.067  65.4900  0.00  0.00     0.000 OA
ENDBRANCH 62 71
BRANCH 58 74
ATOM     74  O4  SGN C   5       6.905  21.718  66.9540  0.00  0.00     0.000 O
BRANCH 74 78
ATOM     75  C1  SGN C   5       4.051  24.376  65.4600  0.00  0.00     0.000 C
ATOM     76  C2  SGN C   5       3.727  22.878  65.3040  0.00  0.00     0.000 C
ATOM     77  C3  SGN C   5       4.658  22.027  66.1780  0.00  0.00     0.000 C
ATOM     78  C4  SGN C   5       6.115  22.434  66.0050  0.00  0.00     0.000 C
ATOM     79  C5  SGN C   5       6.252  23.934  66.2180  0.00  0.00     0.000 C
ATOM     80  O5  SGN C   5       5.432  24.639  65.2480  0.00  0.00     0.000 O
ATOM     81   O  SGN C   5       4.479  20.655  65.8430  0.00  0.00     0.000 O
ATOM     83  HD  SGN C   5       3.701  20.334  65.6400  0.00  0.00     0.000 HD
BRANCH 76 85
ATOM     83   N  SGN C   5       2.313  22.964  65.6900  0.00  0.00     0.000 N
ATOM     85  HD  SGN C   5       1.497  22.675  65.6830  0.00  0.00     0.000 HD
ATOM     85   S  SGN C   5       0.993  22.690  64.8090  0.00  0.00     0.000 S
ATOM     86   O  SGN C   5      -0.176  22.848  65.6020  0.00  0.00     0.000 OA
ATOM     87   O  SGN C   5       1.095  23.490  63.6410  0.00  0.00     0.000 OA
ATOM     88   O  SGN C   5       1.271  21.211  64.5500  0.00  0.00     0.000 OA
ENDBRANCH 76 85
BRANCH 79 89
ATOM     89   C  SGN C   5       7.676  24.435  66.0900  0.00  0.00     0.000 C
ATOM     90   O  SGN C   5       7.836  25.144  64.8370  0.00  0.00     0.000 O
ATOM     91   S  SGN C   5       8.897  26.348  64.8200  0.00  0.00     0.000 S
ATOM     92   O  SGN C   5       8.551  27.210  65.9200  0.00  0.00     0.000 OA
ATOM     93   O  SGN C   5      10.204  25.762  64.9680  0.00  0.00     0.000 OA
ATOM     94   O  SGN C   5       8.689  26.953  63.5320  0.00  0.00     0.000 OA
ENDBRANCH 79 89
BRANCH 75 95
ATOM     95  O4  BDP C   6       3.714  24.697  66.7450  0.00  0.00     0.000 O
BRANCH 95 99
ATOM     96  C1  BDP C   6       2.170  28.335  68.4260  0.00  0.00     0.000 C
ATOM     97  C2  BDP C   6       1.694  27.910  67.0650  0.00  0.00     0.000 C
ATOM     98  C3  BDP C   6       1.992  26.444  66.7190  0.00  0.00     0.000 C
ATOM     99  C4  BDP C   6       3.441  26.089  67.0180  0.00  0.00     0.000 C
ATOM    100  C5  BDP C   6       3.761  26.557  68.4570  0.00  0.00     0.000 C
ATOM    101  O5  BDP C   6       3.539  27.975  68.4060  0.00  0.00     0.000 O
BRANCH 100 102
ATOM    102   C  BDP C   6       5.202  26.326  68.8360  0.00  0.00     0.000 C
ATOM    103   O  BDP C   6       5.529  25.564  69.7580  0.00  0.00     0.000 OA
ATOM    104   O  BDP C   6       6.057  26.925  68.1740  0.00  0.00     0.000 OA
ENDBRANCH 100 102
ENDBRANCH 95 99
ENDBRANCH 75 95
ENDBRANCH 74 78
ENDBRANCH 58 74
ENDBRANCH 57 61
ENDBRANCH 37 57
ENDBRANCH 36 40
ENDBRANCH 23 36
ENDBRANCH 22 26
ENDBRANCH 1 22
TORSDOF 20
ENDMDL
MODEL 14
REMARK VINA RESULT:      -3.9     12.574     16.463
ROOT
ATOM      1  C1  NGY C   1      22.292  19.059  44.8230  0.00  0.00     0.000 C
ATOM      2  C2  NGY C   1      22.024  20.551  44.6830  0.00  0.00     0.000 C
ATOM      3  C3  NGY C   1      20.816  20.952  45.5230  0.00  0.00     0.000 C
ATOM      4  C4  NGY C   1      19.646  20.073  45.1220  0.00  0.00     0.000 C
ATOM      5  C5  NGY C   1      20.013  18.616  45.3880  0.00  0.00     0.000 C
ATOM      6  O5  NGY C   1      21.150  18.275  44.5530  0.00  0.00     0.000 O
ATOM      7   O  NGY C   1      20.542  22.331  45.3190  0.00  0.00     0.000 O
ATOM      9  HD  NGY C   1      20.574  22.897  44.6640  0.00  0.00     0.000 HD
ATOM      9   O  NGY C   1      18.476  20.422  45.8480  0.00  0.00     0.000 O
ATOM     11  HD  NGY C   1      18.508  20.988  45.1940  0.00  0.00     0.000 HD
ENDROOT
BRANCH 2 13
ATOM     11   N  NGY C   1      22.878  21.348  43.8350  0.00  0.00     0.000 N
ATOM     13  HD  NGY C   1      23.259  21.832  44.4440  0.00  0.00     0.000 HD
ATOM     13   C  NGY C   1      23.688  22.279  44.3370  0.00  0.00     0.000 C
ATOM     14   O  NGY C   1      23.637  22.593  45.5270  0.00  0.00     0.000 OA
ATOM     15   C  NGY C   1      24.674  22.894  43.3900  0.00  0.00     0.000 C
ENDBRANCH 2 13
BRANCH 5 16
ATOM     16   C  NGY C   1      18.950  17.621  45.0510  0.00  0.00     0.000 C
ATOM     17   O  NGY C   1      19.585  14.451  43.3180  0.00  0.00     0.000 OA
ATOM     18   O  NGY C   1      19.511  16.621  44.1960  0.00  0.00     0.000 O
ATOM     19   S  NGY C   1      18.702  15.277  44.1000  0.00  0.00     0.000 S
ATOM     20   O  NGY C   1      17.472  15.571  43.4100  0.00  0.00     0.000 OA
ATOM     21   O  NGY C   1      18.509  14.866  45.4800  0.00  0.00     0.000 OA
ENDBRANCH 5 16
BRANCH 1 22
ATOM     22  O4  BDP C   2      22.806  18.823  46.0490  0.00  0.00     0.000 O
BRANCH 22 26
ATOM     23  C1  BDP C   2      24.998  16.320  48.4760  0.00  0.00     0.000 C
ATOM     24  C2  BDP C   2      25.307  16.229  47.0010  0.00  0.00     0.000 C
ATOM     25  C3  BDP C   2      24.724  17.420  46.2880  0.00  0.00     0.000 C
ATOM     26  C4  BDP C   2      23.241  17.558  46.6130  0.00  0.00     0.000 C
ATOM     27  C5  BDP C   2      23.031  17.460  48.1190  0.00  0.00     0.000 C
ATOM     28  O5  BDP C   2      23.560  16.231  48.6800  0.00  0.00     0.000 O
ATOM     29   O  BDP C   2      26.706  16.326  46.7310  0.00  0.00     0.000 O
ATOM     31  HD  BDP C   2      26.933  16.743  46.0060  0.00  0.00     0.000 HD
ATOM     31   O  BDP C   2      24.900  17.195  44.8940  0.00  0.00     0.000 O
ATOM     33  HD  BDP C   2      25.127  17.613  44.1700  0.00  0.00     0.000 HD
BRANCH 27 33
ATOM     33   C  BDP C   2      21.571  17.491  48.5020  0.00  0.00     0.000 C
ATOM     34   O  BDP C   2      20.766  16.604  48.1290  0.00  0.00     0.000 OA
ATOM     35   O  BDP C   2      21.164  18.430  49.1660  0.00  0.00     0.000 OA
ENDBRANCH 27 33
BRANCH 23 36
ATOM     36  O4  SGN C   3      25.580  15.373  49.2490  0.00  0.00     0.000 O
BRANCH 36 40
ATOM     37  C1  SGN C   3      27.410  14.550  52.9100  0.00  0.00     0.000 C
ATOM     38  C2  SGN C   3      25.935  14.982  52.9310  0.00  0.00     0.000 C
ATOM     39  C3  SGN C   3      25.313  14.817  51.5520  0.00  0.00     0.000 C
ATOM     40  C4  SGN C   3      26.131  15.602  50.5490  0.00  0.00     0.000 C
ATOM     41  C5  SGN C   3      27.566  15.129  50.6140  0.00  0.00     0.000 C
ATOM     42  O5  SGN C   3      28.085  15.332  51.9370  0.00  0.00     0.000 O
ATOM     43   O  SGN C   3      23.968  15.279  51.5860  0.00  0.00     0.000 O
ATOM     45  HD  SGN C   3      24.289  15.363  50.7860  0.00  0.00     0.000 HD
BRANCH 38 47
ATOM     45   N  SGN C   3      26.285  15.382  54.3050  0.00  0.00     0.000 N
ATOM     47  HD  SGN C   3      26.353  15.527  53.4540  0.00  0.00     0.000 HD
ATOM     47   S  SGN C   3      25.363  14.670  55.3870  0.00  0.00     0.000 S
ATOM     48   O  SGN C   3      24.014  15.103  55.2840  0.00  0.00     0.000 OA
ATOM     49   O  SGN C   3      25.597  13.269  55.2640  0.00  0.00     0.000 OA
ATOM     50   O  SGN C   3      25.907  15.200  56.6360  0.00  0.00     0.000 OA
ENDBRANCH 38 47
BRANCH 41 51
ATOM     51   C  SGN C   3      28.489  15.832  49.6560  0.00  0.00     0.000 C
ATOM     52   O  SGN C   3      29.254  19.476  49.5250  0.00  0.00     0.000 OA
ATOM     53   O  SGN C   3      30.667  17.604  49.0430  0.00  0.00     0.000 OA
ATOM     54   O  SGN C   3      28.740  18.056  47.6840  0.00  0.00     0.000 OA
ATOM     55   O  SGN C   3      28.530  17.203  49.9850  0.00  0.00     0.000 O
ATOM     56   S  SGN C   3      29.377  18.174  48.9620  0.00  0.00     0.000 S
ENDBRANCH 41 51
BRANCH 37 57
ATOM     57  O4  IDS C   4      27.613  13.242  52.6170  0.00  0.00     0.000 O
BRANCH 57 61
ATOM     58  C1  IDS C   4      29.513  10.125  53.6860  0.00  0.00     0.000 C
ATOM     59  C2  IDS C   4      29.279  11.205  54.6950  0.00  0.00     0.000 C
ATOM     60  C3  IDS C   4      29.444  12.609  54.1070  0.00  0.00     0.000 C
ATOM     61  C4  IDS C   4      28.984  12.804  52.6690  0.00  0.00     0.000 C
ATOM     62  C5  IDS C   4      29.179  11.518  51.8570  0.00  0.00     0.000 C
ATOM     63  O5  IDS C   4      28.699  10.377  52.5540  0.00  0.00     0.000 O
ATOM     64   O  IDS C   4      30.832  12.879  54.1710  0.00  0.00     0.000 O
ATOM     66  HD  IDS C   4      31.169  12.926  53.3750  0.00  0.00     0.000 HD
BRANCH 59 66
ATOM     66   O  IDS C   4      27.914  11.142  55.2510  0.00  0.00     0.000 O
ATOM     67   S  IDS C   4      27.793  10.789  56.7980  0.00  0.00     0.000 S
ATOM     68   O  IDS C   4      28.421  11.917  57.4430  0.00  0.00     0.000 OA
ATOM     69   O  IDS C   4      26.369  10.662  57.0410  0.00  0.00     0.000 OA
ATOM     70   O  IDS C   4      28.539   9.560  57.0190  0.00  0.00     0.000 OA
ENDBRANCH 59 66
BRANCH 62 71
ATOM     71   C  IDS C   4      28.437  11.531  50.5340  0.00  0.00     0.000 C
ATOM     72   O  IDS C   4      28.859  12.191  49.6050  0.00  0.00     0.000 OA
ATOM     73   O  IDS C   4      27.341  10.940  50.4620  0.00  0.00     0.000 OA
ENDBRANCH 62 71
BRANCH 58 74
ATOM     74  O4  SGN C   5      30.819   9.781  53.5050  0.00  0.00     0.000 O
BRANCH 74 78
ATOM     75  C1  SGN C   5      33.395   7.125  51.5680  0.00  0.00     0.000 C
ATOM     76  C2  SGN C   5      33.277   8.528  50.9430  0.00  0.00     0.000 C
ATOM     77  C3  SGN C   5      32.591   9.498  51.9140  0.00  0.00     0.000 C
ATOM     78  C4  SGN C   5      31.319   8.899  52.4990  0.00  0.00     0.000 C
ATOM     79  C5  SGN C   5      31.628   7.532  53.0920  0.00  0.00     0.000 C
ATOM     80  O5  SGN C   5      32.143   6.658  52.0530  0.00  0.00     0.000 O
ATOM     81   O  SGN C   5      32.302  10.711  51.2280  0.00  0.00     0.000 O
ATOM     83  HD  SGN C   5      32.843  11.037  50.6350  0.00  0.00     0.000 HD
BRANCH 76 85
ATOM     83   N  SGN C   5      34.504   8.067  50.2810  0.00  0.00     0.000 N
ATOM     85  HD  SGN C   5      35.316   8.185  50.0040  0.00  0.00     0.000 HD
ATOM     85   S  SGN C   5      35.476   8.855  49.2660  0.00  0.00     0.000 S
ATOM     86   O  SGN C   5      36.581   8.038  48.9030  0.00  0.00     0.000 OA
ATOM     87   O  SGN C   5      34.666   9.352  48.2130  0.00  0.00     0.000 OA
ATOM     88   O  SGN C   5      35.908   9.935  50.2550  0.00  0.00     0.000 OA
ENDBRANCH 76 85
BRANCH 79 89
ATOM     89   C  SGN C   5      30.424   6.862  53.7240  0.00  0.00     0.000 C
ATOM     90   O  SGN C   5      30.852   5.714  54.4960  0.00  0.00     0.000 O
ATOM     91   S  SGN C   5      29.976   5.349  55.7900  0.00  0.00     0.000 S
ATOM     92   O  SGN C   5      29.882   6.555  56.5700  0.00  0.00     0.000 OA
ATOM     93   O  SGN C   5      28.693   4.896  55.3190  0.00  0.00     0.000 OA
ATOM     94   O  SGN C   5      30.744   4.314  56.4280  0.00  0.00     0.000 OA
ENDBRANCH 79 89
BRANCH 75 95
ATOM     95  O4  BDP C   6      34.271   7.254  52.6080  0.00  0.00     0.000 O
BRANCH 95 99
ATOM     96  C1  BDP C   6      36.697   4.257  54.5000  0.00  0.00     0.000 C
ATOM     97  C2  BDP C   6      36.289   4.056  53.0680  0.00  0.00     0.000 C
ATOM     98  C3  BDP C   6      35.766   5.323  52.3740  0.00  0.00     0.000 C
ATOM     99  C4  BDP C   6      34.728   6.033  53.2310  0.00  0.00     0.000 C
ATOM    100  C5  BDP C   6      35.311   6.193  54.6540  0.00  0.00     0.000 C
ATOM    101  O5  BDP C   6      35.544   4.840  55.0760  0.00  0.00     0.000 O
BRANCH 100 102
ATOM    102   C  BDP C   6      34.333   6.819  55.6160  0.00  0.00     0.000 C
ATOM    103   O  BDP C   6      34.251   8.045  55.7730  0.00  0.00     0.000 OA
ATOM    104   O  BDP C   6      33.596   6.049  56.2430  0.00  0.00     0.000 OA
ENDBRANCH 100 102
ENDBRANCH 95 99
ENDBRANCH 75 95
ENDBRANCH 74 78
ENDBRANCH 58 74
ENDBRANCH 57 61
ENDBRANCH 37 57
ENDBRANCH 36 40
ENDBRANCH 23 36
ENDBRANCH 22 26
ENDBRANCH 1 22
TORSDOF 20
ENDMDL
MODEL 15
REMARK VINA RESULT:      -3.7     11.258     14.579
ROOT
ATOM      1  C1  NGY C   1      22.131  20.651  43.9090  0.00  0.00     0.000 C
ATOM      2  C2  NGY C   1      22.012  22.169  43.9180  0.00  0.00     0.000 C
ATOM      3  C3  NGY C   1      20.845  22.602  44.8000  0.00  0.00     0.000 C
ATOM      4  C4  NGY C   1      19.596  21.888  44.3210  0.00  0.00     0.000 C
ATOM      5  C5  NGY C   1      19.817  20.382  44.4390  0.00  0.00     0.000 C
ATOM      6  O5  NGY C   1      20.918  20.014  43.5680  0.00  0.00     0.000 O
ATOM      7   O  NGY C   1      20.711  24.015  44.7350  0.00  0.00     0.000 O
ATOM      9  HD  NGY C   1      20.801  24.637  44.1390  0.00  0.00     0.000 HD
ATOM      9   O  NGY C   1      18.464  22.277  45.0840  0.00  0.00     0.000 O
ATOM     11  HD  NGY C   1      18.554  22.899  44.4880  0.00  0.00     0.000 HD
ENDROOT
BRANCH 2 13
ATOM     11   N  NGY C   1      23.401  22.535  44.0620  0.00  0.00     0.000 N
ATOM     13  HD  NGY C   1      23.355  23.352  43.7790  0.00  0.00     0.000 HD
ATOM     13   C  NGY C   1      23.841  23.750  43.7360  0.00  0.00     0.000 C
ATOM     14   O  NGY C   1      23.108  24.560  43.1650  0.00  0.00     0.000 OA
ATOM     15   C  NGY C   1      25.250  24.082  44.1210  0.00  0.00     0.000 C
ENDBRANCH 2 13
BRANCH 5 16
ATOM     16   C  NGY C   1      18.662  19.535  44.0110  0.00  0.00     0.000 C
ATOM     17   O  NGY C   1      18.685  17.392  41.0330  0.00  0.00     0.000 OA
ATOM     18   O  NGY C   1      18.935  19.009  42.7090  0.00  0.00     0.000 O
ATOM     19   S  NGY C   1      18.074  17.766  42.2830  0.00  0.00     0.000 S
ATOM     20   O  NGY C   1      16.720  18.224  42.1160  0.00  0.00     0.000 OA
ATOM     21   O  NGY C   1      18.236  16.818  43.3740  0.00  0.00     0.000 OA
ENDBRANCH 5 16
BRANCH 1 22
ATOM     22  O4  BDP C   2      22.613  20.245  45.1020  0.00  0.00     0.000 O
BRANCH 22 26
ATOM     23  C1  BDP C   2      24.538  17.318  47.2680  0.00  0.00     0.000 C
ATOM     24  C2  BDP C   2      24.864  17.356  45.7930  0.00  0.00     0.000 C
ATOM     25  C3  BDP C   2      24.398  18.662  45.2060  0.00  0.00     0.000 C
ATOM     26  C4  BDP C   2      22.927  18.895  45.5330  0.00  0.00     0.000 C
ATOM     27  C5  BDP C   2      22.684  18.659  47.0180  0.00  0.00     0.000 C
ATOM     28  O5  BDP C   2      23.095  17.337  47.4500  0.00  0.00     0.000 O
ATOM     29   O  BDP C   2      26.270  17.357  45.5460  0.00  0.00     0.000 O
ATOM     31  HD  BDP C   2      26.544  17.826  44.8720  0.00  0.00     0.000 HD
ATOM     31   O  BDP C   2      24.577  18.570  43.7980  0.00  0.00     0.000 O
ATOM     33  HD  BDP C   2      24.852  19.039  43.1240  0.00  0.00     0.000 HD
BRANCH 27 33
ATOM     33   C  BDP C   2      21.226  18.778  47.3900  0.00  0.00     0.000 C
ATOM     34   O  BDP C   2      20.388  17.893  47.0930  0.00  0.00     0.000 OA
ATOM     35   O  BDP C   2      20.855  19.786  47.9690  0.00  0.00     0.000 OA
ENDBRANCH 27 33
BRANCH 23 36
ATOM     36  O4  SGN C   3      25.022  16.249  47.9410  0.00  0.00     0.000 O
BRANCH 36 40
ATOM     37  C1  SGN C   3      27.055  14.992  51.3650  0.00  0.00     0.000 C
ATOM     38  C2  SGN C   3      25.531  15.171  51.4640  0.00  0.00     0.000 C
ATOM     39  C3  SGN C   3      24.907  15.195  50.0770  0.00  0.00     0.000 C
ATOM     40  C4  SGN C   3      25.565  16.290  49.2640  0.00  0.00     0.000 C
ATOM     41  C5  SGN C   3      27.058  16.048  49.2390  0.00  0.00     0.000 C
ATOM     42  O5  SGN C   3      27.573  16.055  50.5800  0.00  0.00     0.000 O
ATOM     43   O  SGN C   3      23.508  15.421  50.1960  0.00  0.00     0.000 O
ATOM     45  HD  SGN C   3      23.790  15.718  49.4330  0.00  0.00     0.000 HD
BRANCH 38 47
ATOM     45   N  SGN C   3      25.819  15.355  52.8980  0.00  0.00     0.000 N
ATOM     47  HD  SGN C   3      25.841  15.675  52.0930  0.00  0.00     0.000 HD
ATOM     47   S  SGN C   3      25.080  14.274  53.7980  0.00  0.00     0.000 S
ATOM     48   O  SGN C   3      23.670  14.437  53.7530  0.00  0.00     0.000 OA
ATOM     49   O  SGN C   3      25.590  13.000  53.4080  0.00  0.00     0.000 OA
ATOM     50   O  SGN C   3      25.530  14.646  55.1390  0.00  0.00     0.000 OA
ENDBRANCH 38 47
BRANCH 41 51
ATOM     51   C  SGN C   3      27.834  17.071  48.4540  0.00  0.00     0.000 C
ATOM     52   O  SGN C   3      27.686  20.776  48.8120  0.00  0.00     0.000 OA
ATOM     53   O  SGN C   3      29.540  19.373  48.2440  0.00  0.00     0.000 OA
ATOM     54   O  SGN C   3      27.643  19.534  46.7810  0.00  0.00     0.000 OA
ATOM     55   O  SGN C   3      27.517  18.356  48.9410  0.00  0.00     0.000 O
ATOM     56   S  SGN C   3      28.156  19.628  48.1160  0.00  0.00     0.000 S
ENDBRANCH 41 51
BRANCH 37 57
ATOM     57  O4  IDS C   4      27.452  13.822  50.8080  0.00  0.00     0.000 O
BRANCH 57 61
ATOM     58  C1  IDS C   4      29.771  10.807  50.8490  0.00  0.00     0.000 C
ATOM     59  C2  IDS C   4      29.326  11.388  52.1540  0.00  0.00     0.000 C
ATOM     60  C3  IDS C   4      29.293  12.918  52.1390  0.00  0.00     0.000 C
ATOM     61  C4  IDS C   4      28.872  13.578  50.8330  0.00  0.00     0.000 C
ATOM     62  C5  IDS C   4      29.303  12.729  49.6310  0.00  0.00     0.000 C
ATOM     63  O5  IDS C   4      28.978  11.358  49.8110  0.00  0.00     0.000 O
ATOM     64   O  IDS C   4      30.617  13.322  52.4350  0.00  0.00     0.000 O
ATOM     66  HD  IDS C   4      30.977  13.709  51.7480  0.00  0.00     0.000 HD
BRANCH 59 66
ATOM     66   O  IDS C   4      27.965  10.944  52.5090  0.00  0.00     0.000 O
ATOM     67   S  IDS C   4      27.842   9.952  53.7480  0.00  0.00     0.000 S
ATOM     68   O  IDS C   4      28.289  10.758  54.8590  0.00  0.00     0.000 OA
ATOM     69   O  IDS C   4      26.442   9.578  53.7880  0.00  0.00     0.000 OA
ATOM     70   O  IDS C   4      28.742   8.837  53.4970  0.00  0.00     0.000 OA
ENDBRANCH 59 66
BRANCH 62 71
ATOM     71   C  IDS C   4      28.627  13.142  48.3380  0.00  0.00     0.000 C
ATOM     72   O  IDS C   4      29.161  13.949  47.6010  0.00  0.00     0.000 OA
ATOM     73   O  IDS C   4      27.477  12.717  48.1060  0.00  0.00     0.000 OA
ENDBRANCH 62 71
BRANCH 58 74
ATOM     74  O4  SGN C   5      31.123  10.729  50.6850  0.00  0.00     0.000 O
BRANCH 74 78
ATOM     75  C1  SGN C   5      34.299   8.757  48.8230  0.00  0.00     0.000 C
ATOM     76  C2  SGN C   5      33.409   9.619  47.9080  0.00  0.00     0.000 C
ATOM     77  C3  SGN C   5      32.512  10.545  48.7400  0.00  0.00     0.000 C
ATOM     78  C4  SGN C   5      31.811   9.789  49.8600  0.00  0.00     0.000 C
ATOM     79  C5  SGN C   5      32.841   9.018  50.6730  0.00  0.00     0.000 C
ATOM     80  O5  SGN C   5      33.534   8.077  49.8100  0.00  0.00     0.000 O
ATOM     81   O  SGN C   5      31.558  11.160  47.8790  0.00  0.00     0.000 O
ATOM     83  HD  SGN C   5      31.763  11.402  47.0730  0.00  0.00     0.000 HD
BRANCH 76 85
ATOM     83   N  SGN C   5      34.572  10.108  47.1570  0.00  0.00     0.000 N
ATOM     85  HD  SGN C   5      34.935  10.506  46.4790  0.00  0.00     0.000 HD
ATOM     85   S  SGN C   5      34.853  10.074  45.5710  0.00  0.00     0.000 S
ATOM     86   O  SGN C   5      36.094  10.701  45.2730  0.00  0.00     0.000 OA
ATOM     87   O  SGN C   5      34.690   8.730  45.1460  0.00  0.00     0.000 OA
ATOM     88   O  SGN C   5      33.686  10.976  45.1770  0.00  0.00     0.000 OA
ENDBRANCH 76 85
BRANCH 79 89
ATOM     89   C  SGN C   5      32.242   8.248  51.8320  0.00  0.00     0.000 C
ATOM     90   O  SGN C   5      32.365   6.825  51.5910  0.00  0.00     0.000 O
ATOM     91   S  SGN C   5      32.536   5.887  52.8830  0.00  0.00     0.000 S
ATOM     92   O  SGN C   5      33.633   6.433  53.6380  0.00  0.00     0.000 OA
ATOM     93   O  SGN C   5      31.292   5.933  53.6070  0.00  0.00     0.000 OA
ATOM     94   O  SGN C   5      32.817   4.595  52.3180  0.00  0.00     0.000 OA
ENDBRANCH 79 89
BRANCH 75 95
ATOM     95  O4  BDP C   6      35.161   9.626  49.4290  0.00  0.00     0.000 O
BRANCH 95 99
ATOM     96  C1  BDP C   6      39.174   9.054  50.8490  0.00  0.00     0.000 C
ATOM     97  C2  BDP C   6      38.740   8.333  49.6050  0.00  0.00     0.000 C
ATOM     98  C3  BDP C   6      37.453   8.883  48.9700  0.00  0.00     0.000 C
ATOM     99  C4  BDP C   6      36.356   9.060  50.0100  0.00  0.00     0.000 C
ATOM    100  C5  BDP C   6      36.950   9.845  51.2020  0.00  0.00     0.000 C
ATOM    101  O5  BDP C   6      38.017   9.001  51.6630  0.00  0.00     0.000 O
BRANCH 100 102
ATOM    102   C  BDP C   6      35.969  10.013  52.3340  0.00  0.00     0.000 C
ATOM    103   O  BDP C   6      35.449  11.106  52.6030  0.00  0.00     0.000 OA
ATOM    104   O  BDP C   6      35.690   9.001  52.9870  0.00  0.00     0.000 OA
ENDBRANCH 100 102
ENDBRANCH 95 99
ENDBRANCH 75 95
ENDBRANCH 74 78
ENDBRANCH 58 74
ENDBRANCH 57 61
ENDBRANCH 37 57
ENDBRANCH 36 40
ENDBRANCH 23 36
ENDBRANCH 22 26
ENDBRANCH 1 22
TORSDOF 20
ENDMDL
MODEL 16
REMARK VINA RESULT:      -3.5     32.604     38.572
ROOT
ATOM      1  C1  NGY C   1       8.610   7.715  67.2300  0.00  0.00     0.000 C
ATOM      2  C2  NGY C   1       9.246   7.077  66.0030  0.00  0.00     0.000 C
ATOM      3  C3  NGY C   1       8.167   6.567  65.0530  0.00  0.00     0.000 C
ATOM      4  C4  NGY C   1       7.251   5.639  65.8270  0.00  0.00     0.000 C
ATOM      5  C5  NGY C   1       6.618   6.422  66.9750  0.00  0.00     0.000 C
ATOM      6  O5  NGY C   1       7.677   6.865  67.8620  0.00  0.00     0.000 O
ATOM      7   O  NGY C   1       8.784   5.913  63.9530  0.00  0.00     0.000 O
ATOM      9  HD  NGY C   1       9.476   5.410  63.8180  0.00  0.00     0.000 HD
ATOM      9   O  NGY C   1       6.240   5.104  64.9860  0.00  0.00     0.000 O
ATOM     11  HD  NGY C   1       6.932   4.601  64.8500  0.00  0.00     0.000 HD
ENDROOT
BRANCH 2 13
ATOM     11   N  NGY C   1      10.329   8.009  65.7920  0.00  0.00     0.000 N
ATOM     13  HD  NGY C   1      10.795   7.548  65.2270  0.00  0.00     0.000 HD
ATOM     13   C  NGY C   1      11.339   7.732  64.9690  0.00  0.00     0.000 C
ATOM     14   O  NGY C   1      11.462   6.614  64.4650  0.00  0.00     0.000 OA
ATOM     15   C  NGY C   1      12.289   8.850  64.6700  0.00  0.00     0.000 C
ENDBRANCH 2 13
BRANCH 5 16
ATOM     16   C  NGY C   1       5.674   5.640  67.8320  0.00  0.00     0.000 C
ATOM     17   O  NGY C   1       6.739   3.226  70.3800  0.00  0.00     0.000 OA
ATOM     18   O  NGY C   1       6.416   4.650  68.5490  0.00  0.00     0.000 O
ATOM     19   S  NGY C   1       5.699   4.043  69.8080  0.00  0.00     0.000 S
ATOM     20   O  NGY C   1       4.589   3.261  69.3290  0.00  0.00     0.000 OA
ATOM     21   O  NGY C   1       5.299   5.198  70.5950  0.00  0.00     0.000 OA
ENDBRANCH 5 16
BRANCH 1 22
ATOM     22  O4  BDP C   2       8.074   8.901  66.8740  0.00  0.00     0.000 O
BRANCH 22 26
ATOM     23  C1  BDP C   2       7.550  12.894  67.7360  0.00  0.00     0.000 C
ATOM     24  C2  BDP C   2       8.817  12.274  68.2750  0.00  0.00     0.000 C
ATOM     25  C3  BDP C   2       9.062  10.952  67.5960  0.00  0.00     0.000 C
ATOM     26  C4  BDP C   2       7.827  10.064  67.7080  0.00  0.00     0.000 C
ATOM     27  C5  BDP C   2       6.586  10.849  67.3040  0.00  0.00     0.000 C
ATOM     28  O5  BDP C   2       6.410  12.059  68.0850  0.00  0.00     0.000 O
ATOM     29   O  BDP C   2       9.978  13.039  67.9520  0.00  0.00     0.000 O
ATOM     31  HD  BDP C   2      10.701  12.593  67.7820  0.00  0.00     0.000 HD
ATOM     31   O  BDP C   2      10.163  10.344  68.2580  0.00  0.00     0.000 O
ATOM     33  HD  BDP C   2      10.886   9.898  68.0890  0.00  0.00     0.000 HD
BRANCH 27 33
ATOM     33   C  BDP C   2       5.315  10.055  67.4860  0.00  0.00     0.000 C
ATOM     34   O  BDP C   2       5.168   9.242  68.4300  0.00  0.00     0.000 OA
ATOM     35   O  BDP C   2       4.423  10.190  66.6650  0.00  0.00     0.000 OA
ENDBRANCH 27 33
BRANCH 23 36
ATOM     36  O4  SGN C   3       7.287  14.148  68.1730  0.00  0.00     0.000 O
BRANCH 36 40
ATOM     37  C1  SGN C   3       5.755  17.884  67.1130  0.00  0.00     0.000 C
ATOM     38  C2  SGN C   3       4.769  16.833  67.6480  0.00  0.00     0.000 C
ATOM     39  C3  SGN C   3       5.515  15.728  68.3810  0.00  0.00     0.000 C
ATOM     40  C4  SGN C   3       6.544  15.130  67.4460  0.00  0.00     0.000 C
ATOM     41  C5  SGN C   3       7.453  16.234  66.9520  0.00  0.00     0.000 C
ATOM     42  O5  SGN C   3       6.679  17.226  66.2600  0.00  0.00     0.000 O
ATOM     43   O  SGN C   3       4.585  14.742  68.8130  0.00  0.00     0.000 O
ATOM     45  HD  SGN C   3       5.363  14.381  68.6910  0.00  0.00     0.000 HD
BRANCH 38 47
ATOM     45   N  SGN C   3       3.895  17.789  66.9440  0.00  0.00     0.000 N
ATOM     47  HD  SGN C   3       4.544  17.217  66.9080  0.00  0.00     0.000 HD
ATOM     47   S  SGN C   3       2.634  18.202  67.8200  0.00  0.00     0.000 S
ATOM     48   O  SGN C   3       1.764  17.100  68.0280  0.00  0.00     0.000 OA
ATOM     49   O  SGN C   3       3.141  18.848  68.9870  0.00  0.00     0.000 OA
ATOM     50   O  SGN C   3       1.954  19.146  66.9350  0.00  0.00     0.000 OA
ENDBRANCH 38 47
BRANCH 41 51
ATOM     51   C  SGN C   3       8.531  15.768  66.0120  0.00  0.00     0.000 C
ATOM     52   O  SGN C   3      11.382  17.764  64.6830  0.00  0.00     0.000 OA
ATOM     53   O  SGN C   3      11.279  15.438  65.2390  0.00  0.00     0.000 OA
ATOM     54   O  SGN C   3       9.948  16.320  63.4450  0.00  0.00     0.000 OA
ATOM     55   O  SGN C   3       9.442  16.824  65.8030  0.00  0.00     0.000 O
ATOM     56   S  SGN C   3      10.622  16.561  64.6870  0.00  0.00     0.000 S
ENDBRANCH 41 51
BRANCH 37 57
ATOM     57  O4  IDS C   4       6.455  18.542  68.0690  0.00  0.00     0.000 O
BRANCH 57 61
ATOM     58  C1  IDS C   4       7.711  21.955  69.1860  0.00  0.00     0.000 C
ATOM     59  C2  IDS C   4       6.506  21.887  68.3030  0.00  0.00     0.000 C
ATOM     60  C3  IDS C   4       6.633  20.824  67.2090  0.00  0.00     0.000 C
ATOM     61  C4  IDS C   4       7.369  19.545  67.5840  0.00  0.00     0.000 C
ATOM     62  C5  IDS C   4       8.465  19.832  68.6170  0.00  0.00     0.000 C
ATOM     63  O5  IDS C   4       7.991  20.654  69.6740  0.00  0.00     0.000 O
ATOM     64   O  IDS C   4       7.341  21.453  66.1580  0.00  0.00     0.000 O
ATOM     66  HD  IDS C   4       8.122  21.092  66.0600  0.00  0.00     0.000 HD
BRANCH 59 66
ATOM     66   O  IDS C   4       5.290  21.556  69.0690  0.00  0.00     0.000 O
ATOM     67   S  IDS C   4       4.323  22.768  69.4270  0.00  0.00     0.000 S
ATOM     68   O  IDS C   4       3.857  23.209  68.1340  0.00  0.00     0.000 OA
ATOM     69   O  IDS C   4       3.302  22.192  70.2800  0.00  0.00     0.000 OA
ATOM     70   O  IDS C   4       5.132  23.785  70.0810  0.00  0.00     0.000 OA
ENDBRANCH 59 66
BRANCH 62 71
ATOM     71   C  IDS C   4       8.999  18.578  69.2820  0.00  0.00     0.000 C
ATOM     72   O  IDS C   4      10.007  18.045  68.8600  0.00  0.00     0.000 OA
ATOM     73   O  IDS C   4       8.326  18.057  70.1940  0.00  0.00     0.000 OA
ENDBRANCH 62 71
BRANCH 58 74
ATOM     74  O4  SGN C   5       8.733  22.721  68.7070  0.00  0.00     0.000 O
BRANCH 74 78
ATOM     75  C1  SGN C   5      11.825  25.373  69.6260  0.00  0.00     0.000 C
ATOM     76  C2  SGN C   5      11.998  23.930  70.1370  0.00  0.00     0.000 C
ATOM     77  C3  SGN C   5      10.994  22.990  69.4570  0.00  0.00     0.000 C
ATOM     78  C4  SGN C   5       9.583  23.562  69.4860  0.00  0.00     0.000 C
ATOM     79  C5  SGN C   5       9.597  24.976  68.9250  0.00  0.00     0.000 C
ATOM     80  O5  SGN C   5      10.475  25.808  69.7290  0.00  0.00     0.000 O
ATOM     81   O  SGN C   5      11.034  21.724  70.1070  0.00  0.00     0.000 O
ATOM     83  HD  SGN C   5      11.775  21.388  70.4030  0.00  0.00     0.000 HD
BRANCH 76 85
ATOM     83   N  SGN C   5      13.271  24.357  70.7320  0.00  0.00     0.000 N
ATOM     85  HD  SGN C   5      14.133  24.443  70.7200  0.00  0.00     0.000 HD
ATOM     85   S  SGN C   5      14.696  23.607  70.7450  0.00  0.00     0.000 S
ATOM     86   O  SGN C   5      15.673  24.407  71.3990  0.00  0.00     0.000 OA
ATOM     87   O  SGN C   5      14.479  22.303  71.2600  0.00  0.00     0.000 OA
ATOM     88   O  SGN C   5      14.909  23.629  69.2330  0.00  0.00     0.000 OA
ENDBRANCH 76 85
BRANCH 79 89
ATOM     89   C  SGN C   5       8.228  25.625  68.8900  0.00  0.00     0.000 C
ATOM     90   O  SGN C   5       7.839  26.022  70.2280  0.00  0.00     0.000 O
ATOM     91   S  SGN C   5       6.906  27.322  70.3510  0.00  0.00     0.000 S
ATOM     92   O  SGN C   5       7.568  28.369  69.6180  0.00  0.00     0.000 OA
ATOM     93   O  SGN C   5       5.625  26.979  69.7870  0.00  0.00     0.000 OA
ATOM     94   O  SGN C   5       6.856  27.559  71.7680  0.00  0.00     0.000 OA
ENDBRANCH 79 89
BRANCH 75 95
ATOM     95  O4  BDP C   6      12.201  25.351  68.3130  0.00  0.00     0.000 O
BRANCH 95 99
ATOM     96  C1  BDP C   6      14.065  28.342  65.8580  0.00  0.00     0.000 C
ATOM     97  C2  BDP C   6      14.503  28.208  67.2890  0.00  0.00     0.000 C
ATOM     98  C3  BDP C   6      14.075  26.895  67.9620  0.00  0.00     0.000 C
ATOM     99  C4  BDP C   6      12.599  26.610  67.7280  0.00  0.00     0.000 C
ATOM    100  C5  BDP C   6      12.319  26.754  66.2130  0.00  0.00     0.000 C
ATOM    101  O5  BDP C   6      12.669  28.120  65.9350  0.00  0.00     0.000 O
BRANCH 100 102
ATOM    102   C  BDP C   6      10.862  26.570  65.8710  0.00  0.00     0.000 C
ATOM    103   O  BDP C   6      10.427  25.522  65.3700  0.00  0.00     0.000 OA
ATOM    104   O  BDP C   6      10.104  27.513  66.1250  0.00  0.00     0.000 OA
ENDBRANCH 100 102
ENDBRANCH 95 99
ENDBRANCH 75 95
ENDBRANCH 74 78
ENDBRANCH 58 74
ENDBRANCH 57 61
ENDBRANCH 37 57
ENDBRANCH 36 40
ENDBRANCH 23 36
ENDBRANCH 22 26
ENDBRANCH 1 22
TORSDOF 20
ENDMDL
MODEL 17
REMARK VINA RESULT:      -3.2     17.777     26.121
ROOT
ATOM      1  C1  NGY C   1      21.014  28.220  46.0140  0.00  0.00     0.000 C
ATOM      2  C2  NGY C   1      20.631  29.676  45.7880  0.00  0.00     0.000 C
ATOM      3  C3  NGY C   1      19.330  29.764  44.9970  0.00  0.00     0.000 C
ATOM      4  C4  NGY C   1      19.495  28.963  43.7200  0.00  0.00     0.000 C
ATOM      5  C5  NGY C   1      19.793  27.512  44.0870  0.00  0.00     0.000 C
ATOM      6  O5  NGY C   1      21.047  27.476  44.8150  0.00  0.00     0.000 O
ATOM      7   O  NGY C   1      19.033  31.129  44.7370  0.00  0.00     0.000 O
ATOM      9  HD  NGY C   1      19.472  31.852  44.5530  0.00  0.00     0.000 HD
ATOM      9   O  NGY C   1      18.323  29.034  42.9210  0.00  0.00     0.000 O
ATOM     11  HD  NGY C   1      18.762  29.758  42.7370  0.00  0.00     0.000 HD
ENDROOT
BRANCH 2 13
ATOM     11   N  NGY C   1      20.273  30.547  46.8830  0.00  0.00     0.000 N
ATOM     13  HD  NGY C   1      20.978  31.050  46.8910  0.00  0.00     0.000 HD
ATOM     13   C  NGY C   1      21.080  31.526  47.2900  0.00  0.00     0.000 C
ATOM     14   O  NGY C   1      22.224  31.635  46.8450  0.00  0.00     0.000 OA
ATOM     15   C  NGY C   1      20.517  32.491  48.2880  0.00  0.00     0.000 C
ENDBRANCH 2 13
BRANCH 5 16
ATOM     16   C  NGY C   1      19.973  26.587  42.9260  0.00  0.00     0.000 C
ATOM     17   O  NGY C   1      22.332  23.778  42.8900  0.00  0.00     0.000 OA
ATOM     18   O  NGY C   1      21.111  25.757  43.1720  0.00  0.00     0.000 O
ATOM     19   S  NGY C   1      21.198  24.449  42.3060  0.00  0.00     0.000 S
ATOM     20   O  NGY C   1      21.441  24.854  40.9460  0.00  0.00     0.000 OA
ATOM     21   O  NGY C   1      19.913  23.797  42.4970  0.00  0.00     0.000 OA
ENDBRANCH 5 16
BRANCH 1 22
ATOM     22  O4  BDP C   2      20.179  27.689  46.9320  0.00  0.00     0.000 O
BRANCH 22 26
ATOM     23  C1  BDP C   2      19.437  25.113  50.0590  0.00  0.00     0.000 C
ATOM     24  C2  BDP C   2      20.649  26.000  50.2210  0.00  0.00     0.000 C
ATOM     25  C3  BDP C   2      20.596  27.118  49.2140  0.00  0.00     0.000 C
ATOM     26  C4  BDP C   2      20.411  26.555  47.8090  0.00  0.00     0.000 C
ATOM     27  C5  BDP C   2      19.273  25.542  47.8040  0.00  0.00     0.000 C
ATOM     28  O5  BDP C   2      19.476  24.466  48.7560  0.00  0.00     0.000 O
ATOM     29   O  BDP C   2      20.662  26.679  51.4770  0.00  0.00     0.000 O
ATOM     31  HD  BDP C   2      20.981  27.484  51.4790  0.00  0.00     0.000 HD
ATOM     31   O  BDP C   2      21.833  27.813  49.3020  0.00  0.00     0.000 O
ATOM     33  HD  BDP C   2      22.152  28.619  49.3040  0.00  0.00     0.000 HD
BRANCH 27 33
ATOM     33   C  BDP C   2      19.101  24.873  46.4610  0.00  0.00     0.000 C
ATOM     34   O  BDP C   2      20.001  24.163  45.9500  0.00  0.00     0.000 OA
ATOM     35   O  BDP C   2      18.065  25.064  45.8460  0.00  0.00     0.000 OA
ENDBRANCH 27 33
BRANCH 23 36
ATOM     36  O4  SGN C   3      19.300  24.143  50.9930  0.00  0.00     0.000 O
BRANCH 36 40
ATOM     37  C1  SGN C   3      16.570  21.944  53.2610  0.00  0.00     0.000 C
ATOM     38  C2  SGN C   3      16.933  21.411  51.8650  0.00  0.00     0.000 C
ATOM     39  C3  SGN C   3      18.221  22.051  51.3690  0.00  0.00     0.000 C
ATOM     40  C4  SGN C   3      18.057  23.556  51.3870  0.00  0.00     0.000 C
ATOM     41  C5  SGN C   3      17.679  23.988  52.7870  0.00  0.00     0.000 C
ATOM     42  O5  SGN C   3      16.450  23.356  53.1750  0.00  0.00     0.000 O
ATOM     43   O  SGN C   3      18.499  21.585  50.0550  0.00  0.00     0.000 O
ATOM     45  HD  SGN C   3      18.842  22.372  50.1670  0.00  0.00     0.000 HD
BRANCH 38 47
ATOM     45   N  SGN C   3      17.069  19.976  52.1740  0.00  0.00     0.000 N
ATOM     47  HD  SGN C   3      17.379  20.781  52.2520  0.00  0.00     0.000 HD
ATOM     47   S  SGN C   3      15.734  19.169  51.8670  0.00  0.00     0.000 S
ATOM     48   O  SGN C   3      14.681  19.562  52.7350  0.00  0.00     0.000 OA
ATOM     49   O  SGN C   3      15.492  19.297  50.4670  0.00  0.00     0.000 OA
ATOM     50   O  SGN C   3      16.122  17.806  52.2240  0.00  0.00     0.000 OA
ENDBRANCH 38 47
BRANCH 41 51
ATOM     51   C  SGN C   3      17.490  25.473  52.9420  0.00  0.00     0.000 C
ATOM     52   O  SGN C   3      19.554  27.807  54.9840  0.00  0.00     0.000 OA
ATOM     53   O  SGN C   3      18.435  28.186  52.9020  0.00  0.00     0.000 OA
ATOM     54   O  SGN C   3      17.176  27.710  54.8900  0.00  0.00     0.000 OA
ATOM     55   O  SGN C   3      18.519  25.980  53.7630  0.00  0.00     0.000 O
ATOM     56   S  SGN C   3      18.409  27.570  54.1730  0.00  0.00     0.000 S
ENDBRANCH 41 51
BRANCH 37 57
ATOM     57  O4  IDS C   4      17.472  21.654  54.2300  0.00  0.00     0.000 O
BRANCH 57 61
ATOM     58  C1  IDS C   4      18.464  19.853  57.4300  0.00  0.00     0.000 C
ATOM     59  C2  IDS C   4      17.653  19.114  56.4130  0.00  0.00     0.000 C
ATOM     60  C3  IDS C   4      16.570  19.987  55.7740  0.00  0.00     0.000 C
ATOM     61  C4  IDS C   4      16.921  21.450  55.5450  0.00  0.00     0.000 C
ATOM     62  C5  IDS C   4      17.884  21.954  56.6270  0.00  0.00     0.000 C
ATOM     63  O5  IDS C   4      18.955  21.046  56.8430  0.00  0.00     0.000 O
ATOM     64   O  IDS C   4      15.470  19.926  56.6630  0.00  0.00     0.000 O
ATOM     66  HD  IDS C   4      15.333  20.699  57.0280  0.00  0.00     0.000 HD
BRANCH 59 66
ATOM     66   O  IDS C   4      18.494  18.615  55.3080  0.00  0.00     0.000 O
ATOM     67   S  IDS C   4      18.697  17.039  55.2260  0.00  0.00     0.000 S
ATOM     68   O  IDS C   4      17.367  16.550  54.9520  0.00  0.00     0.000 OA
ATOM     69   O  IDS C   4      19.653  16.841  54.1550  0.00  0.00     0.000 OA
ATOM     70   O  IDS C   4      19.173  16.598  56.5280  0.00  0.00     0.000 OA
ENDBRANCH 59 66
BRANCH 62 71
ATOM     71   C  IDS C   4      18.536  23.277  56.2740  0.00  0.00     0.000 C
ATOM     72   O  IDS C   4      17.894  24.308  56.3330  0.00  0.00     0.000 OA
ATOM     73   O  IDS C   4      19.700  23.265  55.8260  0.00  0.00     0.000 OA
ENDBRANCH 62 71
BRANCH 58 74
ATOM     74  O4  SGN C   5      17.916  19.901  58.6780  0.00  0.00     0.000 O
BRANCH 74 78
ATOM     75  C1  SGN C   5      18.794  20.071  62.7570  0.00  0.00     0.000 C
ATOM     76  C2  SGN C   5      18.321  21.387  62.1130  0.00  0.00     0.000 C
ATOM     77  C3  SGN C   5      17.712  21.125  60.7290  0.00  0.00     0.000 C
ATOM     78  C4  SGN C   5      18.607  20.232  59.8820  0.00  0.00     0.000 C
ATOM     79  C5  SGN C   5      18.953  18.973  60.6640  0.00  0.00     0.000 C
ATOM     80  O5  SGN C   5      19.646  19.336  61.8870  0.00  0.00     0.000 O
ATOM     81   O  SGN C   5      17.490  22.372  60.0780  0.00  0.00     0.000 O
ATOM     83  HD  SGN C   5      17.230  23.073  60.5150  0.00  0.00     0.000 HD
BRANCH 76 85
ATOM     83   N  SGN C   5      17.824  22.656  62.6600  0.00  0.00     0.000 N
ATOM     85  HD  SGN C   5      17.821  23.286  63.2540  0.00  0.00     0.000 HD
ATOM     85   S  SGN C   5      17.515  23.059  64.1880  0.00  0.00     0.000 S
ATOM     86   O  SGN C   5      17.090  24.414  64.2680  0.00  0.00     0.000 OA
ATOM     87   O  SGN C   5      16.638  22.075  64.7130  0.00  0.00     0.000 OA
ATOM     88   O  SGN C   5      18.950  22.916  64.6900  0.00  0.00     0.000 OA
ENDBRANCH 76 85
BRANCH 79 89
ATOM     89   C  SGN C   5      19.826  18.004  59.8920  0.00  0.00     0.000 C
ATOM     90   O  SGN C   5      20.370  17.009  60.7950  0.00  0.00     0.000 O
ATOM     91   S  SGN C   5      20.633  15.549  60.1830  0.00  0.00     0.000 S
ATOM     92   O  SGN C   5      19.400  15.140  59.5630  0.00  0.00     0.000 OA
ATOM     93   O  SGN C   5      21.711  15.674  59.2360  0.00  0.00     0.000 OA
ATOM     94   O  SGN C   5      20.980  14.765  61.3380  0.00  0.00     0.000 OA
ENDBRANCH 79 89
BRANCH 75 95
ATOM     95  O4  BDP C   6      17.661  19.349  63.0060  0.00  0.00     0.000 O
BRANCH 95 99
ATOM     96  C1  BDP C   6      16.809  16.535  66.1370  0.00  0.00     0.000 C
ATOM     97  C2  BDP C   6      17.748  17.673  66.4250  0.00  0.00     0.000 C
ATOM     98  C3  BDP C   6      17.692  18.816  65.4000  0.00  0.00     0.000 C
ATOM     99  C4  BDP C   6      17.766  18.285  63.9760  0.00  0.00     0.000 C
ATOM    100  C5  BDP C   6      16.722  17.153  63.8330  0.00  0.00     0.000 C
ATOM    101  O5  BDP C   6      17.141  16.183  64.8070  0.00  0.00     0.000 O
BRANCH 100 102
ATOM    102   C  BDP C   6      16.759  16.495  62.4770  0.00  0.00     0.000 C
ATOM    103   O  BDP C   6      17.569  15.600  62.1970  0.00  0.00     0.000 OA
ATOM    104   O  BDP C   6      15.928  16.881  61.6460  0.00  0.00     0.000 OA
ENDBRANCH 100 102
ENDBRANCH 95 99
ENDBRANCH 75 95
ENDBRANCH 74 78
ENDBRANCH 58 74
ENDBRANCH 57 61
ENDBRANCH 37 57
ENDBRANCH 36 40
ENDBRANCH 23 36
ENDBRANCH 22 26
ENDBRANCH 1 22
TORSDOF 20
ENDMDL
MODEL 18
REMARK VINA RESULT:      -2.6     18.151     21.226
ROOT
ATOM      1  C1  NGY C   1       8.199  26.170  28.7280  0.00  0.00     0.000 C
ATOM      2  C2  NGY C   1       7.268  25.300  29.5610  0.00  0.00     0.000 C
ATOM      3  C3  NGY C   1       6.439  24.396  28.6550  0.00  0.00     0.000 C
ATOM      4  C4  NGY C   1       5.726  25.266  27.6380  0.00  0.00     0.000 C
ATOM      5  C5  NGY C   1       6.772  26.018  26.8190  0.00  0.00     0.000 C
ATOM      6  O5  NGY C   1       7.518  26.881  27.7160  0.00  0.00     0.000 O
ATOM      7   O  NGY C   1       5.529  23.648  29.4490  0.00  0.00     0.000 O
ATOM      9  HD  NGY C   1       5.050  23.774  30.1590  0.00  0.00     0.000 HD
ATOM      9   O  NGY C   1       4.908  24.482  26.7820  0.00  0.00     0.000 O
ATOM     11  HD  NGY C   1       4.429  24.608  27.4930  0.00  0.00     0.000 HD
ENDROOT
BRANCH 2 13
ATOM     11   N  NGY C   1       8.156  24.775  30.5720  0.00  0.00     0.000 N
ATOM     13  HD  NGY C   1       7.582  24.665  31.2110  0.00  0.00     0.000 HD
ATOM     13   C  NGY C   1       7.715  24.443  31.7840  0.00  0.00     0.000 C
ATOM     14   O  NGY C   1       6.563  24.705  32.1370  0.00  0.00     0.000 OA
ATOM     15   C  NGY C   1       8.677  23.717  32.6750  0.00  0.00     0.000 C
ENDBRANCH 2 13
BRANCH 5 16
ATOM     16   C  NGY C   1       6.221  26.918  25.7590  0.00  0.00     0.000 C
ATOM     17   O  NGY C   1       4.626  30.151  26.4400  0.00  0.00     0.000 OA
ATOM     18   O  NGY C   1       5.489  27.974  26.3870  0.00  0.00     0.000 O
ATOM     19   S  NGY C   1       5.222  29.240  25.4960  0.00  0.00     0.000 S
ATOM     20   O  NGY C   1       4.303  28.846  24.4600  0.00  0.00     0.000 OA
ATOM     21   O  NGY C   1       6.534  29.618  24.9950  0.00  0.00     0.000 OA
ENDBRANCH 5 16
BRANCH 1 22
ATOM     22  O4  BDP C   2       9.194  25.399  28.2410  0.00  0.00     0.000 O
BRANCH 22 26
ATOM     23  C1  BDP C   2      13.254  25.122  27.6050  0.00  0.00     0.000 C
ATOM     24  C2  BDP C   2      12.820  26.202  28.5670  0.00  0.00     0.000 C
ATOM     25  C3  BDP C   2      11.393  25.962  28.9860  0.00  0.00     0.000 C
ATOM     26  C4  BDP C   2      10.500  25.814  27.7590  0.00  0.00     0.000 C
ATOM     27  C5  BDP C   2      11.126  24.830  26.7790  0.00  0.00     0.000 C
ATOM     28  O5  BDP C   2      12.468  25.211  26.3830  0.00  0.00     0.000 O
ATOM     29   O  BDP C   2      13.543  26.159  29.7970  0.00  0.00     0.000 O
ATOM     31  HD  BDP C   2      13.102  26.362  30.5140  0.00  0.00     0.000 HD
ATOM     31   O  BDP C   2      10.990  27.091  29.7500  0.00  0.00     0.000 O
ATOM     33  HD  BDP C   2      10.549  27.295  30.4670  0.00  0.00     0.000 HD
BRANCH 27 33
ATOM     33   C  BDP C   2      10.338  24.712  25.4960  0.00  0.00     0.000 C
ATOM     34   O  BDP C   2      10.313  25.632  24.6430  0.00  0.00     0.000 OA
ATOM     35   O  BDP C   2       9.681  23.702  25.3090  0.00  0.00     0.000 OA
ENDBRANCH 27 33
BRANCH 23 36
ATOM     36  O4  SGN C   3      14.561  25.150  27.2540  0.00  0.00     0.000 O
BRANCH 36 40
ATOM     37  C1  SGN C   3      17.878  22.704  26.5890  0.00  0.00     0.000 C
ATOM     38  C2  SGN C   3      17.167  23.292  25.3600  0.00  0.00     0.000 C
ATOM     39  C3  SGN C   3      16.293  24.471  25.7640  0.00  0.00     0.000 C
ATOM     40  C4  SGN C   3      15.321  24.015  26.8300  0.00  0.00     0.000 C
ATOM     41  C5  SGN C   3      16.103  23.432  27.9860  0.00  0.00     0.000 C
ATOM     42  O5  SGN C   3      16.887  22.319  27.5290  0.00  0.00     0.000 O
ATOM     43   O  SGN C   3      15.603  24.957  24.6190  0.00  0.00     0.000 O
ATOM     45  HD  SGN C   3      15.145  25.127  25.3340  0.00  0.00     0.000 HD
BRANCH 38 47
ATOM     45   N  SGN C   3      17.398  22.276  24.3180  0.00  0.00     0.000 N
ATOM     47  HD  SGN C   3      16.857  22.639  24.8870  0.00  0.00     0.000 HD
ATOM     47   S  SGN C   3      18.725  22.560  23.4900  0.00  0.00     0.000 S
ATOM     48   O  SGN C   3      18.613  23.752  22.7260  0.00  0.00     0.000 OA
ATOM     49   O  SGN C   3      19.807  22.494  24.4170  0.00  0.00     0.000 OA
ATOM     50   O  SGN C   3      18.743  21.433  22.5600  0.00  0.00     0.000 OA
ENDBRANCH 38 47
BRANCH 41 51
ATOM     51   C  SGN C   3      15.248  22.943  29.1230  0.00  0.00     0.000 C
ATOM     52   O  SGN C   3      14.984  24.407  32.5390  0.00  0.00     0.000 OA
ATOM     53   O  SGN C   3      13.311  23.326  31.2100  0.00  0.00     0.000 OA
ATOM     54   O  SGN C   3      15.226  22.103  31.9860  0.00  0.00     0.000 OA
ATOM     55   O  SGN C   3      15.408  23.813  30.2210  0.00  0.00     0.000 O
ATOM     56   S  SGN C   3      14.663  23.369  31.6200  0.00  0.00     0.000 S
ENDBRANCH 41 51
BRANCH 37 57
ATOM     57  O4  IDS C   4      18.739  23.552  27.2040  0.00  0.00     0.000 O
BRANCH 57 61
ATOM     58  C1  IDS C   4      21.871  24.614  29.0840  0.00  0.00     0.000 C
ATOM     59  C2  IDS C   4      21.740  24.983  27.6400  0.00  0.00     0.000 C
ATOM     60  C3  IDS C   4      21.129  23.862  26.7960  0.00  0.00     0.000 C
ATOM     61  C4  IDS C   4      20.052  23.017  27.4620  0.00  0.00     0.000 C
ATOM     62  C5  IDS C   4      20.309  22.898  28.9690  0.00  0.00     0.000 C
ATOM     63  O5  IDS C   4      20.613  24.157  29.5520  0.00  0.00     0.000 O
ATOM     64   O  IDS C   4      22.213  23.016  26.4590  0.00  0.00     0.000 O
ATOM     66  HD  IDS C   4      22.128  22.246  26.8450  0.00  0.00     0.000 HD
BRANCH 59 66
ATOM     66   O  IDS C   4      20.873  26.163  27.4580  0.00  0.00     0.000 O
ATOM     67   S  IDS C   4      21.585  27.498  26.9650  0.00  0.00     0.000 S
ATOM     68   O  IDS C   4      22.051  27.154  25.6440  0.00  0.00     0.000 OA
ATOM     69   O  IDS C   4      20.547  28.510  27.0030  0.00  0.00     0.000 OA
ATOM     70   O  IDS C   4      22.691  27.757  27.8740  0.00  0.00     0.000 OA
ENDBRANCH 59 66
BRANCH 62 71
ATOM     71   C  IDS C   4      19.111  22.371  29.7360  0.00  0.00     0.000 C
ATOM     72   O  IDS C   4      18.501  23.102  30.4920  0.00  0.00     0.000 OA
ATOM     73   O  IDS C   4      18.839  21.157  29.6510  0.00  0.00     0.000 OA
ENDBRANCH 62 71
BRANCH 58 74
ATOM     74  O4  SGN C   5      22.995  23.909  29.3970  0.00  0.00     0.000 O
BRANCH 74 78
ATOM     75  C1  SGN C   5      25.783  22.967  32.3610  0.00  0.00     0.000 C
ATOM     76  C2  SGN C   5      24.310  22.675  32.7020  0.00  0.00     0.000 C
ATOM     77  C3  SGN C   5      23.438  22.735  31.4400  0.00  0.00     0.000 C
ATOM     78  C4  SGN C   5      23.717  23.991  30.6260  0.00  0.00     0.000 C
ATOM     79  C5  SGN C   5      25.211  24.104  30.3620  0.00  0.00     0.000 C
ATOM     80  O5  SGN C   5      25.923  24.176  31.6260  0.00  0.00     0.000 O
ATOM     81   O  SGN C   5      22.068  22.681  31.8230  0.00  0.00     0.000 O
ATOM     83  HD  SGN C   5      21.800  22.190  32.4840  0.00  0.00     0.000 HD
BRANCH 76 85
ATOM     83   N  SGN C   5      23.801  21.520  33.4530  0.00  0.00     0.000 N
ATOM     85  HD  SGN C   5      23.582  21.121  34.1890  0.00  0.00     0.000 HD
ATOM     85   S  SGN C   5      24.313  20.903  34.8500  0.00  0.00     0.000 S
ATOM     86   O  SGN C   5      23.497  19.805  35.2360  0.00  0.00     0.000 OA
ATOM     87   O  SGN C   5      25.704  20.659  34.7160  0.00  0.00     0.000 OA
ATOM     88   O  SGN C   5      23.997  22.132  35.6990  0.00  0.00     0.000 OA
ENDBRANCH 76 85
BRANCH 79 89
ATOM     89   C  SGN C   5      25.588  25.315  29.5340  0.00  0.00     0.000 C
ATOM     90   O  SGN C   5      26.482  24.919  28.4650  0.00  0.00     0.000 O
ATOM     91   S  SGN C   5      26.393  25.762  27.1010  0.00  0.00     0.000 S
ATOM     92   O  SGN C   5      25.007  25.762  26.7130  0.00  0.00     0.000 OA
ATOM     93   O  SGN C   5      26.885  27.085  27.3890  0.00  0.00     0.000 OA
ATOM     94   O  SGN C   5      27.239  25.025  26.2020  0.00  0.00     0.000 OA
ENDBRANCH 79 89
BRANCH 75 95
ATOM     95  O4  BDP C   6      26.203  21.915  31.5960  0.00  0.00     0.000 O
BRANCH 95 99
ATOM     96  C1  BDP C   6      30.243  20.463  31.4460  0.00  0.00     0.000 C
ATOM     97  C2  BDP C   6      29.901  21.545  32.4320  0.00  0.00     0.000 C
ATOM     98  C3  BDP C   6      28.395  21.723  32.6800  0.00  0.00     0.000 C
ATOM     99  C4  BDP C   6      27.625  21.800  31.3700  0.00  0.00     0.000 C
ATOM    100  C5  BDP C   6      28.061  20.607  30.4880  0.00  0.00     0.000 C
ATOM    101  O5  BDP C   6      29.472  20.817  30.3130  0.00  0.00     0.000 O
BRANCH 100 102
ATOM    102   C  BDP C   6      27.416  20.625  29.1250  0.00  0.00     0.000 C
ATOM    103   O  BDP C   6      26.390  21.278  28.8870  0.00  0.00     0.000 OA
ATOM    104   O  BDP C   6      27.966  19.962  28.2380  0.00  0.00     0.000 OA
ENDBRANCH 100 102
ENDBRANCH 95 99
ENDBRANCH 75 95
ENDBRANCH 74 78
ENDBRANCH 58 74
ENDBRANCH 57 61
ENDBRANCH 37 57
ENDBRANCH 36 40
ENDBRANCH 23 36
ENDBRANCH 22 26
ENDBRANCH 1 22
TORSDOF 20
ENDMDL
MODEL 19
REMARK VINA RESULT:      -1.2     20.466     24.279
ROOT
ATOM      1  C1  NGY C   1       7.274  26.177  29.6090  0.00  0.00     0.000 C
ATOM      2  C2  NGY C   1       7.156  24.975  30.5360  0.00  0.00     0.000 C
ATOM      3  C3  NGY C   1       6.997  23.694  29.7230  0.00  0.00     0.000 C
ATOM      4  C4  NGY C   1       5.819  23.869  28.7840  0.00  0.00     0.000 C
ATOM      5  C5  NGY C   1       6.100  25.050  27.8600  0.00  0.00     0.000 C
ATOM      6  O5  NGY C   1       6.219  26.246  28.6730  0.00  0.00     0.000 O
ATOM      7   O  NGY C   1       6.817  22.598  30.6080  0.00  0.00     0.000 O
ATOM      9  HD  NGY C   1       6.424  22.449  31.3650  0.00  0.00     0.000 HD
ATOM      9   O  NGY C   1       5.598  22.693  28.0200  0.00  0.00     0.000 O
ATOM     11  HD  NGY C   1       5.204  22.543  28.7770  0.00  0.00     0.000 HD
ENDROOT
BRANCH 2 13
ATOM     11   N  NGY C   1       7.263  24.369  31.8420  0.00  0.00     0.000 N
ATOM     13  HD  NGY C   1       7.952  24.804  32.1360  0.00  0.00     0.000 HD
ATOM     13   C  NGY C   1       8.217  24.726  32.7010  0.00  0.00     0.000 C
ATOM     14   O  NGY C   1       9.130  25.481  32.3610  0.00  0.00     0.000 OA
ATOM     15   C  NGY C   1       8.104  24.186  34.0940  0.00  0.00     0.000 C
ENDBRANCH 2 13
BRANCH 5 16
ATOM     16   C  NGY C   1       5.026  25.346  26.8620  0.00  0.00     0.000 C
ATOM     17   O  NGY C   1       1.720  26.671  27.7420  0.00  0.00     0.000 OA
ATOM     18   O  NGY C   1       3.814  25.637  27.5640  0.00  0.00     0.000 O
ATOM     19   S  NGY C   1       2.714  26.395  26.7360  0.00  0.00     0.000 S
ATOM     20   O  NGY C   1       2.237  25.484  25.7290  0.00  0.00     0.000 OA
ATOM     21   O  NGY C   1       3.400  27.555  26.1920  0.00  0.00     0.000 OA
ENDBRANCH 5 16
BRANCH 1 22
ATOM     22  O4  BDP C   2       8.489  26.155  29.0210  0.00  0.00     0.000 O
BRANCH 22 26
ATOM     23  C1  BDP C   2      11.821  28.132  27.6240  0.00  0.00     0.000 C
ATOM     24  C2  BDP C   2      11.306  28.595  28.9660  0.00  0.00     0.000 C
ATOM     25  C3  BDP C   2      10.343  27.576  29.5170  0.00  0.00     0.000 C
ATOM     26  C4  BDP C   2       9.253  27.272  28.4950  0.00  0.00     0.000 C
ATOM     27  C5  BDP C   2       9.883  26.990  27.1370  0.00  0.00     0.000 C
ATOM     28  O5  BDP C   2      10.722  28.078  26.6710  0.00  0.00     0.000 O
ATOM     29   O  BDP C   2      12.335  28.654  29.9540  0.00  0.00     0.000 O
ATOM     31  HD  BDP C   2      12.110  28.439  30.7620  0.00  0.00     0.000 HD
ATOM     31   O  BDP C   2       9.769  28.141  30.6900  0.00  0.00     0.000 O
ATOM     33  HD  BDP C   2       9.544  27.926  31.4980  0.00  0.00     0.000 HD
BRANCH 27 33
ATOM     33   C  BDP C   2       8.851  26.776  26.0550  0.00  0.00     0.000 C
ATOM     34   O  BDP C   2       7.861  27.535  25.9200  0.00  0.00     0.000 OA
ATOM     35   O  BDP C   2       8.975  25.813  25.3170  0.00  0.00     0.000 OA
ENDBRANCH 27 33
BRANCH 23 36
ATOM     36  O4  SGN C   3      12.795  28.899  27.0820  0.00  0.00     0.000 O
BRANCH 36 40
ATOM     37  C1  SGN C   3      16.828  28.228  26.2370  0.00  0.00     0.000 C
ATOM     38  C2  SGN C   3      16.019  29.068  25.2360  0.00  0.00     0.000 C
ATOM     39  C3  SGN C   3      14.739  29.578  25.8810  0.00  0.00     0.000 C
ATOM     40  C4  SGN C   3      13.955  28.398  26.4110  0.00  0.00     0.000 C
ATOM     41  C5  SGN C   3      14.832  27.619  27.3670  0.00  0.00     0.000 C
ATOM     42  O5  SGN C   3      16.007  27.159  26.6810  0.00  0.00     0.000 O
ATOM     43   O  SGN C   3      13.983  30.300  24.9160  0.00  0.00     0.000 O
ATOM     45  HD  SGN C   3      13.454  29.962  25.5130  0.00  0.00     0.000 HD
BRANCH 38 47
ATOM     45   N  SGN C   3      16.819  28.688  24.0580  0.00  0.00     0.000 N
ATOM     47  HD  SGN C   3      16.132  28.538  24.5630  0.00  0.00     0.000 HD
ATOM     47   S  SGN C   3      17.845  29.827  23.6390  0.00  0.00     0.000 S
ATOM     48   O  SGN C   3      17.170  30.989  23.1790  0.00  0.00     0.000 OA
ATOM     49   O  SGN C   3      18.737  29.999  24.7400  0.00  0.00     0.000 OA
ATOM     50   O  SGN C   3      18.515  29.218  22.4930  0.00  0.00     0.000 OA
ENDBRANCH 38 47
BRANCH 41 51
ATOM     51   C  SGN C   3      14.164  26.414  27.9720  0.00  0.00     0.000 C
ATOM     52   O  SGN C   3      15.761  23.739  30.0140  0.00  0.00     0.000 OA
ATOM     53   O  SGN C   3      13.558  24.664  30.1680  0.00  0.00     0.000 OA
ATOM     54   O  SGN C   3      14.231  23.441  28.2140  0.00  0.00     0.000 OA
ATOM     55   O  SGN C   3      15.121  25.685  28.7080  0.00  0.00     0.000 O
ATOM     56   S  SGN C   3      14.620  24.247  29.3330  0.00  0.00     0.000 S
ENDBRANCH 41 51
BRANCH 37 57
ATOM     57  O4  IDS C   4      17.262  28.909  27.3260  0.00  0.00     0.000 O
BRANCH 57 61
ATOM     58  C1  IDS C   4      20.020  29.171  29.9330  0.00  0.00     0.000 C
ATOM     59  C2  IDS C   4      20.341  28.556  28.6080  0.00  0.00     0.000 C
ATOM     60  C3  IDS C   4      19.218  27.656  28.0860  0.00  0.00     0.000 C
ATOM     61  C4  IDS C   4      17.794  28.097  28.3900  0.00  0.00     0.000 C
ATOM     62  C5  IDS C   4      17.729  28.839  29.7310  0.00  0.00     0.000 C
ATOM     63  O5  IDS C   4      18.759  29.811  29.8440  0.00  0.00     0.000 O
ATOM     64   O  IDS C   4      19.435  26.398  28.6970  0.00  0.00     0.000 O
ATOM     66  HD  IDS C   4      18.797  26.217  29.2530  0.00  0.00     0.000 HD
BRANCH 59 66
ATOM     66   O  IDS C   4      20.567  29.584  27.5740  0.00  0.00     0.000 O
ATOM     67   S  IDS C   4      22.023  29.639  26.9330  0.00  0.00     0.000 S
ATOM     68   O  IDS C   4      22.128  28.373  26.2490  0.00  0.00     0.000 OA
ATOM     69   O  IDS C   4      22.006  30.802  26.0670  0.00  0.00     0.000 OA
ATOM     70   O  IDS C   4      22.972  29.737  28.0310  0.00  0.00     0.000 OA
ENDBRANCH 59 66
BRANCH 62 71
ATOM     71   C  IDS C   4      16.429  29.595  29.9300  0.00  0.00     0.000 C
ATOM     72   O  IDS C   4      16.399  30.803  29.7960  0.00  0.00     0.000 OA
ATOM     73   O  IDS C   4      15.432  28.964  30.3330  0.00  0.00     0.000 OA
ENDBRANCH 62 71
BRANCH 58 74
ATOM     74  O4  SGN C   5      20.293  28.384  31.0130  0.00  0.00     0.000 O
BRANCH 74 78
ATOM     75  C1  SGN C   5      21.731  28.519  34.9320  0.00  0.00     0.000 C
ATOM     76  C2  SGN C   5      20.252  28.121  34.7680  0.00  0.00     0.000 C
ATOM     77  C3  SGN C   5      19.942  27.776  33.3060  0.00  0.00     0.000 C
ATOM     78  C4  SGN C   5      20.474  28.839  32.3540  0.00  0.00     0.000 C
ATOM     79  C5  SGN C   5      21.948  29.085  32.6410  0.00  0.00     0.000 C
ATOM     80  O5  SGN C   5      22.106  29.536  34.0120  0.00  0.00     0.000 O
ATOM     81   O  SGN C   5      18.533  27.630  33.1550  0.00  0.00     0.000 O
ATOM     83  HD  SGN C   5      18.045  27.272  33.7730  0.00  0.00     0.000 HD
BRANCH 76 85
ATOM     83   N  SGN C   5      20.309  27.922  36.2220  0.00  0.00     0.000 N
ATOM     85  HD  SGN C   5      20.313  27.420  36.9280  0.00  0.00     0.000 HD
ATOM     85   S  SGN C   5      19.475  26.902  37.1480  0.00  0.00     0.000 S
ATOM     86   O  SGN C   5      19.885  27.014  38.5050  0.00  0.00     0.000 OA
ATOM     87   O  SGN C   5      18.100  27.113  36.8700  0.00  0.00     0.000 OA
ATOM     88   O  SGN C   5      20.026  25.622  36.5240  0.00  0.00     0.000 OA
ENDBRANCH 76 85
BRANCH 79 89
ATOM     89   C  SGN C   5      22.578  30.114  31.7250  0.00  0.00     0.000 C
ATOM     90   O  SGN C   5      22.731  31.370  32.4310  0.00  0.00     0.000 O
ATOM     91   S  SGN C   5      23.980  32.286  32.0090  0.00  0.00     0.000 S
ATOM     92   O  SGN C   5      25.145  31.445  32.0850  0.00  0.00     0.000 OA
ATOM     93   O  SGN C   5      23.726  32.756  30.6720  0.00  0.00     0.000 OA
ATOM     94   O  SGN C   5      23.966  33.335  32.9920  0.00  0.00     0.000 OA
ENDBRANCH 79 89
BRANCH 75 95
ATOM     95  O4  BDP C   6      22.451  27.385  34.6800  0.00  0.00     0.000 O
BRANCH 95 99
ATOM     96  C1  BDP C   6      26.176  25.974  36.2860  0.00  0.00     0.000 C
ATOM     97  C2  BDP C   6      25.190  26.624  37.2150  0.00  0.00     0.000 C
ATOM     98  C3  BDP C   6      23.768  26.743  36.6480  0.00  0.00     0.000 C
ATOM     99  C4  BDP C   6      23.781  27.321  35.2400  0.00  0.00     0.000 C
ATOM    100  C5  BDP C   6      24.813  26.525  34.4060  0.00  0.00     0.000 C
ATOM    101  O5  BDP C   6      26.049  26.743  35.1050  0.00  0.00     0.000 O
BRANCH 100 102
ATOM    102   C  BDP C   6      24.968  27.063  33.0070  0.00  0.00     0.000 C
ATOM    103   O  BDP C   6      25.721  28.012  32.7420  0.00  0.00     0.000 OA
ATOM    104   O  BDP C   6      24.316  26.505  32.1170  0.00  0.00     0.000 OA
ENDBRANCH 100 102
ENDBRANCH 95 99
ENDBRANCH 75 95
ENDBRANCH 74 78
ENDBRANCH 58 74
ENDBRANCH 57 61
ENDBRANCH 37 57
ENDBRANCH 36 40
ENDBRANCH 23 36
ENDBRANCH 22 26
ENDBRANCH 1 22
TORSDOF 20
ENDMDL
MODEL 20
REMARK VINA RESULT:      -0.8     25.973     29.371
ROOT
ATOM      1  C1  NGY C   1       7.058  26.535  29.2850  0.00  0.00     0.000 C
ATOM      2  C2  NGY C   1       7.317  25.444  30.3140  0.00  0.00     0.000 C
ATOM      3  C3  NGY C   1       7.454  24.090  29.6250  0.00  0.00     0.000 C
ATOM      4  C4  NGY C   1       6.217  23.860  28.7780  0.00  0.00     0.000 C
ATOM      5  C5  NGY C   1       6.120  24.974  27.7390  0.00  0.00     0.000 C
ATOM      6  O5  NGY C   1       5.968  26.236  28.4390  0.00  0.00     0.000 O
ATOM      7   O  NGY C   1       7.622  23.080  30.6090  0.00  0.00     0.000 O
ATOM      9  HD  NGY C   1       7.328  22.911  31.4060  0.00  0.00     0.000 HD
ATOM      9   O  NGY C   1       6.269  22.595  28.1340  0.00  0.00     0.000 O
ATOM     11  HD  NGY C   1       5.975  22.427  28.9310  0.00  0.00     0.000 HD
ENDROOT
BRANCH 2 13
ATOM     11   N  NGY C   1       8.074  26.226  31.2630  0.00  0.00     0.000 N
ATOM     13  HD  NGY C   1       8.217  25.613  31.8580  0.00  0.00     0.000 HD
ATOM     13   C  NGY C   1       8.534  25.695  32.3950  0.00  0.00     0.000 C
ATOM     14   O  NGY C   1       8.210  24.559  32.7440  0.00  0.00     0.000 OA
ATOM     15   C  NGY C   1       9.477  26.538  33.1980  0.00  0.00     0.000 C
ENDBRANCH 2 13
BRANCH 5 16
ATOM     16   C  NGY C   1       4.949  24.881  26.8150  0.00  0.00     0.000 C
ATOM     17   O  NGY C   1       1.454  24.874  27.9290  0.00  0.00     0.000 OA
ATOM     18   O  NGY C   1       3.764  24.687  27.5920  0.00  0.00     0.000 O
ATOM     19   S  NGY C   1       2.411  25.010  26.8610  0.00  0.00     0.000 S
ATOM     20   O  NGY C   1       2.234  24.015  25.8360  0.00  0.00     0.000 OA
ATOM     21   O  NGY C   1       2.588  26.356  26.3400  0.00  0.00     0.000 OA
ENDBRANCH 5 16
BRANCH 1 22
ATOM     22  O4  BDP C   2       8.198  26.767  28.6010  0.00  0.00     0.000 O
BRANCH 22 26
ATOM     23  C1  BDP C   2      10.544  29.408  26.4830  0.00  0.00     0.000 C
ATOM     24  C2  BDP C   2       9.682  30.024  27.5590  0.00  0.00     0.000 C
ATOM     25  C3  BDP C   2       9.172  28.945  28.4780  0.00  0.00     0.000 C
ATOM     26  C4  BDP C   2       8.486  27.846  27.6730  0.00  0.00     0.000 C
ATOM     27  C5  BDP C   2       9.376  27.425  26.5100  0.00  0.00     0.000 C
ATOM     28  O5  BDP C   2       9.733  28.535  25.6470  0.00  0.00     0.000 O
ATOM     29   O  BDP C   2      10.424  30.881  28.4270  0.00  0.00     0.000 O
ATOM     31  HD  BDP C   2      10.191  30.885  29.2610  0.00  0.00     0.000 HD
ATOM     31   O  BDP C   2       8.240  29.558  29.3600  0.00  0.00     0.000 O
ATOM     33  HD  BDP C   2       8.007  29.562  30.1940  0.00  0.00     0.000 HD
BRANCH 27 33
ATOM     33   C  BDP C   2       8.712  26.407  25.6150  0.00  0.00     0.000 C
ATOM     34   O  BDP C   2       9.270  25.325  25.3080  0.00  0.00     0.000 OA
ATOM     35   O  BDP C   2       7.614  26.669  25.1520  0.00  0.00     0.000 OA
ENDBRANCH 27 33
BRANCH 23 36
ATOM     36  O4  SGN C   3      11.171  30.288  25.6680  0.00  0.00     0.000 O
BRANCH 36 40
ATOM     37  C1  SGN C   3      14.017  30.744  22.6480  0.00  0.00     0.000 C
ATOM     38  C2  SGN C   3      12.598  30.324  22.2340  0.00  0.00     0.000 C
ATOM     39  C3  SGN C   3      11.607  30.625  23.3490  0.00  0.00     0.000 C
ATOM     40  C4  SGN C   3      12.069  29.932  24.6130  0.00  0.00     0.000 C
ATOM     41  C5  SGN C   3      13.476  30.386  24.9310  0.00  0.00     0.000 C
ATOM     42  O5  SGN C   3      14.351  30.053  23.8420  0.00  0.00     0.000 O
ATOM     43   O  SGN C   3      10.315  30.172  22.9630  0.00  0.00     0.000 O
ATOM     45  HD  SGN C   3      10.385  30.162  23.8260  0.00  0.00     0.000 HD
BRANCH 38 47
ATOM     45   N  SGN C   3      12.894  29.534  21.0250  0.00  0.00     0.000 N
ATOM     47  HD  SGN C   3      12.707  29.548  21.8710  0.00  0.00     0.000 HD
ATOM     47   S  SGN C   3      12.778  30.404  19.7000  0.00  0.00     0.000 S
ATOM     48   O  SGN C   3      11.440  30.817  19.4670  0.00  0.00     0.000 OA
ATOM     49   O  SGN C   3      13.758  31.436  19.8020  0.00  0.00     0.000 OA
ATOM     50   O  SGN C   3      13.129  29.427  18.6710  0.00  0.00     0.000 OA
ENDBRANCH 38 47
BRANCH 41 51
ATOM     51   C  SGN C   3      14.055  29.770  26.1760  0.00  0.00     0.000 C
ATOM     52   O  SGN C   3      13.380  30.761  29.7040  0.00  0.00     0.000 OA
ATOM     53   O  SGN C   3      13.824  28.594  28.7870  0.00  0.00     0.000 OA
ATOM     54   O  SGN C   3      15.505  30.308  28.7270  0.00  0.00     0.000 OA
ATOM     55   O  SGN C   3      13.497  30.411  27.3020  0.00  0.00     0.000 O
ATOM     56   S  SGN C   3      14.111  29.978  28.7670  0.00  0.00     0.000 S
ENDBRANCH 41 51
BRANCH 37 57
ATOM     57  O4  IDS C   4      14.171  32.073  22.8700  0.00  0.00     0.000 O
BRANCH 57 61
ATOM     58  C1  IDS C   4      16.886  34.726  22.6250  0.00  0.00     0.000 C
ATOM     59  C2  IDS C   4      17.095  33.418  21.9290  0.00  0.00     0.000 C
ATOM     60  C3  IDS C   4      16.608  32.224  22.7550  0.00  0.00     0.000 C
ATOM     61  C4  IDS C   4      15.359  32.443  23.5970  0.00  0.00     0.000 C
ATOM     62  C5  IDS C   4      15.276  33.896  24.0790  0.00  0.00     0.000 C
ATOM     63  O5  IDS C   4      15.530  34.815  23.0280  0.00  0.00     0.000 O
ATOM     64   O  IDS C   4      17.681  31.909  23.6220  0.00  0.00     0.000 O
ATOM     66  HD  IDS C   4      17.464  32.072  24.4450  0.00  0.00     0.000 HD
BRANCH 59 66
ATOM     66   O  IDS C   4      16.368  33.364  20.6470  0.00  0.00     0.000 O
ATOM     67   S  IDS C   4      17.234  33.037  19.3520  0.00  0.00     0.000 S
ATOM     68   O  IDS C   4      17.691  31.689  19.5950  0.00  0.00     0.000 OA
ATOM     69   O  IDS C   4      16.313  33.179  18.2420  0.00  0.00     0.000 OA
ATOM     70   O  IDS C   4      18.340  33.981  19.3240  0.00  0.00     0.000 OA
ENDBRANCH 59 66
BRANCH 62 71
ATOM     71   C  IDS C   4      13.909  34.264  24.6230  0.00  0.00     0.000 C
ATOM     72   O  IDS C   4      13.212  35.066  24.0310  0.00  0.00     0.000 OA
ATOM     73   O  IDS C   4      13.569  33.808  25.7330  0.00  0.00     0.000 OA
ENDBRANCH 62 71
BRANCH 58 74
ATOM     74  O4  SGN C   5      17.867  35.071  23.5080  0.00  0.00     0.000 O
BRANCH 74 78
ATOM     75  C1  SGN C   5      19.427  38.128  25.8870  0.00  0.00     0.000 C
ATOM     76  C2  SGN C   5      18.449  37.162  26.5830  0.00  0.00     0.000 C
ATOM     77  C3  SGN C   5      18.220  35.911  25.7250  0.00  0.00     0.000 C
ATOM     78  C4  SGN C   5      17.913  36.271  24.2780  0.00  0.00     0.000 C
ATOM     79  C5  SGN C   5      18.990  37.206  23.7490  0.00  0.00     0.000 C
ATOM     80  O5  SGN C   5      19.024  38.414  24.5540  0.00  0.00     0.000 O
ATOM     81   O  SGN C   5      17.154  35.154  26.2890  0.00  0.00     0.000 O
ATOM     83  HD  SGN C   5      17.046  35.089  27.1460  0.00  0.00     0.000 HD
BRANCH 76 85
ATOM     83   N  SGN C   5      19.085  37.762  27.7630  0.00  0.00     0.000 N
ATOM     85  HD  SGN C   5      19.430  37.714  28.5560  0.00  0.00     0.000 HD
ATOM     85   S  SGN C   5      18.826  37.467  29.3250  0.00  0.00     0.000 S
ATOM     86   O  SGN C   5      19.701  38.247  30.1300  0.00  0.00     0.000 OA
ATOM     87   O  SGN C   5      17.434  37.613  29.5550  0.00  0.00     0.000 OA
ATOM     88   O  SGN C   5      19.281  36.009  29.2950  0.00  0.00     0.000 OA
ENDBRANCH 76 85
BRANCH 79 89
ATOM     89   C  SGN C   5      18.785  37.605  22.3010  0.00  0.00     0.000 C
ATOM     90   O  SGN C   5      17.399  37.963  22.0830  0.00  0.00     0.000 O
ATOM     91   S  SGN C   5      17.109  39.083  20.9710  0.00  0.00     0.000 S
ATOM     92   O  SGN C   5      17.941  40.210  21.3020  0.00  0.00     0.000 OA
ATOM     93   O  SGN C   5      17.445  38.507  19.6930  0.00  0.00     0.000 OA
ATOM     94   O  SGN C   5      15.704  39.345  21.1230  0.00  0.00     0.000 OA
ENDBRANCH 79 89
BRANCH 75 95
ATOM     95  O4  BDP C   6      20.635  37.489  25.8740  0.00  0.00     0.000 O
BRANCH 95 99
ATOM     96  C1  BDP C   6      24.689  38.877  26.1520  0.00  0.00     0.000 C
ATOM     97  C2  BDP C   6      23.739  39.197  27.2710  0.00  0.00     0.000 C
ATOM     98  C3  BDP C   6      22.455  38.355  27.2720  0.00  0.00     0.000 C
ATOM     99  C4  BDP C   6      21.814  38.322  25.8920  0.00  0.00     0.000 C
ATOM    100  C5  BDP C   6      22.908  37.946  24.8660  0.00  0.00     0.000 C
ATOM    101  O5  BDP C   6      23.874  39.001  25.0020  0.00  0.00     0.000 O
BRANCH 100 102
ATOM    102   C  BDP C   6      22.402  37.960  23.4460  0.00  0.00     0.000 C
ATOM    103   O  BDP C   6      22.390  36.943  22.7370  0.00  0.00     0.000 OA
ATOM    104   O  BDP C   6      21.982  39.039  23.0120  0.00  0.00     0.000 OA
ENDBRANCH 100 102
ENDBRANCH 95 99
ENDBRANCH 75 95
ENDBRANCH 74 78
ENDBRANCH 58 74
ENDBRANCH 57 61
ENDBRANCH 37 57
ENDBRANCH 36 40
ENDBRANCH 23 36
ENDBRANCH 22 26
ENDBRANCH 1 22
TORSDOF 20
ENDMDL
MODEL 21
REMARK VINA RESULT:      -0.5     18.777     21.492
ROOT
ATOM      1  C1  NGY C   1      23.785  34.045  48.1310  0.00  0.00     0.000 C
ATOM      2  C2  NGY C   1      23.127  35.261  48.7670  0.00  0.00     0.000 C
ATOM      3  C3  NGY C   1      24.186  36.181  49.3670  0.00  0.00     0.000 C
ATOM      4  C4  NGY C   1      25.036  35.367  50.3240  0.00  0.00     0.000 C
ATOM      5  C5  NGY C   1      25.700  34.234  49.5460  0.00  0.00     0.000 C
ATOM      6  O5  NGY C   1      24.658  33.375  49.0150  0.00  0.00     0.000 O
ATOM      7   O  NGY C   1      23.544  37.269  50.0170  0.00  0.00     0.000 O
ATOM      9  HD  NGY C   1      22.826  37.400  50.4820  0.00  0.00     0.000 HD
ATOM      9   O  NGY C   1      26.023  36.179  50.9440  0.00  0.00     0.000 O
ATOM     11  HD  NGY C   1      25.304  36.309  51.4090  0.00  0.00     0.000 HD
ENDROOT
BRANCH 2 13
ATOM     11   N  NGY C   1      22.343  36.435  48.4660  0.00  0.00     0.000 N
ATOM     13  HD  NGY C   1      21.611  36.047  48.2140  0.00  0.00     0.000 HD
ATOM     13   C  NGY C   1      21.090  36.343  48.0210  0.00  0.00     0.000 C
ATOM     14   O  NGY C   1      20.603  35.254  47.7130  0.00  0.00     0.000 OA
ATOM     15   C  NGY C   1      20.308  37.618  47.9430  0.00  0.00     0.000 C
ENDBRANCH 2 13
BRANCH 5 16
ATOM     16   C  NGY C   1      26.586  33.342  50.3560  0.00  0.00     0.000 C
ATOM     17   O  NGY C   1      25.352  30.899  52.7990  0.00  0.00     0.000 OA
ATOM     18   O  NGY C   1      25.793  32.684  51.3480  0.00  0.00     0.000 O
ATOM     19   S  NGY C   1      26.432  31.399  51.9870  0.00  0.00     0.000 S
ATOM     20   O  NGY C   1      27.556  31.832  52.7760  0.00  0.00     0.000 OA
ATOM     21   O  NGY C   1      26.804  30.571  50.8520  0.00  0.00     0.000 OA
ENDBRANCH 5 16
BRANCH 1 22
ATOM     22  O4  BDP C   2      24.396  34.428  46.9900  0.00  0.00     0.000 O
BRANCH 22 26
ATOM     23  C1  BDP C   2      25.822  33.628  43.2090  0.00  0.00     0.000 C
ATOM     24  C2  BDP C   2      24.353  33.350  43.4220  0.00  0.00     0.000 C
ATOM     25  C3  BDP C   2      23.891  34.014  44.6920  0.00  0.00     0.000 C
ATOM     26  C4  BDP C   2      24.785  33.605  45.8580  0.00  0.00     0.000 C
ATOM     27  C5  BDP C   2      26.249  33.764  45.4670  0.00  0.00     0.000 C
ATOM     28  O5  BDP C   2      26.596  33.011  44.2760  0.00  0.00     0.000 O
ATOM     29   O  BDP C   2      23.535  33.944  42.4140  0.00  0.00     0.000 O
ATOM     31  HD  BDP C   2      22.765  34.248  42.6690  0.00  0.00     0.000 HD
ATOM     31   O  BDP C   2      22.557  33.581  44.9240  0.00  0.00     0.000 O
ATOM     33  HD  BDP C   2      21.787  33.884  45.1790  0.00  0.00     0.000 HD
BRANCH 27 33
ATOM     33   C  BDP C   2      27.190  33.282  46.5450  0.00  0.00     0.000 C
ATOM     34   O  BDP C   2      28.125  33.996  46.9800  0.00  0.00     0.000 OA
ATOM     35   O  BDP C   2      27.048  32.149  46.9750  0.00  0.00     0.000 OA
ENDBRANCH 27 33
BRANCH 23 36
ATOM     36  O4  SGN C   3      26.330  33.194  42.0320  0.00  0.00     0.000 O
BRANCH 36 40
ATOM     37  C1  SGN C   3      29.063  33.936  38.9650  0.00  0.00     0.000 C
ATOM     38  C2  SGN C   3      29.625  33.615  40.3600  0.00  0.00     0.000 C
ATOM     39  C3  SGN C   3      28.559  32.955  41.2240  0.00  0.00     0.000 C
ATOM     40  C4  SGN C   3      27.348  33.861  41.2830  0.00  0.00     0.000 C
ATOM     41  C5  SGN C   3      26.880  34.142  39.8720  0.00  0.00     0.000 C
ATOM     42  O5  SGN C   3      27.932  34.776  39.1290  0.00  0.00     0.000 O
ATOM     43   O  SGN C   3      29.087  32.725  42.5240  0.00  0.00     0.000 O
ATOM     45  HD  SGN C   3      28.227  32.821  42.5670  0.00  0.00     0.000 HD
BRANCH 38 47
ATOM     45   N  SGN C   3      30.962  34.054  40.7960  0.00  0.00     0.000 N
ATOM     47  HD  SGN C   3      30.119  33.971  40.9720  0.00  0.00     0.000 HD
ATOM     47   S  SGN C   3      32.114  33.469  39.8690  0.00  0.00     0.000 S
ATOM     48   O  SGN C   3      32.209  32.057  39.9890  0.00  0.00     0.000 OA
ATOM     49   O  SGN C   3      31.887  33.987  38.5600  0.00  0.00     0.000 OA
ATOM     50   O  SGN C   3      33.309  34.050  40.4780  0.00  0.00     0.000 OA
ENDBRANCH 38 47
BRANCH 41 51
ATOM     51   C  SGN C   3      25.671  35.033  39.7910  0.00  0.00     0.000 C
ATOM     52   O  SGN C   3      25.182  38.328  41.4610  0.00  0.00     0.000 OA
ATOM     53   O  SGN C   3      24.390  37.565  39.3340  0.00  0.00     0.000 OA
ATOM     54   O  SGN C   3      23.623  36.531  41.3610  0.00  0.00     0.000 OA
ATOM     55   O  SGN C   3      25.920  36.207  40.5320  0.00  0.00     0.000 O
ATOM     56   S  SGN C   3      24.659  37.254  40.6860  0.00  0.00     0.000 S
ENDBRANCH 41 51
BRANCH 37 57
ATOM     57  O4  IDS C   4      28.686  32.851  38.2450  0.00  0.00     0.000 O
BRANCH 57 61
ATOM     58  C1  IDS C   4      29.315  30.635  35.2180  0.00  0.00     0.000 C
ATOM     59  C2  IDS C   4      30.480  31.312  35.8670  0.00  0.00     0.000 C
ATOM     60  C3  IDS C   4      30.165  32.745  36.3010  0.00  0.00     0.000 C
ATOM     61  C4  IDS C   4      28.755  33.007  36.8140  0.00  0.00     0.000 C
ATOM     62  C5  IDS C   4      27.744  32.093  36.1140  0.00  0.00     0.000 C
ATOM     63  O5  IDS C   4      28.191  30.745  36.0740  0.00  0.00     0.000 O
ATOM     64   O  IDS C   4      30.373  33.539  35.1480  0.00  0.00     0.000 O
ATOM     66  HD  IDS C   4      29.624  33.870  34.8680  0.00  0.00     0.000 HD
BRANCH 59 66
ATOM     66   O  IDS C   4      30.919  30.595  37.0790  0.00  0.00     0.000 O
ATOM     67   S  IDS C   4      32.372  29.949  37.0360  0.00  0.00     0.000 S
ATOM     68   O  IDS C   4      33.240  31.097  36.9320  0.00  0.00     0.000 OA
ATOM     69   O  IDS C   4      32.488  29.206  38.2760  0.00  0.00     0.000 OA
ATOM     70   O  IDS C   4      32.438  29.117  35.8440  0.00  0.00     0.000 OA
ENDBRANCH 59 66
BRANCH 62 71
ATOM     71   C  IDS C   4      26.395  32.056  36.8080  0.00  0.00     0.000 C
ATOM     72   O  IDS C   4      25.653  33.017  36.7500  0.00  0.00     0.000 OA
ATOM     73   O  IDS C   4      26.119  31.067  37.5160  0.00  0.00     0.000 OA
ENDBRANCH 62 71
BRANCH 58 74
ATOM     74  O4  SGN C   5      29.168  30.893  33.8870  0.00  0.00     0.000 O
BRANCH 74 78
ATOM     75  C1  SGN C   5      28.474  29.209  30.1290  0.00  0.00     0.000 C
ATOM     76  C2  SGN C   5      27.240  29.786  30.8490  0.00  0.00     0.000 C
ATOM     77  C3  SGN C   5      27.665  30.664  32.0330  0.00  0.00     0.000 C
ATOM     78  C4  SGN C   5      28.703  29.969  32.9030  0.00  0.00     0.000 C
ATOM     79  C5  SGN C   5      29.855  29.489  32.0340  0.00  0.00     0.000 C
ATOM     80  O5  SGN C   5      29.355  28.559  31.0360  0.00  0.00     0.000 O
ATOM     81   O  SGN C   5      26.511  30.996  32.7990  0.00  0.00     0.000 O
ATOM     83  HD  SGN C   5      25.747  31.154  32.4240  0.00  0.00     0.000 HD
BRANCH 76 85
ATOM     83   N  SGN C   5      26.601  30.504  29.7390  0.00  0.00     0.000 N
ATOM     85  HD  SGN C   5      25.906  30.804  29.3200  0.00  0.00     0.000 HD
ATOM     85   S  SGN C   5      25.266  30.135  28.9170  0.00  0.00     0.000 S
ATOM     86   O  SGN C   5      24.986  31.139  27.9500  0.00  0.00     0.000 OA
ATOM     87   O  SGN C   5      25.420  28.807  28.4420  0.00  0.00     0.000 OA
ATOM     88   O  SGN C   5      24.307  30.245  30.0990  0.00  0.00     0.000 OA
ENDBRANCH 76 85
BRANCH 79 89
ATOM     89   C  SGN C   5      30.956  28.802  32.8150  0.00  0.00     0.000 C
ATOM     90   O  SGN C   5      31.848  28.114  31.9040  0.00  0.00     0.000 O
ATOM     91   S  SGN C   5      33.387  28.004  32.3480  0.00  0.00     0.000 S
ATOM     92   O  SGN C   5      33.816  29.342  32.6630  0.00  0.00     0.000 OA
ATOM     93   O  SGN C   5      33.437  27.127  33.4890  0.00  0.00     0.000 OA
ATOM     94   O  SGN C   5      34.028  27.457  31.1830  0.00  0.00     0.000 OA
ENDBRANCH 79 89
BRANCH 75 95
ATOM     95  O4  BDP C   6      29.106  30.278  29.5600  0.00  0.00     0.000 O
BRANCH 95 99
ATOM     96  C1  BDP C   6      31.326  30.427  25.8870  0.00  0.00     0.000 C
ATOM     97  C2  BDP C   6      30.307  29.338  26.0700  0.00  0.00     0.000 C
ATOM     98  C3  BDP C   6      29.315  29.585  27.2170  0.00  0.00     0.000 C
ATOM     99  C4  BDP C   6      30.036  29.993  28.4930  0.00  0.00     0.000 C
ATOM    100  C5  BDP C   6      31.016  31.137  28.1440  0.00  0.00     0.000 C
ATOM    101  O5  BDP C   6      31.897  30.543  27.1770  0.00  0.00     0.000 O
BRANCH 100 102
ATOM    102   C  BDP C   6      31.847  31.572  29.3240  0.00  0.00     0.000 C
ATOM    103   O  BDP C   6      31.880  32.748  29.7140  0.00  0.00     0.000 OA
ATOM    104   O  BDP C   6      32.495  30.693  29.9050  0.00  0.00     0.000 OA
ENDBRANCH 100 102
ENDBRANCH 95 99
ENDBRANCH 75 95
ENDBRANCH 74 78
ENDBRANCH 58 74
ENDBRANCH 57 61
ENDBRANCH 37 57
ENDBRANCH 36 40
ENDBRANCH 23 36
ENDBRANCH 22 26
ENDBRANCH 1 22
TORSDOF 20
ENDMDL
MODEL 22
REMARK VINA RESULT:      -0.5     83.508     93.731
ROOT
ATOM      1  C1  NGY C   1      54.340  74.656  92.5470  0.00  0.00     0.000 C
ATOM      2  C2  NGY C   1      55.637  75.335  92.1280  0.00  0.00     0.000 C
ATOM      3  C3  NGY C   1      55.394  76.242  90.9250  0.00  0.00     0.000 C
ATOM      4  C4  NGY C   1      54.746  75.417  89.8300  0.00  0.00     0.000 C
ATOM      5  C5  NGY C   1      53.422  74.864  90.3510  0.00  0.00     0.000 C
ATOM      6  O5  NGY C   1      53.704  73.992  91.4750  0.00  0.00     0.000 O
ATOM      7   O  NGY C   1      56.629  76.806  90.5090  0.00  0.00     0.000 O
ATOM      9  HD  NGY C   1      57.457  76.558  90.4550  0.00  0.00     0.000 HD
ATOM      9   O  NGY C   1      54.524  76.201  88.6670  0.00  0.00     0.000 O
ATOM     11  HD  NGY C   1      55.352  75.952  88.6130  0.00  0.00     0.000 HD
ENDROOT
BRANCH 2 13
ATOM     11   N  NGY C   1      56.143  75.847  93.3790  0.00  0.00     0.000 N
ATOM     13  HD  NGY C   1      56.990  75.820  93.2020  0.00  0.00     0.000 HD
ATOM     13   C  NGY C   1      57.449  75.993  93.5960  0.00  0.00     0.000 C
ATOM     14   O  NGY C   1      58.280  75.564  92.7940  0.00  0.00     0.000 OA
ATOM     15   C  NGY C   1      57.847  76.724  94.8420  0.00  0.00     0.000 C
ENDBRANCH 2 13
BRANCH 5 16
ATOM     16   C  NGY C   1      52.654  74.031  89.3760  0.00  0.00     0.000 C
ATOM     17   O  NGY C   1      51.097  70.815  90.2080  0.00  0.00     0.000 OA
ATOM     18   O  NGY C   1      52.380  72.760  89.9720  0.00  0.00     0.000 O
ATOM     19   S  NGY C   1      51.226  71.929  89.3040  0.00  0.00     0.000 S
ATOM     20   O  NGY C   1      51.690  71.528  88.0020  0.00  0.00     0.000 OA
ATOM     21   O  NGY C   1      50.095  72.842  89.2620  0.00  0.00     0.000 OA
ENDBRANCH 5 16
BRANCH 1 22
ATOM     22  O4  BDP C   2      53.542  75.570  93.1370  0.00  0.00     0.000 O
BRANCH 22 26
ATOM     23  C1  BDP C   2      50.613  76.616  95.8380  0.00  0.00     0.000 C
ATOM     24  C2  BDP C   2      51.883  76.061  96.4390  0.00  0.00     0.000 C
ATOM     25  C3  BDP C   2      52.977  76.068  95.4040  0.00  0.00     0.000 C
ATOM     26  C4  BDP C   2      52.514  75.353  94.1390  0.00  0.00     0.000 C
ATOM     27  C5  BDP C   2      51.143  75.873  93.7250  0.00  0.00     0.000 C
ATOM     28  O5  BDP C   2      50.151  75.736  94.7750  0.00  0.00     0.000 O
ATOM     29   O  BDP C   2      52.399  76.889  97.4810  0.00  0.00     0.000 O
ATOM     31  HD  BDP C   2      53.262  76.943  97.5410  0.00  0.00     0.000 HD
ATOM     31   O  BDP C   2      54.088  75.386  95.9720  0.00  0.00     0.000 O
ATOM     33  HD  BDP C   2      54.951  75.440  96.0320  0.00  0.00     0.000 HD
BRANCH 27 33
ATOM     33   C  BDP C   2      50.582  75.135  92.5330  0.00  0.00     0.000 C
ATOM     34   O  BDP C   2      50.093  75.737  91.5470  0.00  0.00     0.000 OA
ATOM     35   O  BDP C   2      50.579  73.915  92.5540  0.00  0.00     0.000 OA
ENDBRANCH 27 33
BRANCH 23 36
ATOM     36  O4  SGN C   3      49.588  76.784  96.7050  0.00  0.00     0.000 O
BRANCH 36 40
ATOM     37  C1  SGN C   3      46.256  79.104  97.6760  0.00  0.00     0.000 C
ATOM     38  C2  SGN C   3      46.083  78.023  96.5960  0.00  0.00     0.000 C
ATOM     39  C3  SGN C   3      47.215  77.009  96.6730  0.00  0.00     0.000 C
ATOM     40  C4  SGN C   3      48.535  77.740  96.5530  0.00  0.00     0.000 C
ATOM     41  C5  SGN C   3      48.608  78.794  97.6350  0.00  0.00     0.000 C
ATOM     42  O5  SGN C   3      47.520  79.719  97.4850  0.00  0.00     0.000 O
ATOM     43   O  SGN C   3      47.062  76.057  95.6280  0.00  0.00     0.000 O
ATOM     45  HD  SGN C   3      47.899  76.129  95.8420  0.00  0.00     0.000 HD
BRANCH 38 47
ATOM     45   N  SGN C   3      44.949  78.926  96.3300  0.00  0.00     0.000 N
ATOM     47  HD  SGN C   3      45.806  78.807  96.3650  0.00  0.00     0.000 HD
ATOM     47   S  SGN C   3      43.578  78.134  96.1820  0.00  0.00     0.000 S
ATOM     48   O  SGN C   3      43.579  77.307  95.0280  0.00  0.00     0.000 OA
ATOM     49   O  SGN C   3      43.342  77.490  97.4330  0.00  0.00     0.000 OA
ATOM     50   O  SGN C   3      42.630  79.223  95.9500  0.00  0.00     0.000 OA
ENDBRANCH 38 47
BRANCH 41 51
ATOM     51   C  SGN C   3      49.883  79.595  97.6290  0.00  0.00     0.000 C
ATOM     52   O  SGN C   3      52.550  79.607 100.2290  0.00  0.00     0.000 OA
ATOM     53   O  SGN C   3      52.735  79.856  97.8550  0.00  0.00     0.000 OA
ATOM     54   O  SGN C   3      51.582  81.505  99.1650  0.00  0.00     0.000 OA
ATOM     55   O  SGN C   3      50.633  79.265  98.7760  0.00  0.00     0.000 O
ATOM     56   S  SGN C   3      52.002  80.142  99.0290  0.00  0.00     0.000 S
ENDBRANCH 41 51
BRANCH 37 57
ATOM     57  O4  IDS C   4      46.195  78.645  98.9500  0.00  0.00     0.000 O
BRANCH 57 61
ATOM     58  C1  IDS C   4      44.686  78.398 102.4330  0.00  0.00     0.000 C
ATOM     59  C2  IDS C   4      43.797  78.186 101.2490  0.00  0.00     0.000 C
ATOM     60  C3  IDS C   4      44.100  79.153 100.1020  0.00  0.00     0.000 C
ATOM     61  C4  IDS C   4      45.561  79.528  99.8950  0.00  0.00     0.000 C
ATOM     62  C5  IDS C   4      46.314  79.536 101.2300  0.00  0.00     0.000 C
ATOM     63  O5  IDS C   4      46.035  78.376 101.9990  0.00  0.00     0.000 O
ATOM     64   O  IDS C   4      43.376  80.331 100.4070  0.00  0.00     0.000 O
ATOM     66  HD  IDS C   4      43.918  80.982 100.5850  0.00  0.00     0.000 HD
BRANCH 59 66
ATOM     66   O  IDS C   4      43.943  76.825 100.6970  0.00  0.00     0.000 O
ATOM     67   S  IDS C   4      42.722  75.831 100.9270  0.00  0.00     0.000 S
ATOM     68   O  IDS C   4      41.654  76.442 100.1730  0.00  0.00     0.000 OA
ATOM     69   O  IDS C   4      43.179  74.554 100.4160  0.00  0.00     0.000 OA
ATOM     70   O  IDS C   4      42.435  75.824 102.3540  0.00  0.00     0.000 OA
ENDBRANCH 59 66
BRANCH 62 71
ATOM     71   C  IDS C   4      47.821  79.563 101.0620  0.00  0.00     0.000 C
ATOM     72   O  IDS C   4      48.484  78.585 101.3500  0.00  0.00     0.000 OA
ATOM     73   O  IDS C   4      48.363  80.635 100.7260  0.00  0.00     0.000 OA
ENDBRANCH 62 71
BRANCH 58 74
ATOM     74  O4  SGN C   5      44.277  79.376 103.2910  0.00  0.00     0.000 O
BRANCH 74 78
ATOM     75  C1  SGN C   5      43.785  80.532 107.2740  0.00  0.00     0.000 C
ATOM     76  C2  SGN C   5      45.230  80.544 106.7400  0.00  0.00     0.000 C
ATOM     77  C3  SGN C   5      45.244  80.440 105.2100  0.00  0.00     0.000 C
ATOM     78  C4  SGN C   5      44.342  79.318 104.7160  0.00  0.00     0.000 C
ATOM     79  C5  SGN C   5      42.955  79.478 105.3210  0.00  0.00     0.000 C
ATOM     80  O5  SGN C   5      43.049  79.425 106.7690  0.00  0.00     0.000 O
ATOM     81   O  SGN C   5      46.583  80.234 104.7730  0.00  0.00     0.000 O
ATOM     83  HD  SGN C   5      47.253  80.618 105.1640  0.00  0.00     0.000 HD
BRANCH 76 85
ATOM     83   N  SGN C   5      45.447  81.260 108.0040  0.00  0.00     0.000 N
ATOM     85  HD  SGN C   5      45.730  81.938 108.4620  0.00  0.00     0.000 HD
ATOM     85   S  SGN C   5      46.723  82.115 108.4890  0.00  0.00     0.000 S
ATOM     86   O  SGN C   5      46.486  82.677 109.7730  0.00  0.00     0.000 OA
ATOM     87   O  SGN C   5      47.863  81.281 108.3490  0.00  0.00     0.000 OA
ATOM     88   O  SGN C   5      46.626  83.187 107.4060  0.00  0.00     0.000 OA
ENDBRANCH 76 85
BRANCH 79 89
ATOM     89   C  SGN C   5      41.972  78.417 104.8690  0.00  0.00     0.000 C
ATOM     90   O  SGN C   5      41.682  77.518 105.9670  0.00  0.00     0.000 O
ATOM     91   S  SGN C   5      40.214  76.869 105.9990  0.00  0.00     0.000 S
ATOM     92   O  SGN C   5      39.284  77.963 105.8980  0.00  0.00     0.000 OA
ATOM     93   O  SGN C   5      40.126  75.966 104.8800  0.00  0.00     0.000 OA
ATOM     94   O  SGN C   5      40.176  76.200 107.2710  0.00  0.00     0.000 OA
ENDBRANCH 79 89
BRANCH 75 95
ATOM     95  O4  BDP C   6      43.218  81.697 106.8400  0.00  0.00     0.000 O
BRANCH 95 99
ATOM     96  C1  BDP C   6      40.109  84.082 108.5990  0.00  0.00     0.000 C
ATOM     97  C2  BDP C   6      41.030  83.315 109.5050  0.00  0.00     0.000 C
ATOM     98  C3  BDP C   6      42.315  82.815 108.8280  0.00  0.00     0.000 C
ATOM     99  C4  BDP C   6      42.010  82.122 107.5080  0.00  0.00     0.000 C
ATOM    100  C5  BDP C   6      41.088  83.049 106.6830  0.00  0.00     0.000 C
ATOM    101  O5  BDP C   6      39.925  83.193 107.5130  0.00  0.00     0.000 O
BRANCH 100 102
ATOM    102   C  BDP C   6      40.654  82.428 105.3790  0.00  0.00     0.000 C
ATOM    103   O  BDP C   6      39.857  81.480 105.3310  0.00  0.00     0.000 OA
ATOM    104   O  BDP C   6      41.123  82.916 104.3440  0.00  0.00     0.000 OA
ENDBRANCH 100 102
ENDBRANCH 95 99
ENDBRANCH 75 95
ENDBRANCH 74 78
ENDBRANCH 58 74
ENDBRANCH 57 61
ENDBRANCH 37 57
ENDBRANCH 36 40
ENDBRANCH 23 36
ENDBRANCH 22 26
ENDBRANCH 1 22
TORSDOF 20
ENDMDL
MODEL 23
REMARK VINA RESULT:      -0.5     61.382     66.761
ROOT
ATOM      1  C1  NGY C   1      83.479  15.313  55.4190  0.00  0.00     0.000 C
ATOM      2  C2  NGY C   1      82.845  14.746  54.1570  0.00  0.00     0.000 C
ATOM      3  C3  NGY C   1      83.755  14.981  52.9560  0.00  0.00     0.000 C
ATOM      4  C4  NGY C   1      84.066  16.464  52.8790  0.00  0.00     0.000 C
ATOM      5  C5  NGY C   1      84.770  16.885  54.1660  0.00  0.00     0.000 C
ATOM      6  O5  NGY C   1      83.860  16.665  55.2740  0.00  0.00     0.000 O
ATOM      7   O  NGY C   1      83.110  14.509  51.7820  0.00  0.00     0.000 O
ATOM      9  HD  NGY C   1      82.304  14.478  51.4660  0.00  0.00     0.000 HD
ATOM      9   O  NGY C   1      84.886  16.753  51.7560  0.00  0.00     0.000 O
ATOM     11  HD  NGY C   1      84.080  16.722  51.4400  0.00  0.00     0.000 HD
ENDROOT
BRANCH 2 13
ATOM     11   N  NGY C   1      82.452  13.420  54.5740  0.00  0.00     0.000 N
ATOM     13  HD  NGY C   1      81.774  13.309  54.0470  0.00  0.00     0.000 HD
ATOM     13   C  NGY C   1      81.410  12.796  54.0270  0.00  0.00     0.000 C
ATOM     14   O  NGY C   1      80.655  13.380  53.2480  0.00  0.00     0.000 OA
ATOM     15   C  NGY C   1      81.225  11.353  54.3860  0.00  0.00     0.000 C
ENDBRANCH 2 13
BRANCH 5 16
ATOM     16   C  NGY C   1      85.153  18.328  54.2370  0.00  0.00     0.000 C
ATOM     17   O  NGY C   1      88.533  19.588  53.5690  0.00  0.00     0.000 OA
ATOM     18   O  NGY C   1      86.575  18.433  54.1340  0.00  0.00     0.000 O
ATOM     19   S  NGY C   1      87.127  19.851  53.7430  0.00  0.00     0.000 S
ATOM     20   O  NGY C   1      86.866  20.729  54.8530  0.00  0.00     0.000 OA
ATOM     21   O  NGY C   1      86.397  20.207  52.5370  0.00  0.00     0.000 OA
ENDBRANCH 5 16
BRANCH 1 22
ATOM     22  O4  BDP C   2      84.508  14.520  55.7830  0.00  0.00     0.000 O
BRANCH 22 26
ATOM     23  C1  BDP C   2      86.875  12.780  58.6700  0.00  0.00     0.000 C
ATOM     24  C2  BDP C   2      85.388  12.565  58.8320  0.00  0.00     0.000 C
ATOM     25  C3  BDP C   2      84.683  12.922  57.5500  0.00  0.00     0.000 C
ATOM     26  C4  BDP C   2      85.072  14.329  57.1070  0.00  0.00     0.000 C
ATOM     27  C5  BDP C   2      86.587  14.484  57.1500  0.00  0.00     0.000 C
ATOM     28  O5  BDP C   2      87.143  14.194  58.4580  0.00  0.00     0.000 O
ATOM     29   O  BDP C   2      85.055  11.190  59.0270  0.00  0.00     0.000 O
ATOM     31  HD  BDP C   2      84.315  10.917  58.6700  0.00  0.00     0.000 HD
ATOM     31   O  BDP C   2      83.287  12.862  57.8150  0.00  0.00     0.000 O
ATOM     33  HD  BDP C   2      82.547  12.588  57.4580  0.00  0.00     0.000 HD
BRANCH 27 33
ATOM     33   C  BDP C   2      87.034  15.887  56.8160  0.00  0.00     0.000 C
ATOM     34   O  BDP C   2      86.485  16.897  57.3170  0.00  0.00     0.000 OA
ATOM     35   O  BDP C   2      87.935  16.032  56.0070  0.00  0.00     0.000 OA
ENDBRANCH 27 33
BRANCH 23 36
ATOM     36  O4  SGN C   3      87.636  12.370  59.7120  0.00  0.00     0.000 O
BRANCH 36 40
ATOM     37  C1  SGN C   3      91.169  10.453  60.8380  0.00  0.00     0.000 C
ATOM     38  C2  SGN C   3      91.251  11.943  60.4700  0.00  0.00     0.000 C
ATOM     39  C3  SGN C   3      89.870  12.580  60.5160  0.00  0.00     0.000 C
ATOM     40  C4  SGN C   3      88.946  11.809  59.5980  0.00  0.00     0.000 C
ATOM     41  C5  SGN C   3      88.945  10.355  60.0160  0.00  0.00     0.000 C
ATOM     42  O5  SGN C   3      90.276   9.824  59.9320  0.00  0.00     0.000 O
ATOM     43   O  SGN C   3      89.967  13.941  60.1150  0.00  0.00     0.000 O
ATOM     45  HD  SGN C   3      89.177  13.636  59.9350  0.00  0.00     0.000 HD
BRANCH 38 47
ATOM     45   N  SGN C   3      92.649  11.508  60.3030  0.00  0.00     0.000 N
ATOM     47  HD  SGN C   3      91.823  11.452  60.0490  0.00  0.00     0.000 HD
ATOM     47   S  SGN C   3      93.668  12.465  61.0600  0.00  0.00     0.000 S
ATOM     48   O  SGN C   3      93.688  13.762  60.4820  0.00  0.00     0.000 OA
ATOM     49   O  SGN C   3      93.347  12.387  62.4480  0.00  0.00     0.000 OA
ATOM     50   O  SGN C   3      94.950  11.826  60.7670  0.00  0.00     0.000 OA
ENDBRANCH 38 47
BRANCH 41 51
ATOM     51   C  SGN C   3      88.056   9.475  59.1800  0.00  0.00     0.000 C
ATOM     52   O  SGN C   3      87.882   9.327  55.4620  0.00  0.00     0.000 OA
ATOM     53   O  SGN C   3      87.593   7.579  57.0720  0.00  0.00     0.000 OA
ATOM     54   O  SGN C   3      86.046   9.413  56.9760  0.00  0.00     0.000 OA
ATOM     55   O  SGN C   3      88.344   9.699  57.8180  0.00  0.00     0.000 O
ATOM     56   S  SGN C   3      87.374   8.933  56.7310  0.00  0.00     0.000 S
ENDBRANCH 41 51
BRANCH 37 57
ATOM     57  O4  IDS C   4      90.738  10.204  62.0990  0.00  0.00     0.000 O
BRANCH 57 61
ATOM     58  C1  IDS C   4      91.105   8.807  65.6180  0.00  0.00     0.000 C
ATOM     59  C2  IDS C   4      92.202   9.661  65.0660  0.00  0.00     0.000 C
ATOM     60  C3  IDS C   4      92.489   9.376  63.5900  0.00  0.00     0.000 C
ATOM     61  C4  IDS C   4      91.291   9.027  62.7180  0.00  0.00     0.000 C
ATOM     62  C5  IDS C   4      90.224   8.284  63.5320  0.00  0.00     0.000 C
ATOM     63  O5  IDS C   4      89.971   8.923  64.7750  0.00  0.00     0.000 O
ATOM     64   O  IDS C   4      93.377   8.273  63.5900  0.00  0.00     0.000 O
ATOM     66  HD  IDS C   4      92.992   7.575  63.2500  0.00  0.00     0.000 HD
BRANCH 59 66
ATOM     66   O  IDS C   4      91.870  11.096  65.1580  0.00  0.00     0.000 O
ATOM     67   S  IDS C   4      92.720  11.956  66.1930  0.00  0.00     0.000 S
ATOM     68   O  IDS C   4      94.055  11.902  65.6470  0.00  0.00     0.000 OA
ATOM     69   O  IDS C   4      92.106  13.270  66.1780  0.00  0.00     0.000 OA
ATOM     70   O  IDS C   4      92.638  11.284  67.4810  0.00  0.00     0.000 OA
ENDBRANCH 59 66
BRANCH 62 71
ATOM     71   C  IDS C   4      88.883   8.212  62.8290  0.00  0.00     0.000 C
ATOM     72   O  IDS C   4      87.955   8.898  63.2120  0.00  0.00     0.000 OA
ATOM     73   O  IDS C   4      88.730   7.364  61.9260  0.00  0.00     0.000 OA
ENDBRANCH 62 71
BRANCH 58 74
ATOM     74  O4  SGN C   5      91.496   7.571  66.0420  0.00  0.00     0.000 O
BRANCH 74 78
ATOM     75  C1  SGN C   5      91.123   4.611  68.9640  0.00  0.00     0.000 C
ATOM     76  C2  SGN C   5      89.924   4.774  68.0110  0.00  0.00     0.000 C
ATOM     77  C3  SGN C   5      90.309   5.630  66.7970  0.00  0.00     0.000 C
ATOM     78  C4  SGN C   5      91.030   6.904  67.2140  0.00  0.00     0.000 C
ATOM     79  C5  SGN C   5      92.194   6.552  68.1280  0.00  0.00     0.000 C
ATOM     80  O5  SGN C   5      91.696   5.866  69.3070  0.00  0.00     0.000 O
ATOM     81   O  SGN C   5      89.132   5.941  66.0590  0.00  0.00     0.000 O
ATOM     83  HD  SGN C   5      88.486   5.370  65.9710  0.00  0.00     0.000 HD
BRANCH 76 85
ATOM     83   N  SGN C   5      88.760   3.934  67.7010  0.00  0.00     0.000 N
ATOM     85  HD  SGN C   5      88.137   3.376  67.9240  0.00  0.00     0.000 HD
ATOM     85   S  SGN C   5      88.407   2.448  68.2130  0.00  0.00     0.000 S
ATOM     86   O  SGN C   5      87.150   2.030  67.6960  0.00  0.00     0.000 OA
ATOM     87   O  SGN C   5      89.529   1.628  67.9240  0.00  0.00     0.000 OA
ATOM     88   O  SGN C   5      88.289   2.805  69.6920  0.00  0.00     0.000 OA
ENDBRANCH 76 85
BRANCH 79 89
ATOM     89   C  SGN C   5      92.993   7.757  68.5810  0.00  0.00     0.000 C
ATOM     90   O  SGN C   5      94.390   7.398  68.7140  0.00  0.00     0.000 O
ATOM     91   S  SGN C   5      95.463   8.554  68.4170  0.00  0.00     0.000 S
ATOM     92   O  SGN C   5      95.135   9.090  67.1220  0.00  0.00     0.000 OA
ATOM     93   O  SGN C   5      95.334   9.531  69.4670  0.00  0.00     0.000 OA
ATOM     94   O  SGN C   5      96.719   7.854  68.4450  0.00  0.00     0.000 OA
ENDBRANCH 79 89
BRANCH 75 95
ATOM     95  O4  BDP C   6      92.039   3.859  68.2840  0.00  0.00     0.000 O
BRANCH 95 99
ATOM     96  C1  BDP C   6      94.577   0.819  69.9470  0.00  0.00     0.000 C
ATOM     97  C2  BDP C   6      93.433   1.335  70.7730  0.00  0.00     0.000 C
ATOM     98  C3  BDP C   6      92.376   2.115  69.9760  0.00  0.00     0.000 C
ATOM     99  C4  BDP C   6      93.022   3.158  69.0760  0.00  0.00     0.000 C
ATOM    100  C5  BDP C   6      94.147   2.464  68.2720  0.00  0.00     0.000 C
ATOM    101  O5  BDP C   6      95.040   1.984  69.2900  0.00  0.00     0.000 O
BRANCH 100 102
ATOM    102   C  BDP C   6      94.913   3.424  67.3970  0.00  0.00     0.000 C
ATOM    103   O  BDP C   6      95.494   4.418  67.8550  0.00  0.00     0.000 OA
ATOM    104   O  BDP C   6      94.951   3.169  66.1880  0.00  0.00     0.000 OA
ENDBRANCH 100 102
ENDBRANCH 95 99
ENDBRANCH 75 95
ENDBRANCH 74 78
ENDBRANCH 58 74
ENDBRANCH 57 61
ENDBRANCH 37 57
ENDBRANCH 36 40
ENDBRANCH 23 36
ENDBRANCH 22 26
ENDBRANCH 1 22
TORSDOF 20
ENDMDL
MODEL 24
REMARK VINA RESULT:      -0.4     77.883     84.412
ROOT
ATOM      1  C1  NGY C   1      75.552  74.695  79.9180  0.00  0.00     0.000 C
ATOM      2  C2  NGY C   1      76.075  73.343  80.3840  0.00  0.00     0.000 C
ATOM      3  C3  NGY C   1      75.421  72.950  81.7040  0.00  0.00     0.000 C
ATOM      4  C4  NGY C   1      75.641  74.075  82.6980  0.00  0.00     0.000 C
ATOM      5  C5  NGY C   1      75.001  75.346  82.1490  0.00  0.00     0.000 C
ATOM      6  O5  NGY C   1      75.670  75.693  80.9090  0.00  0.00     0.000 O
ATOM      7   O  NGY C   1      75.977  71.723  82.1540  0.00  0.00     0.000 O
ATOM      9  HD  NGY C   1      76.751  71.334  82.1480  0.00  0.00     0.000 HD
ATOM      9   O  NGY C   1      75.081  73.752  83.9630  0.00  0.00     0.000 O
ATOM     11  HD  NGY C   1      75.855  73.363  83.9570  0.00  0.00     0.000 HD
ENDROOT
BRANCH 2 13
ATOM     11   N  NGY C   1      75.959  72.540  79.1900  0.00  0.00     0.000 N
ATOM     13  HD  NGY C   1      76.599  71.978  79.3430  0.00  0.00     0.000 HD
ATOM     13   C  NGY C   1      76.768  71.507  78.9610  0.00  0.00     0.000 C
ATOM     14   O  NGY C   1      77.737  71.284  79.6890  0.00  0.00     0.000 OA
ATOM     15   C  NGY C   1      76.422  70.625  77.8010  0.00  0.00     0.000 C
ENDBRANCH 2 13
BRANCH 5 16
ATOM     16   C  NGY C   1      75.126  76.550  83.0260  0.00  0.00     0.000 C
ATOM     17   O  NGY C   1      77.396  79.352  82.3500  0.00  0.00     0.000 OA
ATOM     18   O  NGY C   1      76.243  77.326  82.5860  0.00  0.00     0.000 O
ATOM     19   S  NGY C   1      76.270  78.819  83.0750  0.00  0.00     0.000 S
ATOM     20   O  NGY C   1      76.495  78.796  84.4970  0.00  0.00     0.000 OA
ATOM     21   O  NGY C   1      74.970  79.351  82.7010  0.00  0.00     0.000 OA
ENDBRANCH 5 16
BRANCH 1 22
ATOM     22  O4  BDP C   2      74.284  74.543  79.4810  0.00  0.00     0.000 O
BRANCH 22 26
ATOM     23  C1  BDP C   2      71.153  75.592  77.0200  0.00  0.00     0.000 C
ATOM     24  C2  BDP C   2      72.387  75.077  76.3180  0.00  0.00     0.000 C
ATOM     25  C3  BDP C   2      73.290  74.399  77.3140  0.00  0.00     0.000 C
ATOM     26  C4  BDP C   2      73.575  75.330  78.4880  0.00  0.00     0.000 C
ATOM     27  C5  BDP C   2      72.272  75.926  79.0040  0.00  0.00     0.000 C
ATOM     28  O5  BDP C   2      71.529  76.626  77.9730  0.00  0.00     0.000 O
ATOM     29   O  BDP C   2      72.087  74.044  75.3780  0.00  0.00     0.000 O
ATOM     31  HD  BDP C   2      72.670  73.409  75.3020  0.00  0.00     0.000 HD
ATOM     31   O  BDP C   2      74.498  74.087  76.6320  0.00  0.00     0.000 O
ATOM     33  HD  BDP C   2      75.082  73.452  76.5560  0.00  0.00     0.000 HD
BRANCH 27 33
ATOM     33   C  BDP C   2      72.494  76.934  80.1050  0.00  0.00     0.000 C
ATOM     34   O  BDP C   2      73.283  77.900  79.9740  0.00  0.00     0.000 OA
ATOM     35   O  BDP C   2      71.908  76.776  81.1640  0.00  0.00     0.000 OA
ENDBRANCH 27 33
BRANCH 23 36
ATOM     36  O4  SGN C   3      70.199  76.109  76.2110  0.00  0.00     0.000 O
BRANCH 36 40
ATOM     37  C1  SGN C   3      66.100  76.249  75.4290  0.00  0.00     0.000 C
ATOM     38  C2  SGN C   3      66.678  77.293  76.3980  0.00  0.00     0.000 C
ATOM     39  C3  SGN C   3      68.188  77.390  76.2370  0.00  0.00     0.000 C
ATOM     40  C4  SGN C   3      68.790  76.016  76.4420  0.00  0.00     0.000 C
ATOM     41  C5  SGN C   3      68.149  75.052  75.4680  0.00  0.00     0.000 C
ATOM     42  O5  SGN C   3      66.732  75.006  75.6930  0.00  0.00     0.000 O
ATOM     43   O  SGN C   3      68.703  78.318  77.1840  0.00  0.00     0.000 O
ATOM     45  HD  SGN C   3      69.308  77.731  76.9870  0.00  0.00     0.000 HD
BRANCH 38 47
ATOM     45   N  SGN C   3      65.248  77.304  76.7540  0.00  0.00     0.000 N
ATOM     47  HD  SGN C   3      65.997  76.870  76.7160  0.00  0.00     0.000 HD
ATOM     47   S  SGN C   3      64.653  78.777  76.7910  0.00  0.00     0.000 S
ATOM     48   O  SGN C   3      65.228  79.542  77.8400  0.00  0.00     0.000 OA
ATOM     49   O  SGN C   3      64.780  79.303  75.4710  0.00  0.00     0.000 OA
ATOM     50   O  SGN C   3      63.255  78.524  77.1370  0.00  0.00     0.000 OA
ENDBRANCH 38 47
BRANCH 41 51
ATOM     51   C  SGN C   3      68.667  73.643  75.5670  0.00  0.00     0.000 C
ATOM     52   O  SGN C   3      69.125  71.620  78.6610  0.00  0.00     0.000 OA
ATOM     53   O  SGN C   3      68.499  70.917  76.4600  0.00  0.00     0.000 OA
ATOM     54   O  SGN C   3      70.671  71.856  76.8660  0.00  0.00     0.000 OA
ATOM     55   O  SGN C   3      68.633  73.239  76.9170  0.00  0.00     0.000 O
ATOM     56   S  SGN C   3      69.295  71.771  77.2560  0.00  0.00     0.000 S
ENDBRANCH 41 51
BRANCH 37 57
ATOM     57  O4  IDS C   4      66.269  76.540  74.1160  0.00  0.00     0.000 O
BRANCH 57 61
ATOM     58  C1  IDS C   4      64.964  77.304  70.6260  0.00  0.00     0.000 C
ATOM     59  C2  IDS C   4      64.345  78.005  71.7930  0.00  0.00     0.000 C
ATOM     60  C3  IDS C   4      64.162  77.087  73.0050  0.00  0.00     0.000 C
ATOM     61  C4  IDS C   4      65.243  76.041  73.2370  0.00  0.00     0.000 C
ATOM     62  C5  IDS C   4      65.842  75.575  71.9050  0.00  0.00     0.000 C
ATOM     63  O5  IDS C   4      66.156  76.670  71.0560  0.00  0.00     0.000 O
ATOM     64   O  IDS C   4      62.934  76.418  72.7840  0.00  0.00     0.000 O
ATOM     66  HD  IDS C   4      63.070  75.573  72.6510  0.00  0.00     0.000 HD
BRANCH 59 66
ATOM     66   O  IDS C   4      65.174  79.137  72.2480  0.00  0.00     0.000 O
ATOM     67   S  IDS C   4      64.591  80.595  71.9850  0.00  0.00     0.000 S
ATOM     68   O  IDS C   4      63.406  80.628  72.8080  0.00  0.00     0.000 OA
ATOM     69   O  IDS C   4      65.647  81.499  72.3970  0.00  0.00     0.000 OA
ATOM     70   O  IDS C   4      64.264  80.679  70.5700  0.00  0.00     0.000 OA
ENDBRANCH 59 66
BRANCH 62 71
ATOM     71   C  IDS C   4      67.137  74.803  72.0730  0.00  0.00     0.000 C
ATOM     72   O  IDS C   4      68.192  75.300  71.7270  0.00  0.00     0.000 OA
ATOM     73   O  IDS C   4      67.078  73.623  72.4720  0.00  0.00     0.000 OA
ENDBRANCH 62 71
BRANCH 58 74
ATOM     74  O4  SGN C   5      64.089  76.615  69.8390  0.00  0.00     0.000 O
BRANCH 74 78
ATOM     75  C1  SGN C   5      62.978  75.580  65.9480  0.00  0.00     0.000 C
ATOM     76  C2  SGN C   5      64.196  74.834  66.5240  0.00  0.00     0.000 C
ATOM     77  C3  SGN C   5      64.292  75.041  68.0410  0.00  0.00     0.000 C
ATOM     78  C4  SGN C   5      64.149  76.510  68.4170  0.00  0.00     0.000 C
ATOM     79  C5  SGN C   5      62.885  77.074  67.7850  0.00  0.00     0.000 C
ATOM     80  O5  SGN C   5      62.966  76.947  66.3410  0.00  0.00     0.000 O
ATOM     81   O  SGN C   5      65.538  74.527  68.5000  0.00  0.00     0.000 O
ATOM     83  HD  SGN C   5      65.886  73.811  68.1610  0.00  0.00     0.000 HD
BRANCH 76 85
ATOM     83   N  SGN C   5      63.974  74.014  65.3260  0.00  0.00     0.000 N
ATOM     85  HD  SGN C   5      63.836  73.257  64.9300  0.00  0.00     0.000 HD
ATOM     85   S  SGN C   5      64.572  72.566  64.9520  0.00  0.00     0.000 S
ATOM     86   O  SGN C   5      64.052  72.121  63.7060  0.00  0.00     0.000 OA
ATOM     87   O  SGN C   5      65.983  72.653  65.0700  0.00  0.00     0.000 OA
ATOM     88   O  SGN C   5      63.917  71.813  66.1080  0.00  0.00     0.000 OA
ENDBRANCH 76 85
BRANCH 79 89
ATOM     89   C  SGN C   5      62.640  78.531  68.1210  0.00  0.00     0.000 C
ATOM     90   O  SGN C   5      62.819  79.344  66.9360  0.00  0.00     0.000 O
ATOM     91   S  SGN C   5      61.922  80.671  66.8290  0.00  0.00     0.000 S
ATOM     92   O  SGN C   5      60.559  80.257  67.0340  0.00  0.00     0.000 OA
ATOM     93   O  SGN C   5      62.382  81.576  67.8520  0.00  0.00     0.000 OA
ATOM     94   O  SGN C   5      62.184  81.141  65.4960  0.00  0.00     0.000 OA
ENDBRANCH 79 89
BRANCH 75 95
ATOM     95  O4  BDP C   6      61.879  74.947  66.4570  0.00  0.00     0.000 O
BRANCH 95 99
ATOM     96  C1  BDP C   6      57.867  74.620  64.9590  0.00  0.00     0.000 C
ATOM     97  C2  BDP C   6      59.008  74.570  63.9820  0.00  0.00     0.000 C
ATOM     98  C3  BDP C   6      60.380  74.310  64.6230  0.00  0.00     0.000 C
ATOM     99  C4  BDP C   6      60.614  75.223  65.8170  0.00  0.00     0.000 C
ATOM    100  C5  BDP C   6      59.374  75.135  66.7370  0.00  0.00     0.000 C
ATOM    101  O5  BDP C   6      58.299  75.588  65.8980  0.00  0.00     0.000 O
BRANCH 100 102
ATOM    102   C  BDP C   6      59.461  76.064  67.9210  0.00  0.00     0.000 C
ATOM    103   O  BDP C   6      59.686  75.654  69.0690  0.00  0.00     0.000 OA
ATOM    104   O  BDP C   6      59.309  77.271  67.6970  0.00  0.00     0.000 OA
ENDBRANCH 100 102
ENDBRANCH 95 99
ENDBRANCH 75 95
ENDBRANCH 74 78
ENDBRANCH 58 74
ENDBRANCH 57 61
ENDBRANCH 37 57
ENDBRANCH 36 40
ENDBRANCH 23 36
ENDBRANCH 22 26
ENDBRANCH 1 22
TORSDOF 20
ENDMDL
MODEL 25
REMARK VINA RESULT:      -0.4     71.299     78.020
ROOT
ATOM      1  C1  NGY C   1      72.544  66.106  24.3690  0.00  0.00     0.000 C
ATOM      2  C2  NGY C   1      71.626  64.966  24.7890  0.00  0.00     0.000 C
ATOM      3  C3  NGY C   1      70.875  65.334  26.0640  0.00  0.00     0.000 C
ATOM      4  C4  NGY C   1      71.892  65.729  27.1180  0.00  0.00     0.000 C
ATOM      5  C5  NGY C   1      72.686  66.928  26.6080  0.00  0.00     0.000 C
ATOM      6  O5  NGY C   1      73.400  66.525  25.4100  0.00  0.00     0.000 O
ATOM      7   O  NGY C   1      70.083  64.229  26.4750  0.00  0.00     0.000 O
ATOM      9  HD  NGY C   1      70.147  63.365  26.4780  0.00  0.00     0.000 HD
ATOM      9   O  NGY C   1      71.254  66.052  28.3450  0.00  0.00     0.000 O
ATOM     11  HD  NGY C   1      71.318  65.188  28.3480  0.00  0.00     0.000 HD
ENDROOT
BRANCH 2 13
ATOM     11   N  NGY C   1      70.913  64.655  23.5730  0.00  0.00     0.000 N
ATOM     13  HD  NGY C   1      70.788  63.807  23.7030  0.00  0.00     0.000 HD
ATOM     13   C  NGY C   1      70.493  63.419  23.3060  0.00  0.00     0.000 C
ATOM     14   O  NGY C   1      70.822  62.467  24.0160  0.00  0.00     0.000 OA
ATOM     15   C  NGY C   1      69.587  63.256  22.1240  0.00  0.00     0.000 C
ENDBRANCH 2 13
BRANCH 5 16
ATOM     16   C  NGY C   1      73.729  67.445  27.5450  0.00  0.00     0.000 C
ATOM     17   O  NGY C   1      73.283  70.389  29.6880  0.00  0.00     0.000 OA
ATOM     18   O  NGY C   1      73.305  68.714  28.0520  0.00  0.00     0.000 O
ATOM     19   S  NGY C   1      74.026  69.199  29.3610  0.00  0.00     0.000 S
ATOM     20   O  NGY C   1      75.393  69.484  29.0130  0.00  0.00     0.000 OA
ATOM     21   O  NGY C   1      73.883  68.090  30.2900  0.00  0.00     0.000 OA
ENDBRANCH 5 16
BRANCH 1 22
ATOM     22  O4  BDP C   2      71.790  67.113  23.8800  0.00  0.00     0.000 O
BRANCH 22 26
ATOM     23  C1  BDP C   2      71.206  70.244  21.2680  0.00  0.00     0.000 C
ATOM     24  C2  BDP C   2      71.558  68.921  20.6290  0.00  0.00     0.000 C
ATOM     25  C3  BDP C   2      71.383  67.812  21.6330  0.00  0.00     0.000 C
ATOM     26  C4  BDP C   2      72.162  68.124  22.9060  0.00  0.00     0.000 C
ATOM     27  C5  BDP C   2      71.859  69.545  23.3620  0.00  0.00     0.000 C
ATOM     28  O5  BDP C   2      72.146  70.534  22.3400  0.00  0.00     0.000 O
ATOM     29   O  BDP C   2      70.660  68.569  19.5770  0.00  0.00     0.000 O
ATOM     31  HD  BDP C   2      70.474  67.727  19.4930  0.00  0.00     0.000 HD
ATOM     31   O  BDP C   2      71.887  66.626  21.0300  0.00  0.00     0.000 O
ATOM     33  HD  BDP C   2      71.701  65.785  20.9460  0.00  0.00     0.000 HD
BRANCH 27 33
ATOM     33   C  BDP C   2      72.675  69.952  24.5660  0.00  0.00     0.000 C
ATOM     34   O  BDP C   2      73.909  69.737  24.6380  0.00  0.00     0.000 OA
ATOM     35   O  BDP C   2      72.100  70.473  25.5070  0.00  0.00     0.000 OA
ENDBRANCH 27 33
BRANCH 23 36
ATOM     36  O4  SGN C   3      71.197  71.307  20.4320  0.00  0.00     0.000 O
BRANCH 36 40
ATOM     37  C1  SGN C   3      69.217  74.825  19.3670  0.00  0.00     0.000 C
ATOM     38  C2  SGN C   3      70.179  74.882  20.5650  0.00  0.00     0.000 C
ATOM     39  C3  SGN C   3      71.121  73.687  20.5470  0.00  0.00     0.000 C
ATOM     40  C4  SGN C   3      70.299  72.417  20.5270  0.00  0.00     0.000 C
ATOM     41  C5  SGN C   3      69.369  72.457  19.3340  0.00  0.00     0.000 C
ATOM     42  O5  SGN C   3      68.504  73.600  19.4310  0.00  0.00     0.000 O
ATOM     43   O  SGN C   3      71.958  73.734  21.6960  0.00  0.00     0.000 O
ATOM     45  HD  SGN C   3      71.857  72.913  21.4380  0.00  0.00     0.000 HD
BRANCH 38 47
ATOM     45   N  SGN C   3      69.326  76.065  20.7810  0.00  0.00     0.000 N
ATOM     47  HD  SGN C   3      69.393  75.203  20.7200  0.00  0.00     0.000 HD
ATOM     47   S  SGN C   3      70.182  77.371  21.0780  0.00  0.00     0.000 S
ATOM     48   O  SGN C   3      70.871  77.269  22.3150  0.00  0.00     0.000 OA
ATOM     49   O  SGN C   3      70.978  77.610  19.9190  0.00  0.00     0.000 OA
ATOM     50   O  SGN C   3      69.137  78.382  21.2310  0.00  0.00     0.000 OA
ENDBRANCH 38 47
BRANCH 41 51
ATOM     51   C  SGN C   3      68.493  71.241  19.1950  0.00  0.00     0.000 C
ATOM     52   O  SGN C   3      66.425  69.636  21.8460  0.00  0.00     0.000 OA
ATOM     53   O  SGN C   3      66.004  69.838  19.4980  0.00  0.00     0.000 OA
ATOM     54   O  SGN C   3      67.861  68.541  20.2940  0.00  0.00     0.000 OA
ATOM     55   O  SGN C   3      67.849  71.001  20.4260  0.00  0.00     0.000 O
ATOM     56   S  SGN C   3      66.952  69.624  20.5240  0.00  0.00     0.000 S
ENDBRANCH 41 51
BRANCH 37 57
ATOM     57  O4  IDS C   4      69.818  74.903  18.1540  0.00  0.00     0.000 O
BRANCH 57 61
ATOM     58  C1  IDS C   4      70.479  76.502  14.7670  0.00  0.00     0.000 C
ATOM     59  C2  IDS C   4      70.547  77.359  15.9910  0.00  0.00     0.000 C
ATOM     60  C3  IDS C   4      69.449  77.029  17.0050  0.00  0.00     0.000 C
ATOM     61  C4  IDS C   4      69.053  75.564  17.1280  0.00  0.00     0.000 C
ATOM     62  C5  IDS C   4      69.206  74.845  15.7820  0.00  0.00     0.000 C
ATOM     63  O5  IDS C   4      70.450  75.142  15.1650  0.00  0.00     0.000 O
ATOM     64   O  IDS C   4      68.316  77.762  16.5800  0.00  0.00     0.000 O
ATOM     66  HD  IDS C   4      67.691  77.226  16.3110  0.00  0.00     0.000 HD
BRANCH 59 66
ATOM     66   O  IDS C   4      71.832  77.196  16.6970  0.00  0.00     0.000 O
ATOM     67   S  IDS C   4      72.829  78.436  16.6540  0.00  0.00     0.000 S
ATOM     68   O  IDS C   4      72.114  79.457  17.3820  0.00  0.00     0.000 OA
ATOM     69   O  IDS C   4      74.040  77.963  17.2950  0.00  0.00     0.000 OA
ATOM     70   O  IDS C   4      73.006  78.797  15.2560  0.00  0.00     0.000 OA
ENDBRANCH 59 66
BRANCH 62 71
ATOM     71   C  IDS C   4      69.161  73.334  15.9060  0.00  0.00     0.000 C
ATOM     72   O  IDS C   4      70.176  72.680  15.7640  0.00  0.00     0.000 OA
ATOM     73   O  IDS C   4      68.052  72.783  16.0520  0.00  0.00     0.000 OA
ENDBRANCH 62 71
BRANCH 58 74
ATOM     74  O4  SGN C   5      69.611  76.935  13.8090  0.00  0.00     0.000 O
BRANCH 74 78
ATOM     75  C1  SGN C   5      68.913  77.469   9.7260  0.00  0.00     0.000 C
ATOM     76  C2  SGN C   5      68.809  76.023  10.2460  0.00  0.00     0.000 C
ATOM     77  C3  SGN C   5      68.743  76.001  11.7790  0.00  0.00     0.000 C
ATOM     78  C4  SGN C   5      69.824  76.874  12.3990  0.00  0.00     0.000 C
ATOM     79  C5  SGN C   5      69.764  78.267  11.7880  0.00  0.00     0.000 C
ATOM     80  O5  SGN C   5      69.973  78.177  10.3540  0.00  0.00     0.000 O
ATOM     81   O  SGN C   5      68.869  74.655  12.2270  0.00  0.00     0.000 O
ATOM     83  HD  SGN C   5      68.515  73.996  11.7910  0.00  0.00     0.000 HD
BRANCH 76 85
ATOM     83   N  SGN C   5      68.316  74.780   9.6390  0.00  0.00     0.000 N
ATOM     85  HD  SGN C   5      68.138  74.278   8.9560  0.00  0.00     0.000 HD
ATOM     85   S  SGN C   5      67.407  74.573   8.3250  0.00  0.00     0.000 S
ATOM     86   O  SGN C   5      67.205  73.188   8.0740  0.00  0.00     0.000 OA
ATOM     87   O  SGN C   5      66.248  75.376   8.4880  0.00  0.00     0.000 OA
ATOM     88   O  SGN C   5      68.411  75.159   7.3350  0.00  0.00     0.000 OA
ENDBRANCH 76 85
BRANCH 79 89
ATOM     89   C  SGN C   5      70.791  79.222  12.3610  0.00  0.00     0.000 C
ATOM     90   O  SGN C   5      71.875  79.400  11.4170  0.00  0.00     0.000 O
ATOM     91   S  SGN C   5      72.605  80.830  11.4180  0.00  0.00     0.000 S
ATOM     92   O  SGN C   5      71.565  81.817  11.2840  0.00  0.00     0.000 OA
ATOM     93   O  SGN C   5      73.312  80.942  12.6680  0.00  0.00     0.000 OA
ATOM     94   O  SGN C   5      73.476  80.757  10.2770  0.00  0.00     0.000 OA
ENDBRANCH 79 89
BRANCH 75 95
ATOM     95  O4  BDP C   6      67.721  78.061  10.0320  0.00  0.00     0.000 O
BRANCH 95 99
ATOM     96  C1  BDP C   6      65.489  81.124   8.0110  0.00  0.00     0.000 C
ATOM     97  C2  BDP C   6      66.200  80.087   7.1880  0.00  0.00     0.000 C
ATOM     98  C3  BDP C   6      66.637  78.843   7.9750  0.00  0.00     0.000 C
ATOM     99  C4  BDP C   6      67.355  79.226   9.2610  0.00  0.00     0.000 C
ATOM    100  C5  BDP C   6      66.482  80.266  10.0040  0.00  0.00     0.000 C
ATOM    101  O5  BDP C   6      66.394  81.357   9.0740  0.00  0.00     0.000 O
BRANCH 100 102
ATOM    102   C  BDP C   6      67.135  80.779  11.2620  0.00  0.00     0.000 C
ATOM    103   O  BDP C   6      68.187  81.434  11.2420  0.00  0.00     0.000 OA
ATOM    104   O  BDP C   6      66.564  80.529  12.3300  0.00  0.00     0.000 OA
ENDBRANCH 100 102
ENDBRANCH 95 99
ENDBRANCH 75 95
ENDBRANCH 74 78
ENDBRANCH 58 74
ENDBRANCH 57 61
ENDBRANCH 37 57
ENDBRANCH 36 40
ENDBRANCH 23 36
ENDBRANCH 22 26
ENDBRANCH 1 22
TORSDOF 20
ENDMDL
MODEL 26
REMARK VINA RESULT:      -0.4    110.364    114.245
ROOT
ATOM      1  C1  NGY C   1      47.371  90.623 119.0690  0.00  0.00     0.000 C
ATOM      2  C2  NGY C   1      46.474  89.403 118.9100  0.00  0.00     0.000 C
ATOM      3  C3  NGY C   1      45.231  89.763 118.1020  0.00  0.00     0.000 C
ATOM      4  C4  NGY C   1      44.555  90.945 118.7700  0.00  0.00     0.000 C
ATOM      5  C5  NGY C   1      45.530  92.119 118.7900  0.00  0.00     0.000 C
ATOM      6  O5  NGY C   1      46.682  91.740 119.5880  0.00  0.00     0.000 O
ATOM      7   O  NGY C   1      44.377  88.630 118.0300  0.00  0.00     0.000 O
ATOM      9  HD  NGY C   1      44.143  87.975 118.5460  0.00  0.00     0.000 HD
ATOM      9   O  NGY C   1      43.368  91.308 118.0810  0.00  0.00     0.000 O
ATOM     11  HD  NGY C   1      43.134  90.652 118.5960  0.00  0.00     0.000 HD
ENDROOT
BRANCH 2 13
ATOM     11   N  NGY C   1      47.410  88.387 118.4890  0.00  0.00     0.000 N
ATOM     13  HD  NGY C   1      47.000  87.690 118.7990  0.00  0.00     0.000 HD
ATOM     13   C  NGY C   1      47.205  87.097 118.7510  0.00  0.00     0.000 C
ATOM     14   O  NGY C   1      46.285  86.735 119.4860  0.00  0.00     0.000 OA
ATOM     15   C  NGY C   1      48.128  86.121 118.0880  0.00  0.00     0.000 C
ENDBRANCH 2 13
BRANCH 5 16
ATOM     16   C  NGY C   1      45.002  93.372 119.4140  0.00  0.00     0.000 C
ATOM     17   O  NGY C   1      43.701  96.221 117.5030  0.00  0.00     0.000 OA
ATOM     18   O  NGY C   1      44.786  94.342 118.3850  0.00  0.00     0.000 O
ATOM     19   S  NGY C   1      43.835  95.534 118.7630  0.00  0.00     0.000 S
ATOM     20   O  NGY C   1      44.519  96.327 119.7500  0.00  0.00     0.000 OA
ATOM     21   O  NGY C   1      42.630  94.895 119.2650  0.00  0.00     0.000 OA
ENDBRANCH 5 16
BRANCH 1 22
ATOM     22  O4  BDP C   2      47.964  90.883 117.8840  0.00  0.00     0.000 O
BRANCH 22 26
ATOM     23  C1  BDP C   2      51.179  92.209 115.6780  0.00  0.00     0.000 C
ATOM     24  C2  BDP C   2      51.491  91.150 116.7080  0.00  0.00     0.000 C
ATOM     25  C3  BDP C   2      50.212  90.503 117.1720  0.00  0.00     0.000 C
ATOM     26  C4  BDP C   2      49.222  91.565 117.6390  0.00  0.00     0.000 C
ATOM     27  C5  BDP C   2      49.120  92.671 116.5970  0.00  0.00     0.000 C
ATOM     28  O5  BDP C   2      50.403  93.276 116.2930  0.00  0.00     0.000 O
ATOM     29   O  BDP C   2      52.239  90.063 116.1630  0.00  0.00     0.000 O
ATOM     31  HD  BDP C   2      52.061  89.275 116.4750  0.00  0.00     0.000 HD
ATOM     31   O  BDP C   2      50.551  89.642 118.2520  0.00  0.00     0.000 O
ATOM     33  HD  BDP C   2      50.374  88.854 118.5640  0.00  0.00     0.000 HD
BRANCH 27 33
ATOM     33   C  BDP C   2      48.228  93.805 117.0430  0.00  0.00     0.000 C
ATOM     34   O  BDP C   2      47.364  94.310 116.2870  0.00  0.00     0.000 OA
ATOM     35   O  BDP C   2      48.384  94.259 118.1650  0.00  0.00     0.000 OA
ENDBRANCH 27 33
BRANCH 23 36
ATOM     36  O4  SGN C   3      52.256  92.776 115.0860  0.00  0.00     0.000 O
BRANCH 36 40
ATOM     37  C1  SGN C   3      53.869  94.155 111.4900  0.00  0.00     0.000 C
ATOM     38  C2  SGN C   3      52.932  95.099 112.2610  0.00  0.00     0.000 C
ATOM     39  C3  SGN C   3      52.791  94.646 113.7070  0.00  0.00     0.000 C
ATOM     40  C4  SGN C   3      52.308  93.211 113.7240  0.00  0.00     0.000 C
ATOM     41  C5  SGN C   3      53.273  92.362 112.9260  0.00  0.00     0.000 C
ATOM     42  O5  SGN C   3      53.338  92.842 111.5750  0.00  0.00     0.000 O
ATOM     43   O  SGN C   3      51.875  95.500 114.3790  0.00  0.00     0.000 O
ATOM     45  HD  SGN C   3      51.873  94.717 114.7490  0.00  0.00     0.000 HD
BRANCH 38 47
ATOM     45   N  SGN C   3      52.898  95.656 110.8970  0.00  0.00     0.000 N
ATOM     47  HD  SGN C   3      52.730  94.993 111.4290  0.00  0.00     0.000 HD
ATOM     47   S  SGN C   3      53.136  97.228 110.8880  0.00  0.00     0.000 S
ATOM     48   O  SGN C   3      52.067  97.917 111.5180  0.00  0.00     0.000 OA
ATOM     49   O  SGN C   3      54.442  97.446 111.4200  0.00  0.00     0.000 OA
ATOM     50   O  SGN C   3      53.080  97.529 109.4590  0.00  0.00     0.000 OA
ENDBRANCH 38 47
BRANCH 41 51
ATOM     51   C  SGN C   3      52.906  90.904 112.8690  0.00  0.00     0.000 C
ATOM     52   O  SGN C   3      49.570  89.446 112.0810  0.00  0.00     0.000 OA
ATOM     53   O  SGN C   3      51.756  88.609 111.5800  0.00  0.00     0.000 OA
ATOM     54   O  SGN C   3      51.023  88.812 113.8580  0.00  0.00     0.000 OA
ATOM     55   O  SGN C   3      51.554  90.789 112.4860  0.00  0.00     0.000 O
ATOM     56   S  SGN C   3      50.917  89.271 112.5040  0.00  0.00     0.000 S
ENDBRANCH 41 51
BRANCH 37 57
ATOM     57  O4  IDS C   4      55.144  94.126 111.9480  0.00  0.00     0.000 O
BRANCH 57 61
ATOM     58  C1  IDS C   4      58.910  94.562 111.6310  0.00  0.00     0.000 C
ATOM     59  C2  IDS C   4      58.020  95.695 111.2290  0.00  0.00     0.000 C
ATOM     60  C3  IDS C   4      56.766  95.228 110.4860  0.00  0.00     0.000 C
ATOM     61  C4  IDS C   4      56.155  93.910 110.9440  0.00  0.00     0.000 C
ATOM     62  C5  IDS C   4      57.241  92.956 111.4550  0.00  0.00     0.000 C
ATOM     63  O5  IDS C   4      58.140  93.608 112.3410  0.00  0.00     0.000 O
ATOM     64   O  IDS C   4      57.163  95.089 109.1350  0.00  0.00     0.000 O
ATOM     66  HD  IDS C   4      57.144  94.257 108.8970  0.00  0.00     0.000 HD
BRANCH 59 66
ATOM     66   O  IDS C   4      57.551  96.459 112.4020  0.00  0.00     0.000 O
ATOM     67   S  IDS C   4      58.106  97.943 112.5510  0.00  0.00     0.000 S
ATOM     68   O  IDS C   4      57.551  98.618 111.4030  0.00  0.00     0.000 OA
ATOM     69   O  IDS C   4      57.604  98.401 113.8310  0.00  0.00     0.000 OA
ATOM     70   O  IDS C   4      59.557  97.869 112.4810  0.00  0.00     0.000 OA
ENDBRANCH 59 66
BRANCH 62 71
ATOM     71   C  IDS C   4      56.681  91.781 112.2330  0.00  0.00     0.000 C
ATOM     72   O  IDS C   4      56.773  91.751 113.4450  0.00  0.00     0.000 OA
ATOM     73   O  IDS C   4      56.224  90.810 111.5960  0.00  0.00     0.000 OA
ENDBRANCH 62 71
BRANCH 58 74
ATOM     74  O4  SGN C   5      59.771  94.136 110.6630  0.00  0.00     0.000 O
BRANCH 74 78
ATOM     75  C1  SGN C   5      63.635  92.825 109.7750  0.00  0.00     0.000 C
ATOM     76  C2  SGN C   5      62.696  91.781 110.4090  0.00  0.00     0.000 C
ATOM     77  C3  SGN C   5      61.241  92.265 110.3690  0.00  0.00     0.000 C
ATOM     78  C4  SGN C   5      61.113  93.697 110.8720  0.00  0.00     0.000 C
ATOM     79  C5  SGN C   5      62.091  94.588 110.1220  0.00  0.00     0.000 C
ATOM     80  O5  SGN C   5      63.446  94.114 110.3430  0.00  0.00     0.000 O
ATOM     81   O  SGN C   5      60.440  91.386 111.1520  0.00  0.00     0.000 O
ATOM     83  HD  SGN C   5      60.588  90.534 111.1730  0.00  0.00     0.000 HD
BRANCH 76 85
ATOM     83   N  SGN C   5      62.801  90.328 110.5950  0.00  0.00     0.000 N
ATOM     85  HD  SGN C   5      63.257  89.598 110.6900  0.00  0.00     0.000 HD
ATOM     85   S  SGN C   5      63.815  89.280 109.9110  0.00  0.00     0.000 S
ATOM     86   O  SGN C   5      63.591  87.970 110.4180  0.00  0.00     0.000 OA
ATOM     87   O  SGN C   5      63.714  89.455 108.5070  0.00  0.00     0.000 OA
ATOM     88   O  SGN C   5      65.091  89.875 110.5020  0.00  0.00     0.000 OA
ENDBRANCH 76 85
BRANCH 79 89
ATOM     89   C  SGN C   5      62.022  96.044 110.5360  0.00  0.00     0.000 C
ATOM     90   O  SGN C   5      63.161  96.760 110.0010  0.00  0.00     0.000 O
ATOM     91   S  SGN C   5      62.934  98.307 109.6370  0.00  0.00     0.000 S
ATOM     92   O  SGN C   5      61.777  98.358 108.7820  0.00  0.00     0.000 OA
ATOM     93   O  SGN C   5      62.732  99.009 110.8790  0.00  0.00     0.000 OA
ATOM     94   O  SGN C   5      64.155  98.673 108.9710  0.00  0.00     0.000 OA
ENDBRANCH 79 89
BRANCH 75 95
ATOM     95  O4  BDP C   6      63.315  92.856 108.4470  0.00  0.00     0.000 O
BRANCH 95 99
ATOM     96  C1  BDP C   6      65.834  93.446 105.0190  0.00  0.00     0.000 C
ATOM     97  C2  BDP C   6      66.416  92.787 106.2380  0.00  0.00     0.000 C
ATOM     98  C3  BDP C   6      65.372  92.279 107.2430  0.00  0.00     0.000 C
ATOM     99  C4  BDP C   6      64.329  93.345 107.5440  0.00  0.00     0.000 C
ATOM    100  C5  BDP C   6      63.806  93.895 106.1960  0.00  0.00     0.000 C
ATOM    101  O5  BDP C   6      64.983  94.433 105.5730  0.00  0.00     0.000 O
BRANCH 100 102
ATOM    102   C  BDP C   6      62.818  95.020 106.3710  0.00  0.00     0.000 C
ATOM    103   O  BDP C   6      63.166  96.162 106.7010  0.00  0.00     0.000 OA
ATOM    104   O  BDP C   6      61.628  94.757 106.1570  0.00  0.00     0.000 OA
ENDBRANCH 100 102
ENDBRANCH 95 99
ENDBRANCH 75 95
ENDBRANCH 74 78
ENDBRANCH 58 74
ENDBRANCH 57 61
ENDBRANCH 37 57
ENDBRANCH 36 40
ENDBRANCH 23 36
ENDBRANCH 22 26
ENDBRANCH 1 22
TORSDOF 20
ENDMDL
MODEL 27
REMARK VINA RESULT:      -0.4     40.942     52.667
ROOT
ATOM      1  C1  NGY C   1      21.973  11.547  78.6960  0.00  0.00     0.000 C
ATOM      2  C2  NGY C   1      21.205  10.320  78.2230  0.00  0.00     0.000 C
ATOM      3  C3  NGY C   1      21.955   9.048  78.6060  0.00  0.00     0.000 C
ATOM      4  C4  NGY C   1      23.365   9.143  78.0580  0.00  0.00     0.000 C
ATOM      5  C5  NGY C   1      24.048  10.363  78.6710  0.00  0.00     0.000 C
ATOM      6  O5  NGY C   1      23.316  11.547  78.2610  0.00  0.00     0.000 O
ATOM      7   O  NGY C   1      21.257   7.923  78.0920  0.00  0.00     0.000 O
ATOM      9  HD  NGY C   1      20.801   7.725  77.3820  0.00  0.00     0.000 HD
ATOM      9   O  NGY C   1      24.107   7.969  78.3540  0.00  0.00     0.000 O
ATOM     11  HD  NGY C   1      23.651   7.771  77.6440  0.00  0.00     0.000 HD
ENDROOT
BRANCH 2 13
ATOM     11   N  NGY C   1      19.865  10.604  78.6800  0.00  0.00     0.000 N
ATOM     13  HD  NGY C   1      19.423  10.157  78.0850  0.00  0.00     0.000 HD
ATOM     13   C  NGY C   1      18.796  10.115  78.0530  0.00  0.00     0.000 C
ATOM     14   O  NGY C   1      18.903   9.522  76.9790  0.00  0.00     0.000 OA
ATOM     15   C  NGY C   1      17.474  10.301  78.7340  0.00  0.00     0.000 C
ENDBRANCH 2 13
BRANCH 5 16
ATOM     16   C  NGY C   1      25.460  10.588  78.2320  0.00  0.00     0.000 C
ATOM     17   O  NGY C   1      28.398   9.540  80.1630  0.00  0.00     0.000 OA
ATOM     18   O  NGY C   1      26.336  10.255  79.3130  0.00  0.00     0.000 O
ATOM     19   S  NGY C   1      27.834   9.997  78.9180  0.00  0.00     0.000 S
ATOM     20   O  NGY C   1      28.386  11.257  78.4950  0.00  0.00     0.000 OA
ATOM     21   O  NGY C   1      27.768   9.007  77.8550  0.00  0.00     0.000 OA
ENDBRANCH 5 16
BRANCH 1 22
ATOM     22  O4  BDP C   2      21.862  11.639  80.0380  0.00  0.00     0.000 O
BRANCH 22 26
ATOM     23  C1  BDP C   2      21.567  13.861  83.4930  0.00  0.00     0.000 C
ATOM     24  C2  BDP C   2      20.523  14.153  82.4420  0.00  0.00     0.000 C
ATOM     25  C3  BDP C   2      20.515  13.049  81.4170  0.00  0.00     0.000 C
ATOM     26  C4  BDP C   2      21.920  12.831  80.8660  0.00  0.00     0.000 C
ATOM     27  C5  BDP C   2      22.915  12.724  82.0140  0.00  0.00     0.000 C
ATOM     28  O5  BDP C   2      22.890  13.883  82.8860  0.00  0.00     0.000 O
ATOM     29   O  BDP C   2      19.197  14.129  82.9720  0.00  0.00     0.000 O
ATOM     31  HD  BDP C   2      18.578  13.817  82.4530  0.00  0.00     0.000 HD
ATOM     31   O  BDP C   2      19.639  13.459  80.3740  0.00  0.00     0.000 O
ATOM     33  HD  BDP C   2      19.020  13.147  79.8550  0.00  0.00     0.000 HD
BRANCH 27 33
ATOM     33   C  BDP C   2      24.341  12.604  81.5320  0.00  0.00     0.000 C
ATOM     34   O  BDP C   2      25.137  11.761  82.0110  0.00  0.00     0.000 OA
ATOM     35   O  BDP C   2      24.731  13.379  80.6750  0.00  0.00     0.000 OA
ENDBRANCH 27 33
BRANCH 23 36
ATOM     36  O4  SGN C   3      21.585  14.713  84.5440  0.00  0.00     0.000 O
BRANCH 36 40
ATOM     37  C1  SGN C   3      21.882  15.036  88.6960  0.00  0.00     0.000 C
ATOM     38  C2  SGN C   3      23.188  14.925  87.8930  0.00  0.00     0.000 C
ATOM     39  C3  SGN C   3      22.942  15.255  86.4280  0.00  0.00     0.000 C
ATOM     40  C4  SGN C   3      21.859  14.340  85.8980  0.00  0.00     0.000 C
ATOM     41  C5  SGN C   3      20.624  14.496  86.7570  0.00  0.00     0.000 C
ATOM     42  O5  SGN C   3      20.933  14.154  88.1170  0.00  0.00     0.000 O
ATOM     43   O  SGN C   3      24.152  15.087  85.7000  0.00  0.00     0.000 O
ATOM     45  HD  SGN C   3      23.474  14.957  85.1780  0.00  0.00     0.000 HD
BRANCH 38 47
ATOM     45   N  SGN C   3      23.599  14.535  89.2540  0.00  0.00     0.000 N
ATOM     47  HD  SGN C   3      23.112  14.377  88.5560  0.00  0.00     0.000 HD
ATOM     47   S  SGN C   3      24.920  15.288  89.7170  0.00  0.00     0.000 S
ATOM     48   O  SGN C   3      26.042  14.892  88.9410  0.00  0.00     0.000 OA
ATOM     49   O  SGN C   3      24.612  16.681  89.7340  0.00  0.00     0.000 OA
ATOM     50   O  SGN C   3      25.104  14.762  91.0680  0.00  0.00     0.000 OA
ENDBRANCH 38 47
BRANCH 41 51
ATOM     51   C  SGN C   3      19.464  13.638  86.3300  0.00  0.00     0.000 C
ATOM     52   O  SGN C   3      19.516   9.992  85.5680  0.00  0.00     0.000 OA
ATOM     53   O  SGN C   3      17.784  11.318  86.5540  0.00  0.00     0.000 OA
ATOM     54   O  SGN C   3      18.471  11.705  84.2860  0.00  0.00     0.000 OA
ATOM     55   O  SGN C   3      19.908  12.307  86.1950  0.00  0.00     0.000 O
ATOM     56   S  SGN C   3      18.817  11.231  85.5930  0.00  0.00     0.000 S
ENDBRANCH 41 51
BRANCH 37 57
ATOM     57  O4  IDS C   4      21.341  16.278  88.7280  0.00  0.00     0.000 O
BRANCH 57 61
ATOM     58  C1  IDS C   4      20.215  19.470  90.4660  0.00  0.00     0.000 C
ATOM     59  C2  IDS C   4      21.595  18.956  90.7310  0.00  0.00     0.000 C
ATOM     60  C3  IDS C   4      21.644  17.432  90.8620  0.00  0.00     0.000 C
ATOM     61  C4  IDS C   4      20.701  16.640  89.9670  0.00  0.00     0.000 C
ATOM     62  C5  IDS C   4      19.410  17.427  89.7080  0.00  0.00     0.000 C
ATOM     63  O5  IDS C   4      19.678  18.776  89.3530  0.00  0.00     0.000 O
ATOM     64   O  IDS C   4      21.309  17.163  92.2110  0.00  0.00     0.000 O
ATOM     66  HD  IDS C   4      20.546  16.756  92.2580  0.00  0.00     0.000 HD
BRANCH 59 66
ATOM     66   O  IDS C   4      22.525  19.312  89.6410  0.00  0.00     0.000 O
ATOM     67   S  IDS C   4      23.623  20.414  89.9760  0.00  0.00     0.000 S
ATOM     68   O  IDS C   4      24.435  19.773  90.9830  0.00  0.00     0.000 OA
ATOM     69   O  IDS C   4      24.297  20.664  88.7170  0.00  0.00     0.000 OA
ATOM     70   O  IDS C   4      22.923  21.572  90.5090  0.00  0.00     0.000 OA
ENDBRANCH 59 66
BRANCH 62 71
ATOM     71   C  IDS C   4      18.587  16.860  88.5660  0.00  0.00     0.000 C
ATOM     72   O  IDS C   4      17.996  15.806  88.7050  0.00  0.00     0.000 OA
ATOM     73   O  IDS C   4      18.620  17.442  87.4640  0.00  0.00     0.000 OA
ENDBRANCH 62 71
BRANCH 58 74
ATOM     74  O4  SGN C   5      19.445  19.647  91.5770  0.00  0.00     0.000 O
BRANCH 74 78
ATOM     75  C1  SGN C   5      16.637  22.049  93.5220  0.00  0.00     0.000 C
ATOM     76  C2  SGN C   5      16.112  21.229  92.3280  0.00  0.00     0.000 C
ATOM     77  C3  SGN C   5      17.127  20.150  91.9250  0.00  0.00     0.000 C
ATOM     78  C4  SGN C   5      18.532  20.722  91.7980  0.00  0.00     0.000 C
ATOM     79  C5  SGN C   5      18.890  21.474  93.0710  0.00  0.00     0.000 C
ATOM     80  O5  SGN C   5      17.943  22.555  93.2780  0.00  0.00     0.000 O
ATOM     81   O  SGN C   5      16.712  19.564  90.6950  0.00  0.00     0.000 O
ATOM     83  HD  SGN C   5      15.876  19.430  90.5150  0.00  0.00     0.000 HD
BRANCH 76 85
ATOM     83   N  SGN C   5      14.758  20.996  91.8120  0.00  0.00     0.000 N
ATOM     85  HD  SGN C   5      13.920  21.202  91.7360  0.00  0.00     0.000 HD
ATOM     85   S  SGN C   5      13.339  21.148  92.5590  0.00  0.00     0.000 S
ATOM     86   O  SGN C   5      12.273  20.863  91.6620  0.00  0.00     0.000 OA
ATOM     87   O  SGN C   5      13.406  20.377  93.7480  0.00  0.00     0.000 OA
ATOM     88   O  SGN C   5      13.443  22.651  92.8080  0.00  0.00     0.000 OA
ENDBRANCH 76 85
BRANCH 79 89
ATOM     89   C  SGN C   5      20.287  22.063  93.0520  0.00  0.00     0.000 C
ATOM     90   O  SGN C   5      20.221  23.468  92.7060  0.00  0.00     0.000 O
ATOM     91   S  SGN C   5      21.345  24.420  93.3440  0.00  0.00     0.000 S
ATOM     92   O  SGN C   5      21.320  24.182  94.7640  0.00  0.00     0.000 OA
ATOM     93   O  SGN C   5      22.602  24.052  92.7460  0.00  0.00     0.000 OA
ATOM     94   O  SGN C   5      20.907  25.740  92.9780  0.00  0.00     0.000 OA
ENDBRANCH 79 89
BRANCH 75 95
ATOM     95  O4  BDP C   6      16.669  21.187  94.5810  0.00  0.00     0.000 O
BRANCH 95 99
ATOM     96  C1  BDP C   6      16.103  21.814  98.7920  0.00  0.00     0.000 C
ATOM     97  C2  BDP C   6      15.178  22.504  97.8290  0.00  0.00     0.000 C
ATOM     98  C3  BDP C   6      15.206  21.932  96.4040  0.00  0.00     0.000 C
ATOM     99  C4  BDP C   6      16.633  21.773  95.9000  0.00  0.00     0.000 C
ATOM    100  C5  BDP C   6      17.441  21.019  96.9830  0.00  0.00     0.000 C
ATOM    101  O5  BDP C   6      17.352  21.880  98.1290  0.00  0.00     0.000 O
BRANCH 100 102
ATOM    102   C  BDP C   6      18.898  20.872  96.6240  0.00  0.00     0.000 C
ATOM    103   O  BDP C   6      19.402  19.776  96.3400  0.00  0.00     0.000 OA
ATOM    104   O  BDP C   6      19.577  21.905  96.6120  0.00  0.00     0.000 OA
ENDBRANCH 100 102
ENDBRANCH 95 99
ENDBRANCH 75 95
ENDBRANCH 74 78
ENDBRANCH 58 74
ENDBRANCH 57 61
ENDBRANCH 37 57
ENDBRANCH 36 40
ENDBRANCH 23 36
ENDBRANCH 22 26
ENDBRANCH 1 22
TORSDOF 20
ENDMDL
MODEL 28
REMARK VINA RESULT:      -0.4     98.189    104.205
ROOT
ATOM      1  C1  NGY C   1      63.435  64.798 116.8800  0.00  0.00     0.000 C
ATOM      2  C2  NGY C   1      63.852  64.429 118.2970  0.00  0.00     0.000 C
ATOM      3  C3  NGY C   1      65.260  63.843 118.2980  0.00  0.00     0.000 C
ATOM      4  C4  NGY C   1      65.292  62.682 117.3220  0.00  0.00     0.000 C
ATOM      5  C5  NGY C   1      64.937  63.201 115.9310  0.00  0.00     0.000 C
ATOM      6  O5  NGY C   1      63.585  63.726 115.9730  0.00  0.00     0.000 O
ATOM      7   O  NGY C   1      65.597  63.440 119.6170  0.00  0.00     0.000 O
ATOM      9  HD  NGY C   1      65.194  63.090 120.2990  0.00  0.00     0.000 HD
ATOM      9   O  NGY C   1      66.574  62.070 117.3020  0.00  0.00     0.000 O
ATOM     11  HD  NGY C   1      66.171  61.720 117.9840  0.00  0.00     0.000 HD
ENDROOT
BRANCH 2 13
ATOM     11   N  NGY C   1      63.505  65.618 119.0390  0.00  0.00     0.000 N
ATOM     13  HD  NGY C   1      63.357  65.256 119.8110  0.00  0.00     0.000 HD
ATOM     13   C  NGY C   1      63.181  65.566 120.3300  0.00  0.00     0.000 C
ATOM     14   O  NGY C   1      63.025  64.487 120.9040  0.00  0.00     0.000 OA
ATOM     15   C  NGY C   1      63.045  66.877 121.0430  0.00  0.00     0.000 C
ENDBRANCH 2 13
BRANCH 5 16
ATOM     16   C  NGY C   1      64.936  62.170 114.8490  0.00  0.00     0.000 C
ATOM     17   O  NGY C   1      67.749  61.591 112.5660  0.00  0.00     0.000 OA
ATOM     18   O  NGY C   1      66.089  62.366 114.0250  0.00  0.00     0.000 O
ATOM     19   S  NGY C   1      66.502  61.142 113.1300  0.00  0.00     0.000 S
ATOM     20   O  NGY C   1      65.476  60.979 112.1340  0.00  0.00     0.000 OA
ATOM     21   O  NGY C   1      66.594  60.026 114.0570  0.00  0.00     0.000 OA
ENDBRANCH 5 16
BRANCH 1 22
ATOM     22  O4  BDP C   2      64.116  65.899 116.4990  0.00  0.00     0.000 O
BRANCH 22 26
ATOM     23  C1  BDP C   2      64.374  69.442 114.4150  0.00  0.00     0.000 C
ATOM     24  C2  BDP C   2      63.201  69.328 115.3590  0.00  0.00     0.000 C
ATOM     25  C3  BDP C   2      63.423  68.177 116.3050  0.00  0.00     0.000 C
ATOM     26  C4  BDP C   2      63.730  66.903 115.5240  0.00  0.00     0.000 C
ATOM     27  C5  BDP C   2      64.806  67.182 114.4820  0.00  0.00     0.000 C
ATOM     28  O5  BDP C   2      64.443  68.255 113.5750  0.00  0.00     0.000 O
ATOM     29   O  BDP C   2      63.087  70.457 116.2250  0.00  0.00     0.000 O
ATOM     31  HD  BDP C   2      62.813  70.301 117.0310  0.00  0.00     0.000 HD
ATOM     31   O  BDP C   2      62.222  68.016 117.0490  0.00  0.00     0.000 O
ATOM     33  HD  BDP C   2      61.948  67.859 117.8560  0.00  0.00     0.000 HD
BRANCH 27 33
ATOM     33   C  BDP C   2      65.087  65.984 113.6070  0.00  0.00     0.000 C
ATOM     34   O  BDP C   2      64.168  65.329 113.0590  0.00  0.00     0.000 OA
ATOM     35   O  BDP C   2      66.246  65.630 113.4640  0.00  0.00     0.000 OA
ENDBRANCH 27 33
BRANCH 23 36
ATOM     36  O4  SGN C   3      64.357  70.521 113.5970  0.00  0.00     0.000 O
BRANCH 36 40
ATOM     37  C1  SGN C   3      66.686  73.369 111.6240  0.00  0.00     0.000 C
ATOM     38  C2  SGN C   3      66.506  72.000 110.9470  0.00  0.00     0.000 C
ATOM     39  C3  SGN C   3      65.317  71.263 111.5450  0.00  0.00     0.000 C
ATOM     40  C4  SGN C   3      65.517  71.146 113.0410  0.00  0.00     0.000 C
ATOM     41  C5  SGN C   3      65.708  72.531 113.6180  0.00  0.00     0.000 C
ATOM     42  O5  SGN C   3      66.854  73.153 113.0160  0.00  0.00     0.000 O
ATOM     43   O  SGN C   3      65.210  69.979 110.9430  0.00  0.00     0.000 O
ATOM     45  HD  SGN C   3      64.877  69.959 111.7420  0.00  0.00     0.000 HD
BRANCH 38 47
ATOM     45   N  SGN C   3      67.715  72.525 110.2870  0.00  0.00     0.000 N
ATOM     47  HD  SGN C   3      67.326  72.259 111.0140  0.00  0.00     0.000 HD
ATOM     47   S  SGN C   3      67.631  72.406 108.7050  0.00  0.00     0.000 S
ATOM     48   O  SGN C   3      67.628  71.049 108.2860  0.00  0.00     0.000 OA
ATOM     49   O  SGN C   3      66.523  73.206 108.2930  0.00  0.00     0.000 OA
ATOM     50   O  SGN C   3      68.903  72.997 108.2940  0.00  0.00     0.000 OA
ENDBRANCH 38 47
BRANCH 41 51
ATOM     51   C  SGN C   3      65.914  72.554 115.1080  0.00  0.00     0.000 C
ATOM     52   O  SGN C   3      63.638  74.002 117.6770  0.00  0.00     0.000 OA
ATOM     53   O  SGN C   3      65.063  72.084 117.8110  0.00  0.00     0.000 OA
ATOM     54   O  SGN C   3      65.999  74.278 117.5410  0.00  0.00     0.000 OA
ATOM     55   O  SGN C   3      64.790  73.152 115.7140  0.00  0.00     0.000 O
ATOM     56   S  SGN C   3      64.883  73.403 117.3380  0.00  0.00     0.000 S
ENDBRANCH 41 51
BRANCH 37 57
ATOM     57  O4  IDS C   4      65.650  74.226 111.4500  0.00  0.00     0.000 O
BRANCH 57 61
ATOM     58  C1  IDS C   4      64.008  77.439 110.2450  0.00  0.00     0.000 C
ATOM     59  C2  IDS C   4      64.761  76.604 109.2590  0.00  0.00     0.000 C
ATOM     60  C3  IDS C   4      66.052  76.021 109.8400  0.00  0.00     0.000 C
ATOM     61  C4  IDS C   4      66.015  75.612 111.3060  0.00  0.00     0.000 C
ATOM     62  C5  IDS C   4      65.062  76.515 112.0980  0.00  0.00     0.000 C
ATOM     63  O5  IDS C   4      63.820  76.685 111.4300  0.00  0.00     0.000 O
ATOM     64   O  IDS C   4      67.022  77.040 109.6850  0.00  0.00     0.000 O
ATOM     66  HD  IDS C   4      67.268  77.343 110.4580  0.00  0.00     0.000 HD
BRANCH 59 66
ATOM     66   O  IDS C   4      63.957  75.457 108.7940  0.00  0.00     0.000 O
ATOM     67   S  IDS C   4      63.495  75.485 107.2710  0.00  0.00     0.000 S
ATOM     68   O  IDS C   4      64.741  75.402 106.5480  0.00  0.00     0.000 OA
ATOM     69   O  IDS C   4      62.626  74.334 107.1250  0.00  0.00     0.000 OA
ATOM     70   O  IDS C   4      62.828  76.758 107.0470  0.00  0.00     0.000 OA
ENDBRANCH 59 66
BRANCH 62 71
ATOM     71   C  IDS C   4      64.718  75.960 113.4670  0.00  0.00     0.000 C
ATOM     72   O  IDS C   4      63.598  75.543 113.6920  0.00  0.00     0.000 OA
ATOM     73   O  IDS C   4      65.572  76.040 114.3720  0.00  0.00     0.000 OA
ENDBRANCH 62 71
BRANCH 58 74
ATOM     74  O4  SGN C   5      64.425  78.734 110.3390  0.00  0.00     0.000 O
BRANCH 74 78
ATOM     75  C1  SGN C   5      63.268  82.726 110.7510  0.00  0.00     0.000 C
ATOM     76  C2  SGN C   5      63.426  81.929 112.0600  0.00  0.00     0.000 C
ATOM     77  C3  SGN C   5      64.171  80.612 111.8070  0.00  0.00     0.000 C
ATOM     78  C4  SGN C   5      63.595  79.862 110.6150  0.00  0.00     0.000 C
ATOM     79  C5  SGN C   5      63.536  80.790 109.4110  0.00  0.00     0.000 C
ATOM     80  O5  SGN C   5      62.694  81.932 109.7200  0.00  0.00     0.000 O
ATOM     81   O  SGN C   5      64.104  79.811 112.9820  0.00  0.00     0.000 O
ATOM     83  HD  SGN C   5      64.145  80.160 113.7740  0.00  0.00     0.000 HD
BRANCH 76 85
ATOM     83   N  SGN C   5      62.948  83.068 112.8540  0.00  0.00     0.000 N
ATOM     85  HD  SGN C   5      63.072  83.811 113.2810  0.00  0.00     0.000 HD
ATOM     85   S  SGN C   5      63.633  83.792 114.1190  0.00  0.00     0.000 S
ATOM     86   O  SGN C   5      62.840  84.889 114.5540  0.00  0.00     0.000 OA
ATOM     87   O  SGN C   5      63.918  82.783 115.0760  0.00  0.00     0.000 OA
ATOM     88   O  SGN C   5      64.873  84.285 113.3770  0.00  0.00     0.000 OA
ENDBRANCH 76 85
BRANCH 79 89
ATOM     89   C  SGN C   5      62.996  80.125 108.1610  0.00  0.00     0.000 C
ATOM     90   O  SGN C   5      63.033  81.059 107.0540  0.00  0.00     0.000 O
ATOM     91   S  SGN C   5      63.263  80.436 105.5930  0.00  0.00     0.000 S
ATOM     92   O  SGN C   5      64.441  79.613 105.6830  0.00  0.00     0.000 OA
ATOM     93   O  SGN C   5      62.084  79.675 105.2670  0.00  0.00     0.000 OA
ATOM     94   O  SGN C   5      63.438  81.596 104.7630  0.00  0.00     0.000 OA
ENDBRANCH 79 89
BRANCH 75 95
ATOM     95  O4  BDP C   6      64.530  83.103 110.3910  0.00  0.00     0.000 O
BRANCH 95 99
ATOM     96  C1  BDP C   6      65.777  86.445 107.9980  0.00  0.00     0.000 C
ATOM     97  C2  BDP C   6      64.472  86.534 108.7380  0.00  0.00     0.000 C
ATOM     98  C3  BDP C   6      64.297  85.483 109.8450  0.00  0.00     0.000 C
ATOM     99  C4  BDP C   6      64.641  84.089 109.3410  0.00  0.00     0.000 C
ATOM    100  C5  BDP C   6      66.018  84.159 108.6410  0.00  0.00     0.000 C
ATOM    101  O5  BDP C   6      65.805  85.096 107.5720  0.00  0.00     0.000 O
BRANCH 100 102
ATOM    102   C  BDP C   6      66.428  82.843 108.0310  0.00  0.00     0.000 C
ATOM    103   O  BDP C   6      66.007  82.465 106.9280  0.00  0.00     0.000 OA
ATOM    104   O  BDP C   6      67.223  82.151 108.6770  0.00  0.00     0.000 OA
ENDBRANCH 100 102
ENDBRANCH 95 99
ENDBRANCH 75 95
ENDBRANCH 74 78
ENDBRANCH 58 74
ENDBRANCH 57 61
ENDBRANCH 37 57
ENDBRANCH 36 40
ENDBRANCH 23 36
ENDBRANCH 22 26
ENDBRANCH 1 22
TORSDOF 20
ENDMDL
MODEL 29
REMARK VINA RESULT:      -0.4     98.109    105.753
ROOT
ATOM      1  C1  NGY C   1      63.435  64.798 116.8800  0.00  0.00     0.000 C
ATOM      2  C2  NGY C   1      63.692  64.215 118.2620  0.00  0.00     0.000 C
ATOM      3  C3  NGY C   1      65.022  63.468 118.2820  0.00  0.00     0.000 C
ATOM      4  C4  NGY C   1      65.004  62.436 117.1700  0.00  0.00     0.000 C
ATOM      5  C5  NGY C   1      64.822  63.157 115.8370  0.00  0.00     0.000 C
ATOM      6  O5  NGY C   1      63.538  63.832 115.8560  0.00  0.00     0.000 O
ATOM      7   O  NGY C   1      65.204  62.873 119.5580  0.00  0.00     0.000 O
ATOM      9  HD  NGY C   1      64.711  62.495 120.1620  0.00  0.00     0.000 HD
ATOM      9   O  NGY C   1      66.206  61.681 117.1570  0.00  0.00     0.000 O
ATOM     11  HD  NGY C   1      65.713  61.304 117.7600  0.00  0.00     0.000 HD
ENDROOT
BRANCH 2 13
ATOM     11   N  NGY C   1      63.421  65.341 119.1260  0.00  0.00     0.000 N
ATOM     13  HD  NGY C   1      63.172  64.910 119.8340  0.00  0.00     0.000 HD
ATOM     13   C  NGY C   1      62.990  65.174 120.3750  0.00  0.00     0.000 C
ATOM     14   O  NGY C   1      62.670  64.061 120.7960  0.00  0.00     0.000 OA
ATOM     15   C  NGY C   1      62.944  66.398 121.2390  0.00  0.00     0.000 C
ENDBRANCH 2 13
BRANCH 5 16
ATOM     16   C  NGY C   1      64.794  62.269 114.6340  0.00  0.00     0.000 C
ATOM     17   O  NGY C   1      67.700  61.633 112.4870  0.00  0.00     0.000 OA
ATOM     18   O  NGY C   1      66.024  62.422 113.9200  0.00  0.00     0.000 O
ATOM     19   S  NGY C   1      66.369  61.273 112.9060  0.00  0.00     0.000 S
ATOM     20   O  NGY C   1      65.415  61.354 111.8310  0.00  0.00     0.000 OA
ATOM     21   O  NGY C   1      66.261  60.051 113.6860  0.00  0.00     0.000 OA
ENDBRANCH 5 16
BRANCH 1 22
ATOM     22  O4  BDP C   2      64.263  65.847 116.6890  0.00  0.00     0.000 O
BRANCH 22 26
ATOM     23  C1  BDP C   2      65.081  69.556 115.0960  0.00  0.00     0.000 C
ATOM     24  C2  BDP C   2      63.830  69.472 115.9380  0.00  0.00     0.000 C
ATOM     25  C3  BDP C   2      63.845  68.198 116.7420  0.00  0.00     0.000 C
ATOM     26  C4  BDP C   2      64.071  66.999 115.8270  0.00  0.00     0.000 C
ATOM     27  C5  BDP C   2      65.251  67.269 114.9030  0.00  0.00     0.000 C
ATOM     28  O5  BDP C   2      65.085  68.478 114.1180  0.00  0.00     0.000 O
ATOM     29   O  BDP C   2      63.772  70.495 116.9320  0.00  0.00     0.000 O
ATOM     31  HD  BDP C   2      63.418  70.278 117.6920  0.00  0.00     0.000 HD
ATOM     31   O  BDP C   2      62.578  68.095 117.3790  0.00  0.00     0.000 O
ATOM     33  HD  BDP C   2      62.224  67.878 118.1390  0.00  0.00     0.000 HD
BRANCH 27 33
ATOM     33   C  BDP C   2      65.468  66.158 113.9030  0.00  0.00     0.000 C
ATOM     34   O  BDP C   2      64.529  65.689 113.2160  0.00  0.00     0.000 OA
ATOM     35   O  BDP C   2      66.587  65.687 113.7920  0.00  0.00     0.000 OA
ENDBRANCH 27 33
BRANCH 23 36
ATOM     36  O4  SGN C   3      65.250  70.718 114.4240  0.00  0.00     0.000 O
BRANCH 36 40
ATOM     37  C1  SGN C   3      68.032  73.480 112.9890  0.00  0.00     0.000 C
ATOM     38  C2  SGN C   3      67.756  72.234 112.1330  0.00  0.00     0.000 C
ATOM     39  C3  SGN C   3      66.448  71.579 112.5520  0.00  0.00     0.000 C
ATOM     40  C4  SGN C   3      66.513  71.261 114.0300  0.00  0.00     0.000 C
ATOM     41  C5  SGN C   3      66.810  72.535 114.7910  0.00  0.00     0.000 C
ATOM     42  O5  SGN C   3      68.063  73.081 114.3510  0.00  0.00     0.000 O
ATOM     43   O  SGN C   3      66.248  70.398 111.7850  0.00  0.00     0.000 O
ATOM     45  HD  SGN C   3      65.851  70.323 112.5510  0.00  0.00     0.000 HD
BRANCH 38 47
ATOM     45   N  SGN C   3      69.065  72.684 111.6270  0.00  0.00     0.000 N
ATOM     47  HD  SGN C   3      68.592  72.382 112.2870  0.00  0.00     0.000 HD
ATOM     47   S  SGN C   3      69.097  72.766 110.0400  0.00  0.00     0.000 S
ATOM     48   O  SGN C   3      68.977  71.479 109.4530  0.00  0.00     0.000 OA
ATOM     49   O  SGN C   3      68.122  73.736 109.6620  0.00  0.00     0.000 OA
ATOM     50   O  SGN C   3      70.456  73.244 109.7940  0.00  0.00     0.000 OA
ENDBRANCH 38 47
BRANCH 41 51
ATOM     51   C  SGN C   3      66.896  72.355 116.2820  0.00  0.00     0.000 C
ATOM     52   O  SGN C   3      64.595  73.750 118.8580  0.00  0.00     0.000 OA
ATOM     53   O  SGN C   3      65.782  71.671 118.8410  0.00  0.00     0.000 OA
ATOM     54   O  SGN C   3      66.976  73.753 118.9160  0.00  0.00     0.000 OA
ATOM     55   O  SGN C   3      65.800  73.007 116.8840  0.00  0.00     0.000 O
ATOM     56   S  SGN C   3      65.789  73.049 118.5290  0.00  0.00     0.000 S
ENDBRANCH 41 51
BRANCH 37 57
ATOM     57  O4  IDS C   4      67.116  74.471 112.8590  0.00  0.00     0.000 O
BRANCH 57 61
ATOM     58  C1  IDS C   4      65.944  77.979 111.9680  0.00  0.00     0.000 C
ATOM     59  C2  IDS C   4      66.676  77.182 110.9350  0.00  0.00     0.000 C
ATOM     60  C3  IDS C   4      67.843  76.383 111.5210  0.00  0.00     0.000 C
ATOM     61  C4  IDS C   4      67.643  75.810 112.9170  0.00  0.00     0.000 C
ATOM     62  C5  IDS C   4      66.735  76.720 113.7530  0.00  0.00     0.000 C
ATOM     63  O5  IDS C   4      65.578  77.116 113.0320  0.00  0.00     0.000 O
ATOM     64   O  IDS C   4      68.930  77.289 111.5630  0.00  0.00     0.000 O
ATOM     66  HD  IDS C   4      69.145  77.466 112.3830  0.00  0.00     0.000 HD
BRANCH 59 66
ATOM     66   O  IDS C   4      65.790  76.205 110.2750  0.00  0.00     0.000 O
ATOM     67   S  IDS C   4      65.458  76.469 108.7410  0.00  0.00     0.000 S
ATOM     68   O  IDS C   4      66.741  76.323 108.0980  0.00  0.00     0.000 OA
ATOM     69   O  IDS C   4      64.481  75.456 108.3920  0.00  0.00     0.000 OA
ATOM     70   O  IDS C   4      64.957  77.830 108.6380  0.00  0.00     0.000 OA
ENDBRANCH 59 66
BRANCH 62 71
ATOM     71   C  IDS C   4      66.222  76.051 115.0140  0.00  0.00     0.000 C
ATOM     72   O  IDS C   4      65.049  75.748 115.1100  0.00  0.00     0.000 OA
ATOM     73   O  IDS C   4      67.004  75.920 115.9770  0.00  0.00     0.000 OA
ENDBRANCH 62 71
BRANCH 58 74
ATOM     74  O4  SGN C   5      66.493  79.193 112.2540  0.00  0.00     0.000 O
BRANCH 74 78
ATOM     75  C1  SGN C   5      65.757  83.217 113.0950  0.00  0.00     0.000 C
ATOM     76  C2  SGN C   5      65.719  82.257 114.3000  0.00  0.00     0.000 C
ATOM     77  C3  SGN C   5      66.332  80.900 113.9300  0.00  0.00     0.000 C
ATOM     78  C4  SGN C   5      65.774  80.372 112.6160  0.00  0.00     0.000 C
ATOM     79  C5  SGN C   5      65.916  81.437 111.5400  0.00  0.00     0.000 C
ATOM     80  O5  SGN C   5      65.184  82.628 111.9360  0.00  0.00     0.000 O
ATOM     81   O  SGN C   5      66.082  79.978 114.9860  0.00  0.00     0.000 O
ATOM     83  HD  SGN C   5      66.097  80.223 115.8170  0.00  0.00     0.000 HD
BRANCH 76 85
ATOM     83   N  SGN C   5      65.309  83.343 115.1990  0.00  0.00     0.000 N
ATOM     85  HD  SGN C   5      65.480  84.009 115.7250  0.00  0.00     0.000 HD
ATOM     85   S  SGN C   5      65.966  83.823 116.5890  0.00  0.00     0.000 S
ATOM     86   O  SGN C   5      65.268  84.948 117.1070  0.00  0.00     0.000 OA
ATOM     87   O  SGN C   5      66.059  82.680 117.4250  0.00  0.00     0.000 OA
ATOM     88   O  SGN C   5      67.309  84.248 115.9990  0.00  0.00     0.000 OA
ENDBRANCH 76 85
BRANCH 79 89
ATOM     89   C  SGN C   5      65.408  80.996 110.1820  0.00  0.00     0.000 C
ATOM     90   O  SGN C   5      65.638  82.044 109.2080  0.00  0.00     0.000 O
ATOM     91   S  SGN C   5      65.914  81.576 107.6980  0.00  0.00     0.000 S
ATOM     92   O  SGN C   5      66.982  80.613 107.7600  0.00  0.00     0.000 OA
ATOM     93   O  SGN C   5      64.688  81.008 107.2000  0.00  0.00     0.000 OA
ATOM     94   O  SGN C   5      66.283  82.798 107.0360  0.00  0.00     0.000 OA
ENDBRANCH 79 89
BRANCH 75 95
ATOM     95  O4  BDP C   6      67.079  83.481 112.8710  0.00  0.00     0.000 O
BRANCH 95 99
ATOM     96  C1  BDP C   6      68.878  86.909 111.0130  0.00  0.00     0.000 C
ATOM     97  C2  BDP C   6      67.536  87.066 111.6700  0.00  0.00     0.000 C
ATOM     98  C3  BDP C   6      67.157  85.919 112.6190  0.00  0.00     0.000 C
ATOM     99  C4  BDP C   6      67.383  84.564 111.9660  0.00  0.00     0.000 C
ATOM    100  C5  BDP C   6      68.812  84.551 111.3730  0.00  0.00     0.000 C
ATOM    101  O5  BDP C   6      68.790  85.627 110.4210  0.00  0.00     0.000 O
BRANCH 100 102
ATOM    102   C  BDP C   6      69.120  83.277 110.6280  0.00  0.00     0.000 C
ATOM    103   O  BDP C   6      68.750  83.087 109.4600  0.00  0.00     0.000 OA
ATOM    104   O  BDP C   6      69.779  82.422 111.2320  0.00  0.00     0.000 OA
ENDBRANCH 100 102
ENDBRANCH 95 99
ENDBRANCH 75 95
ENDBRANCH 74 78
ENDBRANCH 58 74
ENDBRANCH 57 61
ENDBRANCH 37 57
ENDBRANCH 36 40
ENDBRANCH 23 36
ENDBRANCH 22 26
ENDBRANCH 1 22
TORSDOF 20
ENDMDL
MODEL 30
REMARK VINA RESULT:      -0.4     30.517     35.131
ROOT
ATOM      1  C1  NGY C   1      36.455  37.215  46.5510  0.00  0.00     0.000 C
ATOM      2  C2  NGY C   1      35.585  37.302  47.7970  0.00  0.00     0.000 C
ATOM      3  C3  NGY C   1      35.614  35.979  48.5550  0.00  0.00     0.000 C
ATOM      4  C4  NGY C   1      35.213  34.873  47.5980  0.00  0.00     0.000 C
ATOM      5  C5  NGY C   1      36.209  34.842  46.4410  0.00  0.00     0.000 C
ATOM      6  O5  NGY C   1      36.129  36.108  45.7380  0.00  0.00     0.000 O
ATOM      7   O  NGY C   1      34.741  36.061  49.6720  0.00  0.00     0.000 O
ATOM      9  HD  NGY C   1      33.976  36.424  49.8580  0.00  0.00     0.000 HD
ATOM      9   O  NGY C   1      35.189  33.615  48.2550  0.00  0.00     0.000 O
ATOM     11  HD  NGY C   1      34.425  33.978  48.4410  0.00  0.00     0.000 HD
ENDROOT
BRANCH 2 13
ATOM     11   N  NGY C   1      36.041  38.503  48.4580  0.00  0.00     0.000 N
ATOM     13  HD  NGY C   1      35.288  38.763  48.7980  0.00  0.00     0.000 HD
ATOM     13   C  NGY C   1      35.206  39.282  49.1440  0.00  0.00     0.000 C
ATOM     14   O  NGY C   1      33.989  39.086  49.1230  0.00  0.00     0.000 OA
ATOM     15   C  NGY C   1      35.823  40.379  49.9560  0.00  0.00     0.000 C
ENDBRANCH 2 13
BRANCH 5 16
ATOM     16   C  NGY C   1      35.951  33.790  45.4100  0.00  0.00     0.000 C
ATOM     17   O  NGY C   1      37.655  30.542  45.3250  0.00  0.00     0.000 OA
ATOM     18   O  NGY C   1      36.932  32.758  45.5500  0.00  0.00     0.000 O
ATOM     19   S  NGY C   1      36.574  31.384  44.8780  0.00  0.00     0.000 S
ATOM     20   O  NGY C   1      36.593  31.590  43.4540  0.00  0.00     0.000 OA
ATOM     21   O  NGY C   1      35.258  31.053  45.4000  0.00  0.00     0.000 OA
ENDBRANCH 5 16
BRANCH 1 22
ATOM     22  O4  BDP C   2      37.752  37.221  46.9240  0.00  0.00     0.000 O
BRANCH 22 26
ATOM     23  C1  BDP C   2      41.691  38.232  46.2720  0.00  0.00     0.000 C
ATOM     24  C2  BDP C   2      40.710  39.379  46.2260  0.00  0.00     0.000 C
ATOM     25  C3  BDP C   2      39.399  38.948  46.8310  0.00  0.00     0.000 C
ATOM     26  C4  BDP C   2      38.905  37.669  46.1640  0.00  0.00     0.000 C
ATOM     27  C5  BDP C   2      40.031  36.645  46.1100  0.00  0.00     0.000 C
ATOM     28  O5  BDP C   2      41.212  37.145  45.4310  0.00  0.00     0.000 O
ATOM     29   O  BDP C   2      41.115  40.475  47.0460  0.00  0.00     0.000 O
ATOM     31  HD  BDP C   2      40.484  40.911  47.4490  0.00  0.00     0.000 HD
ATOM     31   O  BDP C   2      38.474  40.004  46.6080  0.00  0.00     0.000 O
ATOM     33  HD  BDP C   2      37.843  40.441  47.0100  0.00  0.00     0.000 HD
BRANCH 27 33
ATOM     33   C  BDP C   2      39.635  35.388  45.3730  0.00  0.00     0.000 C
ATOM     34   O  BDP C   2      39.039  35.424  44.2700  0.00  0.00     0.000 OA
ATOM     35   O  BDP C   2      39.877  34.311  45.8910  0.00  0.00     0.000 OA
ENDBRANCH 27 33
BRANCH 23 36
ATOM     36  O4  SGN C   3      42.950  38.530  45.8760  0.00  0.00     0.000 O
BRANCH 36 40
ATOM     37  C1  SGN C   3      47.014  37.802  46.4980  0.00  0.00     0.000 C
ATOM     38  C2  SGN C   3      46.226  36.784  45.6570  0.00  0.00     0.000 C
ATOM     39  C3  SGN C   3      44.922  37.395  45.1660  0.00  0.00     0.000 C
ATOM     40  C4  SGN C   3      44.135  37.891  46.3590  0.00  0.00     0.000 C
ATOM     41  C5  SGN C   3      44.991  38.865  47.1380  0.00  0.00     0.000 C
ATOM     42  O5  SGN C   3      46.191  38.212  47.5790  0.00  0.00     0.000 O
ATOM     43   O  SGN C   3      44.188  36.414  44.4430  0.00  0.00     0.000 O
ATOM     45  HD  SGN C   3      43.645  36.991  44.7920  0.00  0.00     0.000 HD
BRANCH 38 47
ATOM     45   N  SGN C   3      47.417  36.024  46.0780  0.00  0.00     0.000 N
ATOM     47  HD  SGN C   3      46.699  36.454  46.3000  0.00  0.00     0.000 HD
ATOM     47   S  SGN C   3      48.091  35.250  44.8650  0.00  0.00     0.000 S
ATOM     48   O  SGN C   3      47.243  34.226  44.3680  0.00  0.00     0.000 OA
ATOM     49   O  SGN C   3      48.512  36.243  43.9300  0.00  0.00     0.000 OA
ATOM     50   O  SGN C   3      49.231  34.609  45.5180  0.00  0.00     0.000 OA
ENDBRANCH 38 47
BRANCH 41 51
ATOM     51   C  SGN C   3      44.318  39.439  48.3550  0.00  0.00     0.000 C
ATOM     52   O  SGN C   3      43.496  43.015  49.0020  0.00  0.00     0.000 OA
ATOM     53   O  SGN C   3      42.311  41.038  49.6490  0.00  0.00     0.000 OA
ATOM     54   O  SGN C   3      44.504  41.482  50.5210  0.00  0.00     0.000 OA
ATOM     55   O  SGN C   3      44.153  40.828  48.1720  0.00  0.00     0.000 O
ATOM     56   S  SGN C   3      43.561  41.668  49.4580  0.00  0.00     0.000 S
ENDBRANCH 41 51
BRANCH 37 57
ATOM     57  O4  IDS C   4      47.408  38.910  45.8220  0.00  0.00     0.000 O
BRANCH 57 61
ATOM     58  C1  IDS C   4      49.982  41.294  44.3520  0.00  0.00     0.000 C
ATOM     59  C2  IDS C   4      50.083  39.837  44.0250  0.00  0.00     0.000 C
ATOM     60  C3  IDS C   4      49.778  38.939  45.2270  0.00  0.00     0.000 C
ATOM     61  C4  IDS C   4      48.702  39.427  46.1860  0.00  0.00     0.000 C
ATOM     62  C5  IDS C   4      48.682  40.958  46.2480  0.00  0.00     0.000 C
ATOM     63  O5  IDS C   4      48.721  41.539  44.9530  0.00  0.00     0.000 O
ATOM     64   O  IDS C   4      50.998  38.842  45.9380  0.00  0.00     0.000 O
ATOM     66  HD  IDS C   4      50.933  39.236  46.7060  0.00  0.00     0.000 HD
BRANCH 59 66
ATOM     66   O  IDS C   4      49.133  39.452  42.9640  0.00  0.00     0.000 O
ATOM     67   S  IDS C   4      49.762  39.054  41.5580  0.00  0.00     0.000 S
ATOM     68   O  IDS C   4      50.510  37.857  41.8600  0.00  0.00     0.000 OA
ATOM     69   O  IDS C   4      48.623  38.858  40.6820  0.00  0.00     0.000 OA
ATOM     70   O  IDS C   4      50.634  40.145  41.1520  0.00  0.00     0.000 OA
ENDBRANCH 59 66
BRANCH 62 71
ATOM     71   C  IDS C   4      47.432  41.511  46.9060  0.00  0.00     0.000 C
ATOM     72   O  IDS C   4      46.626  42.142  46.2510  0.00  0.00     0.000 OA
ATOM     73   O  IDS C   4      47.310  41.392  48.1420  0.00  0.00     0.000 OA
ENDBRANCH 62 71
BRANCH 58 74
ATOM     74  O4  SGN C   5      51.102  41.837  44.9080  0.00  0.00     0.000 O
BRANCH 74 78
ATOM     75  C1  SGN C   5      53.642  45.147  45.0940  0.00  0.00     0.000 C
ATOM     76  C2  SGN C   5      52.284  45.297  45.8060  0.00  0.00     0.000 C
ATOM     77  C3  SGN C   5      51.601  43.932  45.9630  0.00  0.00     0.000 C
ATOM     78  C4  SGN C   5      51.607  43.149  44.6570  0.00  0.00     0.000 C
ATOM     79  C5  SGN C   5      53.026  43.081  44.1120  0.00  0.00     0.000 C
ATOM     80  O5  SGN C   5      53.519  44.426  43.8750  0.00  0.00     0.000 O
ATOM     81   O  SGN C   5      50.267  44.133  46.4190  0.00  0.00     0.000 O
ATOM     83  HD  SGN C   5      50.070  44.759  46.9850  0.00  0.00     0.000 HD
BRANCH 76 85
ATOM     83   N  SGN C   5      52.868  45.989  46.9620  0.00  0.00     0.000 N
ATOM     85  HD  SGN C   5      52.807  46.481  47.6720  0.00  0.00     0.000 HD
ATOM     85   S  SGN C   5      52.525  47.443  47.5630  0.00  0.00     0.000 S
ATOM     86   O  SGN C   5      53.305  47.698  48.7240  0.00  0.00     0.000 OA
ATOM     87   O  SGN C   5      52.633  48.373  46.4960  0.00  0.00     0.000 OA
ATOM     88   O  SGN C   5      51.080  47.129  47.9430  0.00  0.00     0.000 OA
ENDBRANCH 76 85
BRANCH 79 89
ATOM     89   C  SGN C   5      53.140  42.297  42.8210  0.00  0.00     0.000 C
ATOM     90   O  SGN C   5      53.237  43.210  41.7000  0.00  0.00     0.000 O
ATOM     91   S  SGN C   5      54.097  42.714  40.4390  0.00  0.00     0.000 S
ATOM     92   O  SGN C   5      55.378  42.308  40.9540  0.00  0.00     0.000 OA
ATOM     93   O  SGN C   5      53.374  41.623  39.8370  0.00  0.00     0.000 OA
ATOM     94   O  SGN C   5      54.160  43.883  39.6030  0.00  0.00     0.000 OA
ENDBRANCH 79 89
BRANCH 75 95
ATOM     95  O4  BDP C   6      54.441  44.454  45.9590  0.00  0.00     0.000 O
BRANCH 95 99
ATOM     96  C1  BDP C   6      58.688  44.529  46.5980  0.00  0.00     0.000 C
ATOM     97  C2  BDP C   6      57.966  45.831  46.3930  0.00  0.00     0.000 C
ATOM     98  C3  BDP C   6      56.441  45.743  46.5560  0.00  0.00     0.000 C
ATOM     99  C4  BDP C   6      55.868  44.575  45.7670  0.00  0.00     0.000 C
ATOM    100  C5  BDP C   6      56.692  43.313  46.1150  0.00  0.00     0.000 C
ATOM    101  O5  BDP C   6      58.024  43.657  45.7020  0.00  0.00     0.000 O
BRANCH 100 102
ATOM    102   C  BDP C   6      56.260  42.102  45.3270  0.00  0.00     0.000 C
ATOM    103   O  BDP C   6      55.661  41.151  45.8510  0.00  0.00     0.000 OA
ATOM    104   O  BDP C   6      56.521  42.099  44.1190  0.00  0.00     0.000 OA
ENDBRANCH 100 102
ENDBRANCH 95 99
ENDBRANCH 75 95
ENDBRANCH 74 78
ENDBRANCH 58 74
ENDBRANCH 57 61
ENDBRANCH 37 57
ENDBRANCH 36 40
ENDBRANCH 23 36
ENDBRANCH 22 26
ENDBRANCH 1 22
TORSDOF 20
ENDMDL
MODEL 31
REMARK VINA RESULT:      -0.4     65.106     73.424
ROOT
ATOM      1  C1  NGY C   1      53.271  54.475  75.6400  0.00  0.00     0.000 C
ATOM      2  C2  NGY C   1      53.125  54.584  74.1290  0.00  0.00     0.000 C
ATOM      3  C3  NGY C   1      51.695  54.971  73.7630  0.00  0.00     0.000 C
ATOM      4  C4  NGY C   1      50.752  53.971  74.4050  0.00  0.00     0.000 C
ATOM      5  C5  NGY C   1      50.943  54.021  75.9190  0.00  0.00     0.000 C
ATOM      6  O5  NGY C   1      52.305  53.623  76.2190  0.00  0.00     0.000 O
ATOM      7   O  NGY C   1      51.565  54.996  72.3490  0.00  0.00     0.000 O
ATOM      9  HD  NGY C   1      51.869  54.548  71.6730  0.00  0.00     0.000 HD
ATOM      9   O  NGY C   1      49.402  54.260  74.0730  0.00  0.00     0.000 O
ATOM     11  HD  NGY C   1      49.706  53.812  73.3970  0.00  0.00     0.000 HD
ENDROOT
BRANCH 2 13
ATOM     11   N  NGY C   1      54.200  55.459  73.7250  0.00  0.00     0.000 N
ATOM     13  HD  NGY C   1      54.390  55.096  72.9620  0.00  0.00     0.000 HD
ATOM     13   C  NGY C   1      54.841  55.291  72.5690  0.00  0.00     0.000 C
ATOM     14   O  NGY C   1      54.638  54.299  71.8670  0.00  0.00     0.000 OA
ATOM     15   C  NGY C   1      55.790  56.377  72.1620  0.00  0.00     0.000 C
ENDBRANCH 2 13
BRANCH 5 16
ATOM     16   C  NGY C   1      50.069  53.092  76.6990  0.00  0.00     0.000 C
ATOM     17   O  NGY C   1      46.929  54.095  78.3080  0.00  0.00     0.000 OA
ATOM     18   O  NGY C   1      49.057  53.857  77.3580  0.00  0.00     0.000 O
ATOM     19   S  NGY C   1      47.803  53.046  77.8480  0.00  0.00     0.000 S
ATOM     20   O  NGY C   1      48.242  52.190  78.9190  0.00  0.00     0.000 OA
ATOM     21   O  NGY C   1      47.354  52.320  76.6720  0.00  0.00     0.000 OA
ENDBRANCH 5 16
BRANCH 1 22
ATOM     22  O4  BDP C   2      53.254  55.716  76.1690  0.00  0.00     0.000 O
BRANCH 22 26
ATOM     23  C1  BDP C   2      54.473  58.434  79.0130  0.00  0.00     0.000 C
ATOM     24  C2  BDP C   2      55.581  57.665  78.3320  0.00  0.00     0.000 C
ATOM     25  C3  BDP C   2      55.045  56.998  77.0920  0.00  0.00     0.000 C
ATOM     26  C4  BDP C   2      53.814  56.164  77.4320  0.00  0.00     0.000 C
ATOM     27  C5  BDP C   2      52.844  56.989  78.2680  0.00  0.00     0.000 C
ATOM     28  O5  BDP C   2      53.451  57.509  79.4790  0.00  0.00     0.000 O
ATOM     29   O  BDP C   2      56.611  58.520  77.8360  0.00  0.00     0.000 O
ATOM     31  HD  BDP C   2      56.984  58.284  77.0900  0.00  0.00     0.000 HD
ATOM     31   O  BDP C   2      56.080  56.161  76.5930  0.00  0.00     0.000 O
ATOM     33  HD  BDP C   2      56.453  55.926  75.8470  0.00  0.00     0.000 HD
BRANCH 27 33
ATOM     33   C  BDP C   2      51.647  56.189  78.7200  0.00  0.00     0.000 C
ATOM     34   O  BDP C   2      50.472  56.594  78.5490  0.00  0.00     0.000 OA
ATOM     35   O  BDP C   2      51.840  55.133  79.3000  0.00  0.00     0.000 OA
ENDBRANCH 27 33
BRANCH 23 36
ATOM     36  O4  SGN C   3      54.856  59.187  80.0700  0.00  0.00     0.000 O
BRANCH 36 40
ATOM     37  C1  SGN C   3      54.144  62.694  82.2210  0.00  0.00     0.000 C
ATOM     38  C2  SGN C   3      53.285  61.463  82.5560  0.00  0.00     0.000 C
ATOM     39  C3  SGN C   3      53.940  60.196  82.0260  0.00  0.00     0.000 C
ATOM     40  C4  SGN C   3      54.171  60.352  80.5380  0.00  0.00     0.000 C
ATOM     41  C5  SGN C   3      55.001  61.594  80.3000  0.00  0.00     0.000 C
ATOM     42  O5  SGN C   3      54.310  62.744  80.8130  0.00  0.00     0.000 O
ATOM     43   O  SGN C   3      53.097  59.084  82.2970  0.00  0.00     0.000 O
ATOM     45  HD  SGN C   3      53.579  58.925  81.5960  0.00  0.00     0.000 HD
BRANCH 38 47
ATOM     45   N  SGN C   3      52.483  62.578  83.0920  0.00  0.00     0.000 N
ATOM     47  HD  SGN C   3      52.841  62.188  82.4060  0.00  0.00     0.000 HD
ATOM     47   S  SGN C   3      51.992  62.300  84.5780  0.00  0.00     0.000 S
ATOM     48   O  SGN C   3      51.071  61.219  84.6260  0.00  0.00     0.000 OA
ATOM     49   O  SGN C   3      53.165  62.177  85.3800  0.00  0.00     0.000 OA
ATOM     50   O  SGN C   3      51.257  63.526  84.8820  0.00  0.00     0.000 OA
ENDBRANCH 38 47
BRANCH 41 51
ATOM     51   C  SGN C   3      55.307  61.862  78.8520  0.00  0.00     0.000 C
ATOM     52   O  SGN C   3      58.643  61.766  77.1960  0.00  0.00     0.000 OA
ATOM     53   O  SGN C   3      56.491  61.182  76.3240  0.00  0.00     0.000 OA
ATOM     54   O  SGN C   3      56.975  63.448  76.9540  0.00  0.00     0.000 OA
ATOM     55   O  SGN C   3      56.687  61.670  78.6350  0.00  0.00     0.000 O
ATOM     56   S  SGN C   3      57.250  62.054  77.1370  0.00  0.00     0.000 S
ENDBRANCH 41 51
BRANCH 37 57
ATOM     57  O4  IDS C   4      55.373  62.699  82.7940  0.00  0.00     0.000 O
BRANCH 57 61
ATOM     58  C1  IDS C   4      58.093  64.069  85.0730  0.00  0.00     0.000 C
ATOM     59  C2  IDS C   4      56.735  63.814  85.6470  0.00  0.00     0.000 C
ATOM     60  C3  IDS C   4      55.605  64.216  84.6960  0.00  0.00     0.000 C
ATOM     61  C4  IDS C   4      55.853  63.991  83.2110  0.00  0.00     0.000 C
ATOM     62  C5  IDS C   4      57.340  64.157  82.8770  0.00  0.00     0.000 C
ATOM     63  O5  IDS C   4      58.168  63.458  83.7960  0.00  0.00     0.000 O
ATOM     64   O  IDS C   4      55.413  65.602  84.9100  0.00  0.00     0.000 O
ATOM     66  HD  IDS C   4      55.644  66.052  84.2080  0.00  0.00     0.000 HD
BRANCH 59 66
ATOM     66   O  IDS C   4      56.535  62.385  85.9540  0.00  0.00     0.000 O
ATOM     67   S  IDS C   4      56.483  61.990  87.4950  0.00  0.00     0.000 S
ATOM     68   O  IDS C   4      55.293  62.657  87.9650  0.00  0.00     0.000 OA
ATOM     69   O  IDS C   4      56.417  60.542  87.5060  0.00  0.00     0.000 OA
ATOM     70   O  IDS C   4      57.682  62.528  88.1180  0.00  0.00     0.000 OA
ENDBRANCH 59 66
BRANCH 62 71
ATOM     71   C  IDS C   4      57.706  63.618  81.5070  0.00  0.00     0.000 C
ATOM     72   O  IDS C   4      58.396  62.622  81.4070  0.00  0.00     0.000 OA
ATOM     73   O  IDS C   4      57.370  64.276  80.5010  0.00  0.00     0.000 OA
ENDBRANCH 62 71
BRANCH 58 74
ATOM     74  O4  SGN C   5      58.555  65.341  85.2310  0.00  0.00     0.000 O
BRANCH 74 78
ATOM     75  C1  SGN C   5      61.843  67.774  86.0780  0.00  0.00     0.000 C
ATOM     76  C2  SGN C   5      61.881  67.033  84.7290  0.00  0.00     0.000 C
ATOM     77  C3  SGN C   5      60.499  66.461  84.3840  0.00  0.00     0.000 C
ATOM     78  C4  SGN C   5      59.894  65.709  85.5620  0.00  0.00     0.000 C
ATOM     79  C5  SGN C   5      59.916  66.598  86.7970  0.00  0.00     0.000 C
ATOM     80  O5  SGN C   5      61.286  66.965  87.1060  0.00  0.00     0.000 O
ATOM     81   O  SGN C   5      60.622  65.604  83.2540  0.00  0.00     0.000 O
ATOM     83  HD  SGN C   5      61.165  65.785  82.6040  0.00  0.00     0.000 HD
BRANCH 76 85
ATOM     83   N  SGN C   5      63.175  67.688  84.5040  0.00  0.00     0.000 N
ATOM     85  HD  SGN C   5      63.672  68.306  84.1550  0.00  0.00     0.000 HD
ATOM     85   S  SGN C   5      63.781  68.320  83.1520  0.00  0.00     0.000 S
ATOM     86   O  SGN C   5      65.057  68.896  83.4010  0.00  0.00     0.000 OA
ATOM     87   O  SGN C   5      63.709  67.316  82.1520  0.00  0.00     0.000 OA
ATOM     88   O  SGN C   5      62.722  69.408  82.9890  0.00  0.00     0.000 OA
ENDBRANCH 76 85
BRANCH 79 89
ATOM     89   C  SGN C   5      59.310  65.944  88.0220  0.00  0.00     0.000 C
ATOM     90   O  SGN C   5      60.313  65.149  88.7000  0.00  0.00     0.000 O
ATOM     91   S  SGN C   5      60.179  65.024  90.2940  0.00  0.00     0.000 S
ATOM     92   O  SGN C   5      60.083  66.369  90.8000  0.00  0.00     0.000 OA
ATOM     93   O  SGN C   5      58.994  64.250  90.5600  0.00  0.00     0.000 OA
ATOM     94   O  SGN C   5      61.392  64.355  90.6770  0.00  0.00     0.000 OA
ENDBRANCH 79 89
BRANCH 75 95
ATOM     95  O4  BDP C   6      61.052  68.870  85.8780  0.00  0.00     0.000 O
BRANCH 95 99
ATOM     96  C1  BDP C   6      61.351  72.808  87.5670  0.00  0.00     0.000 C
ATOM     97  C2  BDP C   6      62.606  71.999  87.3960  0.00  0.00     0.000 C
ATOM     98  C3  BDP C   6      62.460  70.794  86.4540  0.00  0.00     0.000 C
ATOM     99  C4  BDP C   6      61.224  69.974  86.7930  0.00  0.00     0.000 C
ATOM    100  C5  BDP C   6      60.022  70.942  86.8980  0.00  0.00     0.000 C
ATOM    101  O5  BDP C   6      60.401  71.835  87.9580  0.00  0.00     0.000 O
BRANCH 100 102
ATOM    102   C  BDP C   6      58.750  70.246  87.3100  0.00  0.00     0.000 C
ATOM    103   O  BDP C   6      57.708  70.322  86.6430  0.00  0.00     0.000 OA
ATOM    104   O  BDP C   6      58.790  69.575  88.3470  0.00  0.00     0.000 OA
ENDBRANCH 100 102
ENDBRANCH 95 99
ENDBRANCH 75 95
ENDBRANCH 74 78
ENDBRANCH 58 74
ENDBRANCH 57 61
ENDBRANCH 37 57
ENDBRANCH 36 40
ENDBRANCH 23 36
ENDBRANCH 22 26
ENDBRANCH 1 22
TORSDOF 20
ENDMDL
MODEL 32
REMARK VINA RESULT:      -0.4     73.424     78.068
ROOT
ATOM      1  C1  NGY C   1      71.893  63.168  57.5060  0.00  0.00     0.000 C
ATOM      2  C2  NGY C   1      71.588  61.701  57.2320  0.00  0.00     0.000 C
ATOM      3  C3  NGY C   1      70.442  61.577  56.2330  0.00  0.00     0.000 C
ATOM      4  C4  NGY C   1      69.260  62.365  56.7650  0.00  0.00     0.000 C
ATOM      5  C5  NGY C   1      69.674  63.827  56.9150  0.00  0.00     0.000 C
ATOM      6  O5  NGY C   1      70.747  63.898  57.8890  0.00  0.00     0.000 O
ATOM      7   O  NGY C   1      70.129  60.204  56.0510  0.00  0.00     0.000 O
ATOM      9  HD  NGY C   1      70.099  59.487  56.5360  0.00  0.00     0.000 HD
ATOM      9   O  NGY C   1      68.145  62.261  55.8920  0.00  0.00     0.000 O
ATOM     11  HD  NGY C   1      68.115  61.544  56.3770  0.00  0.00     0.000 HD
ENDROOT
BRANCH 2 13
ATOM     11   N  NGY C   1      72.890  61.147  56.9470  0.00  0.00     0.000 N
ATOM     13  HD  NGY C   1      72.761  60.342  57.2380  0.00  0.00     0.000 HD
ATOM     13   C  NGY C   1      73.188  59.881  57.2330  0.00  0.00     0.000 C
ATOM     14   O  NGY C   1      72.414  59.175  57.8820  0.00  0.00     0.000 OA
ATOM     15   C  NGY C   1      74.490  59.360  56.7050  0.00  0.00     0.000 C
ENDBRANCH 2 13
BRANCH 5 16
ATOM     16   C  NGY C   1      68.605  64.740  57.4240  0.00  0.00     0.000 C
ATOM     17   O  NGY C   1      68.929  66.787  60.4520  0.00  0.00     0.000 OA
ATOM     18   O  NGY C   1      68.979  65.207  58.7230  0.00  0.00     0.000 O
ATOM     19   S  NGY C   1      68.232  66.494  59.2250  0.00  0.00     0.000 S
ATOM     20   O  NGY C   1      66.858  66.129  59.4490  0.00  0.00     0.000 OA
ATOM     21   O  NGY C   1      68.408  67.461  58.1530  0.00  0.00     0.000 OA
ENDBRANCH 5 16
BRANCH 1 22
ATOM     22  O4  BDP C   2      72.505  63.693  56.4240  0.00  0.00     0.000 O
BRANCH 22 26
ATOM     23  C1  BDP C   2      75.157  66.324  54.6890  0.00  0.00     0.000 C
ATOM     24  C2  BDP C   2      75.759  65.348  55.6720  0.00  0.00     0.000 C
ATOM     25  C3  BDP C   2      74.781  64.235  55.9430  0.00  0.00     0.000 C
ATOM     26  C4  BDP C   2      73.433  64.808  56.3690  0.00  0.00     0.000 C
ATOM     27  C5  BDP C   2      73.009  65.905  55.4010  0.00  0.00     0.000 C
ATOM     28  O5  BDP C   2      73.994  66.964  55.2860  0.00  0.00     0.000 O
ATOM     29   O  BDP C   2      76.898  64.673  55.1390  0.00  0.00     0.000 O
ATOM     31  HD  BDP C   2      77.003  63.845  55.3740  0.00  0.00     0.000 HD
ATOM     31   O  BDP C   2      75.331  63.448  56.9920  0.00  0.00     0.000 O
ATOM     33  HD  BDP C   2      75.435  62.621  57.2260  0.00  0.00     0.000 HD
BRANCH 27 33
ATOM     33   C  BDP C   2      71.726  66.582  55.8230  0.00  0.00     0.000 C
ATOM     34   O  BDP C   2      71.550  67.006  56.9900  0.00  0.00     0.000 OA
ATOM     35   O  BDP C   2      70.828  66.685  55.0040  0.00  0.00     0.000 OA
ENDBRANCH 27 33
BRANCH 23 36
ATOM     36  O4  SGN C   3      75.988  67.303  54.2620  0.00  0.00     0.000 O
BRANCH 36 40
ATOM     37  C1  SGN C   3      77.033  69.769  51.0600  0.00  0.00     0.000 C
ATOM     38  C2  SGN C   3      75.839  70.196  51.9290  0.00  0.00     0.000 C
ATOM     39  C3  SGN C   3      75.864  69.464  53.2630  0.00  0.00     0.000 C
ATOM     40  C4  SGN C   3      75.886  67.974  53.0030  0.00  0.00     0.000 C
ATOM     41  C5  SGN C   3      77.075  67.649  52.1250  0.00  0.00     0.000 C
ATOM     42  O5  SGN C   3      76.970  68.363  50.8830  0.00  0.00     0.000 O
ATOM     43   O  SGN C   3      74.719  69.832  54.0210  0.00  0.00     0.000 O
ATOM     45  HD  SGN C   3      74.980  69.038  54.2480  0.00  0.00     0.000 HD
BRANCH 38 47
ATOM     45   N  SGN C   3      75.614  70.951  50.6840  0.00  0.00     0.000 N
ATOM     47  HD  SGN C   3      75.678  70.184  51.0810  0.00  0.00     0.000 HD
ATOM     47   S  SGN C   3      75.318  72.487  50.9620  0.00  0.00     0.000 S
ATOM     48   O  SGN C   3      74.085  72.662  51.6450  0.00  0.00     0.000 OA
ATOM     49   O  SGN C   3      76.480  73.019  51.5940  0.00  0.00     0.000 OA
ATOM     50   O  SGN C   3      75.155  73.009  49.6060  0.00  0.00     0.000 OA
ENDBRANCH 38 47
BRANCH 41 51
ATOM     51   C  SGN C   3      77.214  66.188  51.7940  0.00  0.00     0.000 C
ATOM     52   O  SGN C   3      79.948  63.887  52.8480  0.00  0.00     0.000 OA
ATOM     53   O  SGN C   3      77.622  63.435  52.5070  0.00  0.00     0.000 OA
ATOM     54   O  SGN C   3      79.015  64.094  50.6660  0.00  0.00     0.000 OA
ATOM     55   O  SGN C   3      78.365  65.684  52.4330  0.00  0.00     0.000 O
ATOM     56   S  SGN C   3      78.775  64.130  52.0790  0.00  0.00     0.000 S
ENDBRANCH 41 51
BRANCH 37 57
ATOM     57  O4  IDS C   4      78.248  70.077  51.5770  0.00  0.00     0.000 O
BRANCH 57 61
ATOM     58  C1  IDS C   4      81.637  71.805  51.6020  0.00  0.00     0.000 C
ATOM     59  C2  IDS C   4      80.407  72.638  51.4240  0.00  0.00     0.000 C
ATOM     60  C3  IDS C   4      79.368  71.974  50.5170  0.00  0.00     0.000 C
ATOM     61  C4  IDS C   4      79.249  70.460  50.6140  0.00  0.00     0.000 C
ATOM     62  C5  IDS C   4      80.605  69.828  50.9530  0.00  0.00     0.000 C
ATOM     63  O5  IDS C   4      81.250  70.507  52.0200  0.00  0.00     0.000 O
ATOM     64   O  IDS C   4      79.759  72.307  49.1980  0.00  0.00     0.000 O
ATOM     66  HD  IDS C   4      80.017  71.600  48.7710  0.00  0.00     0.000 HD
BRANCH 59 66
ATOM     66   O  IDS C   4      79.735  72.895  52.7120  0.00  0.00     0.000 O
ATOM     67   S  IDS C   4      79.759  74.396  53.2400  0.00  0.00     0.000 S
ATOM     68   O  IDS C   4      78.983  75.104  52.2510  0.00  0.00     0.000 OA
ATOM     69   O  IDS C   4      79.160  74.337  54.5590  0.00  0.00     0.000 OA
ATOM     70   O  IDS C   4      81.148  74.829  53.2430  0.00  0.00     0.000 OA
ENDBRANCH 59 66
BRANCH 62 71
ATOM     71   C  IDS C   4      80.492  68.382  51.3970  0.00  0.00     0.000 C
ATOM     72   O  IDS C   4      80.705  68.081  52.5550  0.00  0.00     0.000 OA
ATOM     73   O  IDS C   4      80.282  67.509  50.5300  0.00  0.00     0.000 OA
ENDBRANCH 62 71
BRANCH 58 74
ATOM     74  O4  SGN C   5      82.569  71.938  50.6160  0.00  0.00     0.000 O
BRANCH 74 78
ATOM     75  C1  SGN C   5      86.630  72.152  49.6650  0.00  0.00     0.000 C
ATOM     76  C2  SGN C   5      86.118  70.778  50.1340  0.00  0.00     0.000 C
ATOM     77  C3  SGN C   5      84.584  70.737  50.1200  0.00  0.00     0.000 C
ATOM     78  C4  SGN C   5      83.984  71.959  50.8010  0.00  0.00     0.000 C
ATOM     79  C5  SGN C   5      84.583  73.221  50.1980  0.00  0.00     0.000 C
ATOM     80  O5  SGN C   5      86.023  73.214  50.3900  0.00  0.00     0.000 O
ATOM     81   O  SGN C   5      84.148  69.543  50.7610  0.00  0.00     0.000 O
ATOM     83  HD  SGN C   5      84.579  68.797  50.6750  0.00  0.00     0.000 HD
BRANCH 76 85
ATOM     83   N  SGN C   5      86.757  69.887  49.1570  0.00  0.00     0.000 N
ATOM     85  HD  SGN C   5      87.126  69.138  48.9290  0.00  0.00     0.000 HD
ATOM     85   S  SGN C   5      88.013  68.897  49.3450  0.00  0.00     0.000 S
ATOM     86   O  SGN C   5      88.269  68.185  48.1410  0.00  0.00     0.000 OA
ATOM     87   O  SGN C   5      89.078  69.667  49.8780  0.00  0.00     0.000 OA
ATOM     88   O  SGN C   5      87.353  67.986  50.3770  0.00  0.00     0.000 OA
ENDBRANCH 76 85
BRANCH 79 89
ATOM     89   C  SGN C   5      84.029  74.498  50.7960  0.00  0.00     0.000 C
ATOM     90   O  SGN C   5      85.080  75.206  51.4980  0.00  0.00     0.000 O
ATOM     91   S  SGN C   5      84.978  76.808  51.5220  0.00  0.00     0.000 S
ATOM     92   O  SGN C   5      84.828  77.226  50.1530  0.00  0.00     0.000 OA
ATOM     93   O  SGN C   5      83.835  77.147  52.3300  0.00  0.00     0.000 OA
ATOM     94   O  SGN C   5      86.228  77.209  52.1090  0.00  0.00     0.000 OA
ENDBRANCH 79 89
BRANCH 75 95
ATOM     95  O4  BDP C   6      86.291  72.245  48.3450  0.00  0.00     0.000 O
BRANCH 95 99
ATOM     96  C1  BDP C   6      88.390  74.098  45.0880  0.00  0.00     0.000 C
ATOM     97  C2  BDP C   6      89.186  73.527  46.2270  0.00  0.00     0.000 C
ATOM     98  C3  BDP C   6      88.398  72.567  47.1320  0.00  0.00     0.000 C
ATOM     99  C4  BDP C   6      87.059  73.164  47.5380  0.00  0.00     0.000 C
ATOM    100  C5  BDP C   6      86.354  73.671  46.2580  0.00  0.00     0.000 C
ATOM    101  O5  BDP C   6      87.264  74.655  45.7400  0.00  0.00     0.000 O
BRANCH 100 102
ATOM    102   C  BDP C   6      85.044  74.357  46.5490  0.00  0.00     0.000 C
ATOM    103   O  BDP C   6      83.957  73.765  46.4830  0.00  0.00     0.000 OA
ATOM    104   O  BDP C   6      85.097  75.550  46.8730  0.00  0.00     0.000 OA
ENDBRANCH 100 102
ENDBRANCH 95 99
ENDBRANCH 75 95
ENDBRANCH 74 78
ENDBRANCH 58 74
ENDBRANCH 57 61
ENDBRANCH 37 57
ENDBRANCH 36 40
ENDBRANCH 23 36
ENDBRANCH 22 26
ENDBRANCH 1 22
TORSDOF 20
ENDMDL
MODEL 33
REMARK VINA RESULT:      -0.4    125.339    131.504
ROOT
ATOM      1  C1  NGY C   1     105.696 106.918 107.1430  0.00  0.00     0.000 C
ATOM      2  C2  NGY C   1     105.223 107.368 108.5180  0.00  0.00     0.000 C
ATOM      3  C3  NGY C   1     104.452 108.679 108.4100  0.00  0.00     0.000 C
ATOM      4  C4  NGY C   1     105.330 109.690 107.6970  0.00  0.00     0.000 C
ATOM      5  C5  NGY C   1     105.662 109.156 106.3060  0.00  0.00     0.000 C
ATOM      6  O5  NGY C   1     106.413 107.924 106.4600  0.00  0.00     0.000 O
ATOM      7   O  NGY C   1     104.086 109.115 109.7110  0.00  0.00     0.000 O
ATOM      9  HD  NGY C   1     104.429 109.107 110.5060  0.00  0.00     0.000 HD
ATOM      9   O  NGY C   1     104.677 110.947 107.5940  0.00  0.00     0.000 O
ATOM     11  HD  NGY C   1     105.021 110.940 108.3890  0.00  0.00     0.000 HD
ENDROOT
BRANCH 2 13
ATOM     11   N  NGY C   1     104.635 106.162 109.0500  0.00  0.00     0.000 N
ATOM     13  HD  NGY C   1     104.762 106.311 109.8940  0.00  0.00     0.000 HD
ATOM     13   C  NGY C   1     104.594 105.923 110.3610  0.00  0.00     0.000 C
ATOM     14   O  NGY C   1     105.184 106.653 111.1590  0.00  0.00     0.000 OA
ATOM     15   C  NGY C   1     103.778 104.748 110.8060  0.00  0.00     0.000 C
ENDBRANCH 2 13
BRANCH 5 16
ATOM     16   C  NGY C   1     106.519 110.051 105.4700  0.00  0.00     0.000 C
ATOM     17   O  NGY C   1     105.224 112.270 102.8520  0.00  0.00     0.000 OA
ATOM     18   O  NGY C   1     105.721 110.602 104.4190  0.00  0.00     0.000 O
ATOM     19   S  NGY C   1     106.305 111.883 103.7220  0.00  0.00     0.000 S
ATOM     20   O  NGY C   1     107.476 111.473 102.9920  0.00  0.00     0.000 OA
ATOM     21   O  NGY C   1     106.593 112.796 104.8160  0.00  0.00     0.000 OA
ENDBRANCH 5 16
BRANCH 1 22
ATOM     22  O4  BDP C   2     104.631 106.473 106.4420  0.00  0.00     0.000 O
BRANCH 22 26
ATOM     23  C1  BDP C   2     102.942 103.929 103.6780  0.00  0.00     0.000 C
ATOM     24  C2  BDP C   2     103.711 103.260 104.7930  0.00  0.00     0.000 C
ATOM     25  C3  BDP C   2     103.952 104.247 105.9040  0.00  0.00     0.000 C
ATOM     26  C4  BDP C   2     104.609 105.510 105.3560  0.00  0.00     0.000 C
ATOM     27  C5  BDP C   2     103.850 105.996 104.1290  0.00  0.00     0.000 C
ATOM     28  O5  BDP C   2     103.754 104.986 103.0920  0.00  0.00     0.000 O
ATOM     29   O  BDP C   2     102.961 102.221 105.4230  0.00  0.00     0.000 O
ATOM     31  HD  BDP C   2     103.072 102.126 106.2760  0.00  0.00     0.000 HD
ATOM     31   O  BDP C   2     104.816 103.614 106.8400  0.00  0.00     0.000 O
ATOM     33  HD  BDP C   2     104.928 103.519 107.6930  0.00  0.00     0.000 HD
BRANCH 27 33
ATOM     33   C  BDP C   2     104.507 107.190 103.4780  0.00  0.00     0.000 C
ATOM     34   O  BDP C   2     105.740 107.228 103.2500  0.00  0.00     0.000 OA
ATOM     35   O  BDP C   2     103.814 108.155 103.2010  0.00  0.00     0.000 OA
ENDBRANCH 27 33
BRANCH 23 36
ATOM     36  O4  SGN C   3     102.548 103.112 102.6740  0.00  0.00     0.000 O
BRANCH 36 40
ATOM     37  C1  SGN C   3      99.483 102.194  99.9920  0.00  0.00     0.000 C
ATOM     38  C2  SGN C   3     100.426 103.353  99.6300  0.00  0.00     0.000 C
ATOM     39  C3  SGN C   3     101.705 103.275 100.4500  0.00  0.00     0.000 C
ATOM     40  C4  SGN C   3     101.342 103.263 101.9200  0.00  0.00     0.000 C
ATOM     41  C5  SGN C   3     100.398 102.110 102.1800  0.00  0.00     0.000 C
ATOM     42  O5  SGN C   3      99.214 102.264 101.3830  0.00  0.00     0.000 O
ATOM     43   O  SGN C   3     102.531 104.390 100.1380  0.00  0.00     0.000 O
ATOM     45  HD  SGN C   3     102.692 104.120 100.9450  0.00  0.00     0.000 HD
BRANCH 38 47
ATOM     45   N  SGN C   3      99.243 103.503  98.7630  0.00  0.00     0.000 N
ATOM     47  HD  SGN C   3      99.569 103.432  99.5620  0.00  0.00     0.000 HD
ATOM     47   S  SGN C   3      99.639 103.912  97.2790  0.00  0.00     0.000 S
ATOM     48   O  SGN C   3     100.209 105.212  97.2340  0.00  0.00     0.000 OA
ATOM     49   O  SGN C   3     100.433 102.847  96.7590  0.00  0.00     0.000 OA
ATOM     50   O  SGN C   3      98.331 103.976  96.6290  0.00  0.00     0.000 OA
ENDBRANCH 38 47
BRANCH 41 51
ATOM     51   C  SGN C   3      99.962 101.984 103.6150  0.00  0.00     0.000 C
ATOM     52   O  SGN C   3      98.763 104.707 105.8560  0.00  0.00     0.000 OA
ATOM     53   O  SGN C   3      98.106 102.406 105.7670  0.00  0.00     0.000 OA
ATOM     54   O  SGN C   3     100.345 103.010 106.3900  0.00  0.00     0.000 OA
ATOM     55   O  SGN C   3      99.537 103.247 104.0750  0.00  0.00     0.000 O
ATOM     56   S  SGN C   3      99.153 103.351 105.6720  0.00  0.00     0.000 S
ENDBRANCH 41 51
BRANCH 37 57
ATOM     57  O4  IDS C   4      99.972 100.960  99.7170  0.00  0.00     0.000 O
BRANCH 57 61
ATOM     58  C1  IDS C   4      99.929  97.635  97.8690  0.00  0.00     0.000 C
ATOM     59  C2  IDS C   4      99.750  98.895  97.0830  0.00  0.00     0.000 C
ATOM     60  C3  IDS C   4      98.867  99.919  97.8010  0.00  0.00     0.000 C
ATOM     61  C4  IDS C   4      98.992  99.983  99.3160  0.00  0.00     0.000 C
ATOM     62  C5  IDS C   4      99.326  98.602  99.8930  0.00  0.00     0.000 C
ATOM     63  O5  IDS C   4     100.374  97.970  99.1720  0.00  0.00     0.000 O
ATOM     64   O  IDS C   4      97.538  99.555  97.4780  0.00  0.00     0.000 O
ATOM     66  HD  IDS C   4      97.120  99.276  98.1830  0.00  0.00     0.000 HD
BRANCH 59 66
ATOM     66   O  IDS C   4     101.041  99.563  96.8280  0.00  0.00     0.000 O
ATOM     67   S  IDS C   4     101.527  99.614  95.3130  0.00  0.00     0.000 S
ATOM     68   O  IDS C   4     100.530 100.442  94.6770  0.00  0.00     0.000 OA
ATOM     69   O  IDS C   4     102.856 100.190  95.3670  0.00  0.00     0.000 OA
ATOM     70   O  IDS C   4     101.497  98.252  94.8050  0.00  0.00     0.000 OA
ENDBRANCH 59 66
BRANCH 62 71
ATOM     71   C  IDS C   4      99.797  98.658 101.3340  0.00  0.00     0.000 C
ATOM     72   O  IDS C   4     100.948  98.381 101.6110  0.00  0.00     0.000 OA
ATOM     73   O  IDS C   4      98.955  98.890 102.2250  0.00  0.00     0.000 OA
ENDBRANCH 62 71
BRANCH 58 74
ATOM     74  O4  SGN C   5      98.930  96.719  97.7210  0.00  0.00     0.000 O
BRANCH 74 78
ATOM     75  C1  SGN C   5      97.982  92.676  97.2690  0.00  0.00     0.000 C
ATOM     76  C2  SGN C   5      98.117  93.181  98.7180  0.00  0.00     0.000 C
ATOM     77  C3  SGN C   5      98.123  94.715  98.7610  0.00  0.00     0.000 C
ATOM     78  C4  SGN C   5      99.088  95.300  97.7390  0.00  0.00     0.000 C
ATOM     79  C5  SGN C   5      98.793  94.712  96.3670  0.00  0.00     0.000 C
ATOM     80  O5  SGN C   5      98.951  93.269  96.4140  0.00  0.00     0.000 O
ATOM     81   O  SGN C   5      98.468  95.139 100.0750  0.00  0.00     0.000 O
ATOM     83  HD  SGN C   5      98.198  94.710 100.7770  0.00  0.00     0.000 HD
BRANCH 76 85
ATOM     83   N  SGN C   5      97.055  92.729  99.6260  0.00  0.00     0.000 N
ATOM     85  HD  SGN C   5      96.775  92.307 100.3280  0.00  0.00     0.000 HD
ATOM     85   S  SGN C   5      96.865  91.302 100.3480  0.00  0.00     0.000 S
ATOM     86   O  SGN C   5      95.714  91.317 101.1830  0.00  0.00     0.000 OA
ATOM     87   O  SGN C   5      96.916  90.310  99.3350  0.00  0.00     0.000 OA
ATOM     88   O  SGN C   5      98.139  91.370 101.1880  0.00  0.00     0.000 OA
ENDBRANCH 76 85
BRANCH 79 89
ATOM     89   C  SGN C   5      99.690  95.253  95.2720  0.00  0.00     0.000 C
ATOM     90   O  SGN C   5      99.396  94.583  94.0220  0.00  0.00     0.000 O
ATOM     91   S  SGN C   5      99.601  95.440  92.6800  0.00  0.00     0.000 S
ATOM     92   O  SGN C   5      98.859  96.660  92.8600  0.00  0.00     0.000 OA
ATOM     93   O  SGN C   5     101.015  95.671  92.5370  0.00  0.00     0.000 OA
ATOM     94   O  SGN C   5      99.059  94.586  91.6580  0.00  0.00     0.000 OA
ENDBRANCH 79 89
BRANCH 75 95
ATOM     95  O4  BDP C   6      96.729  93.041  96.8640  0.00  0.00     0.000 O
BRANCH 95 99
ATOM     96  C1  BDP C   6      94.051  91.145  94.0920  0.00  0.00     0.000 C
ATOM     97  C2  BDP C   6      94.974  90.284  94.9070  0.00  0.00     0.000 C
ATOM     98  C3  BDP C   6      95.602  90.995  96.1160  0.00  0.00     0.000 C
ATOM     99  C4  BDP C   6      96.185  92.344  95.7220  0.00  0.00     0.000 C
ATOM    100  C5  BDP C   6      95.107  93.117  94.9270  0.00  0.00     0.000 C
ATOM    101  O5  BDP C   6      94.855  92.271  93.7930  0.00  0.00     0.000 O
BRANCH 100 102
ATOM    102   C  BDP C   6      95.602  94.445  94.4150  0.00  0.00     0.000 C
ATOM    103   O  BDP C   6      95.499  95.489  95.0750  0.00  0.00     0.000 OA
ATOM    104   O  BDP C   6      96.135  94.450  93.2990  0.00  0.00     0.000 OA
ENDBRANCH 100 102
ENDBRANCH 95 99
ENDBRANCH 75 95
ENDBRANCH 74 78
ENDBRANCH 58 74
ENDBRANCH 57 61
ENDBRANCH 37 57
ENDBRANCH 36 40
ENDBRANCH 23 36
ENDBRANCH 22 26
ENDBRANCH 1 22
TORSDOF 20
ENDMDL
MODEL 34
REMARK VINA RESULT:      -0.4     53.265     58.295
ROOT
ATOM      1  C1  NGY C   1      77.708  24.341  54.9900  0.00  0.00     0.000 C
ATOM      2  C2  NGY C   1      77.649  25.186  53.7250  0.00  0.00     0.000 C
ATOM      3  C3  NGY C   1      78.737  26.254  53.7520  0.00  0.00     0.000 C
ATOM      4  C4  NGY C   1      78.591  27.050  55.0350  0.00  0.00     0.000 C
ATOM      5  C5  NGY C   1      78.751  26.103  56.2210  0.00  0.00     0.000 C
ATOM      6  O5  NGY C   1      77.684  25.121  56.1660  0.00  0.00     0.000 O
ATOM      7   O  NGY C   1      78.616  27.074  52.5990  0.00  0.00     0.000 O
ATOM      9  HD  NGY C   1      77.977  27.398  52.1120  0.00  0.00     0.000 HD
ATOM      9   O  NGY C   1      79.559  28.087  55.1040  0.00  0.00     0.000 O
ATOM     11  HD  NGY C   1      78.920  28.411  54.6170  0.00  0.00     0.000 HD
ENDROOT
BRANCH 2 13
ATOM     11   N  NGY C   1      77.579  24.186  52.6860  0.00  0.00     0.000 N
ATOM     13  HD  NGY C   1      77.141  24.640  52.0920  0.00  0.00     0.000 HD
ATOM     13   C  NGY C   1      76.970  24.427  51.5250  0.00  0.00     0.000 C
ATOM     14   O  NGY C   1      76.320  25.459  51.3490  0.00  0.00     0.000 OA
ATOM     15   C  NGY C   1      77.140  23.398  50.4500  0.00  0.00     0.000 C
ENDBRANCH 2 13
BRANCH 5 16
ATOM     16   C  NGY C   1      78.641  26.745  57.5670  0.00  0.00     0.000 C
ATOM     17   O  NGY C   1      81.524  27.674  59.6370  0.00  0.00     0.000 OA
ATOM     18   O  NGY C   1      79.936  26.766  58.1730  0.00  0.00     0.000 O
ATOM     19   S  NGY C   1      80.113  27.777  59.3620  0.00  0.00     0.000 S
ATOM     20   O  NGY C   1      79.306  27.296  60.4530  0.00  0.00     0.000 OA
ATOM     21   O  NGY C   1      79.666  29.053  58.8280  0.00  0.00     0.000 OA
ENDBRANCH 5 16
BRANCH 1 22
ATOM     22  O4  BDP C   2      78.789  23.535  54.9240  0.00  0.00     0.000 O
BRANCH 22 26
ATOM     23  C1  BDP C   2      80.688  19.971  55.7360  0.00  0.00     0.000 C
ATOM     24  C2  BDP C   2      79.365  19.853  55.0160  0.00  0.00     0.000 C
ATOM     25  C3  BDP C   2      78.968  21.198  54.4650  0.00  0.00     0.000 C
ATOM     26  C4  BDP C   2      78.994  22.250  55.5690  0.00  0.00     0.000 C
ATOM     27  C5  BDP C   2      80.304  22.159  56.3390  0.00  0.00     0.000 C
ATOM     28  O5  BDP C   2      80.538  20.839  56.8940  0.00  0.00     0.000 O
ATOM     29   O  BDP C   2      79.449  19.025  53.8560  0.00  0.00     0.000 O
ATOM     31  HD  BDP C   2      78.965  19.260  53.1770  0.00  0.00     0.000 HD
ATOM     31   O  BDP C   2      77.649  21.061  53.9510  0.00  0.00     0.000 O
ATOM     33  HD  BDP C   2      77.165  21.295  53.2720  0.00  0.00     0.000 HD
BRANCH 27 33
ATOM     33   C  BDP C   2      80.353  23.111  57.5100  0.00  0.00     0.000 C
ATOM     34   O  BDP C   2      79.413  23.199  58.3360  0.00  0.00     0.000 OA
ATOM     35   O  BDP C   2      81.327  23.836  57.6290  0.00  0.00     0.000 OA
ENDBRANCH 27 33
BRANCH 23 36
ATOM     36  O4  SGN C   3      81.219  18.803  56.1660  0.00  0.00     0.000 O
BRANCH 36 40
ATOM     37  C1  SGN C   3      84.725  16.575  56.5900  0.00  0.00     0.000 C
ATOM     38  C2  SGN C   3      84.411  17.626  57.6680  0.00  0.00     0.000 C
ATOM     39  C3  SGN C   3      82.943  18.021  57.6150  0.00  0.00     0.000 C
ATOM     40  C4  SGN C   3      82.618  18.510  56.2200  0.00  0.00     0.000 C
ATOM     41  C5  SGN C   3      82.978  17.427  55.2270  0.00  0.00     0.000 C
ATOM     42  O5  SGN C   3      84.378  17.122  55.3280  0.00  0.00     0.000 O
ATOM     43   O  SGN C   3      82.695  19.035  58.5810  0.00  0.00     0.000 O
ATOM     45  HD  SGN C   3      82.132  19.107  57.9270  0.00  0.00     0.000 HD
BRANCH 38 47
ATOM     45   N  SGN C   3      85.857  17.393  57.8330  0.00  0.00     0.000 N
ATOM     47  HD  SGN C   3      85.205  17.658  57.3290  0.00  0.00     0.000 HD
ATOM     47   S  SGN C   3      86.256  17.169  59.3550  0.00  0.00     0.000 S
ATOM     48   O  SGN C   3      86.055  18.347  60.1210  0.00  0.00     0.000 OA
ATOM     49   O  SGN C   3      85.570  15.997  59.7900  0.00  0.00     0.000 OA
ATOM     50   O  SGN C   3      87.697  16.943  59.2540  0.00  0.00     0.000 OA
ENDBRANCH 38 47
BRANCH 41 51
ATOM     51   C  SGN C   3      82.698  17.787  53.7940  0.00  0.00     0.000 C
ATOM     52   O  SGN C   3      83.642  20.932  52.0340  0.00  0.00     0.000 OA
ATOM     53   O  SGN C   3      83.492  18.698  51.1870  0.00  0.00     0.000 OA
ATOM     54   O  SGN C   3      81.528  19.837  51.9690  0.00  0.00     0.000 OA
ATOM     55   O  SGN C   3      83.271  19.047  53.5210  0.00  0.00     0.000 O
ATOM     56   S  SGN C   3      82.952  19.688  52.0390  0.00  0.00     0.000 S
ENDBRANCH 41 51
BRANCH 37 57
ATOM     57  O4  IDS C   4      84.066  15.400  56.7380  0.00  0.00     0.000 O
BRANCH 57 61
ATOM     58  C1  IDS C   4      83.861  11.653  57.3620  0.00  0.00     0.000 C
ATOM     59  C2  IDS C   4      84.653  12.496  58.3100  0.00  0.00     0.000 C
ATOM     60  C3  IDS C   4      85.460  13.586  57.6000  0.00  0.00     0.000 C
ATOM     61  C4  IDS C   4      84.815  14.224  56.3770  0.00  0.00     0.000 C
ATOM     62  C5  IDS C   4      83.928  13.213  55.6420  0.00  0.00     0.000 C
ATOM     63  O5  IDS C   4      83.083  12.504  56.5370  0.00  0.00     0.000 O
ATOM     64   O  IDS C   4      86.660  12.955  57.1930  0.00  0.00     0.000 O
ATOM     66  HD  IDS C   4      86.698  12.905  56.3290  0.00  0.00     0.000 HD
BRANCH 59 66
ATOM     66   O  IDS C   4      83.781  13.186  59.2800  0.00  0.00     0.000 O
ATOM     67   S  IDS C   4      83.802  12.634  60.7720  0.00  0.00     0.000 S
ATOM     68   O  IDS C   4      85.152  12.906  61.2040  0.00  0.00     0.000 OA
ATOM     69   O  IDS C   4      82.775  13.390  61.4630  0.00  0.00     0.000 OA
ATOM     70   O  IDS C   4      83.536  11.206  60.7060  0.00  0.00     0.000 OA
ENDBRANCH 59 66
BRANCH 62 71
ATOM     71   C  IDS C   4      83.000  13.861  54.6310  0.00  0.00     0.000 C
ATOM     72   O  IDS C   4      81.798  13.856  54.8160  0.00  0.00     0.000 OA
ATOM     73   O  IDS C   4      83.490  14.299  53.5710  0.00  0.00     0.000 OA
ENDBRANCH 62 71
BRANCH 58 74
ATOM     74  O4  SGN C   5      84.551  10.623  56.7940  0.00  0.00     0.000 O
BRANCH 74 78
ATOM     75  C1  SGN C   5      84.349   6.743  55.2610  0.00  0.00     0.000 C
ATOM     76  C2  SGN C   5      83.389   7.770  54.6310  0.00  0.00     0.000 C
ATOM     77  C3  SGN C   5      83.789   9.198  55.0230  0.00  0.00     0.000 C
ATOM     78  C4  SGN C   5      84.035   9.321  56.5200  0.00  0.00     0.000 C
ATOM     79  C5  SGN C   5      85.021   8.250  56.9620  0.00  0.00     0.000 C
ATOM     80  O5  SGN C   5      84.477   6.937  56.6640  0.00  0.00     0.000 O
ATOM     81   O  SGN C   5      82.762  10.095  54.6100  0.00  0.00     0.000 O
ATOM     83  HD  SGN C   5      82.328   9.978  53.8700  0.00  0.00     0.000 HD
BRANCH 76 85
ATOM     83   N  SGN C   5      82.858   6.694  53.7830  0.00  0.00     0.000 N
ATOM     85  HD  SGN C   5      82.839   6.235  53.0490  0.00  0.00     0.000 HD
ATOM     85   S  SGN C   5      82.541   6.699  52.2040  0.00  0.00     0.000 S
ATOM     86   O  SGN C   5      82.080   5.421  51.7860  0.00  0.00     0.000 OA
ATOM     87   O  SGN C   5      81.690   7.807  51.9510  0.00  0.00     0.000 OA
ATOM     88   O  SGN C   5      83.979   6.928  51.7470  0.00  0.00     0.000 OA
ENDBRANCH 76 85
BRANCH 79 89
ATOM     89   C  SGN C   5      85.351   8.305  58.4400  0.00  0.00     0.000 C
ATOM     90   O  SGN C   5      84.127   8.360  59.2130  0.00  0.00     0.000 O
ATOM     91   S  SGN C   5      84.159   7.673  60.6630  0.00  0.00     0.000 S
ATOM     92   O  SGN C   5      84.649   6.333  60.4670  0.00  0.00     0.000 OA
ATOM     93   O  SGN C   5      85.036   8.465  61.4870  0.00  0.00     0.000 OA
ATOM     94   O  SGN C   5      82.785   7.724  61.0830  0.00  0.00     0.000 OA
ENDBRANCH 79 89
BRANCH 75 95
ATOM     95  O4  BDP C   6      85.558   6.945  54.6570  0.00  0.00     0.000 O
BRANCH 95 99
ATOM     96  C1  BDP C   6      88.391   3.918  53.5390  0.00  0.00     0.000 C
ATOM     97  C2  BDP C   6      86.997   3.499  53.9100  0.00  0.00     0.000 C
ATOM     98  C3  BDP C   6      85.972   4.643  53.9180  0.00  0.00     0.000 C
ATOM     99  C4  BDP C   6      86.494   5.846  54.6910  0.00  0.00     0.000 C
ATOM    100  C5  BDP C   6      87.914   6.170  54.1690  0.00  0.00     0.000 C
ATOM    101  O5  BDP C   6      88.655   4.971  54.4470  0.00  0.00     0.000 O
BRANCH 100 102
ATOM    102   C  BDP C   6      88.565   7.303  54.9210  0.00  0.00     0.000 C
ATOM    103   O  BDP C   6      88.965   8.330  54.3530  0.00  0.00     0.000 OA
ATOM    104   O  BDP C   6      88.674   7.172  56.1450  0.00  0.00     0.000 OA
ENDBRANCH 100 102
ENDBRANCH 95 99
ENDBRANCH 75 95
ENDBRANCH 74 78
ENDBRANCH 58 74
ENDBRANCH 57 61
ENDBRANCH 37 57
ENDBRANCH 36 40
ENDBRANCH 23 36
ENDBRANCH 22 26
ENDBRANCH 1 22
TORSDOF 20
ENDMDL
MODEL 35
REMARK VINA RESULT:      -0.4     72.888     77.515
ROOT
ATOM      1  C1  NGY C   1      61.901  24.347 108.4410  0.00  0.00     0.000 C
ATOM      2  C2  NGY C   1      61.010  24.072 109.6440  0.00  0.00     0.000 C
ATOM      3  C3  NGY C   1      61.758  24.381 110.9370  0.00  0.00     0.000 C
ATOM      4  C4  NGY C   1      63.056  23.596 110.9360  0.00  0.00     0.000 C
ATOM      5  C5  NGY C   1      63.887  24.025 109.7300  0.00  0.00     0.000 C
ATOM      6  O5  NGY C   1      63.148  23.690 108.5270  0.00  0.00     0.000 O
ATOM      7   O  NGY C   1      60.933  24.048 112.0440  0.00  0.00     0.000 O
ATOM      9  HD  NGY C   1      60.354  23.437 112.2460  0.00  0.00     0.000 HD
ATOM      9   O  NGY C   1      63.785  23.817 112.1350  0.00  0.00     0.000 O
ATOM     11  HD  NGY C   1      63.205  23.206 112.3360  0.00  0.00     0.000 HD
ENDROOT
BRANCH 2 13
ATOM     11   N  NGY C   1      59.784  24.745 109.2860  0.00  0.00     0.000 N
ATOM     13  HD  NGY C   1      59.225  24.247 109.7210  0.00  0.00     0.000 HD
ATOM     13   C  NGY C   1      58.601  24.326 109.7310  0.00  0.00     0.000 C
ATOM     14   O  NGY C   1      58.493  23.265 110.3490  0.00  0.00     0.000 OA
ATOM     15   C  NGY C   1      57.428  25.219 109.4680  0.00  0.00     0.000 C
ENDBRANCH 2 13
BRANCH 5 16
ATOM     16   C  NGY C   1      65.210  23.342 109.5950  0.00  0.00     0.000 C
ATOM     17   O  NGY C   1      68.400  24.828 110.6310  0.00  0.00     0.000 OA
ATOM     18   O  NGY C   1      66.246  24.283 109.8900  0.00  0.00     0.000 O
ATOM     19   S  NGY C   1      67.647  23.664 110.2380  0.00  0.00     0.000 S
ATOM     20   O  NGY C   1      68.157  23.063 109.0330  0.00  0.00     0.000 OA
ATOM     21   O  NGY C   1      67.372  22.704 111.2940  0.00  0.00     0.000 OA
ENDBRANCH 5 16
BRANCH 1 22
ATOM     22  O4  BDP C   2      62.027  25.683 108.2900  0.00  0.00     0.000 O
BRANCH 22 26
ATOM     23  C1  BDP C   2      62.422  29.022 105.9120  0.00  0.00     0.000 C
ATOM     24  C2  BDP C   2      61.256  28.122 105.5800  0.00  0.00     0.000 C
ATOM     25  C3  BDP C   2      61.012  27.169 106.7200  0.00  0.00     0.000 C
ATOM     26  C4  BDP C   2      62.298  26.429 107.0740  0.00  0.00     0.000 C
ATOM     27  C5  BDP C   2      63.444  27.422 107.2140  0.00  0.00     0.000 C
ATOM     28  O5  BDP C   2      63.637  28.227 106.0230  0.00  0.00     0.000 O
ATOM     29   O  BDP C   2      60.027  28.841 105.4740  0.00  0.00     0.000 O
ATOM     31  HD  BDP C   2      59.315  28.436 105.7560  0.00  0.00     0.000 HD
ATOM     31   O  BDP C   2      60.022  26.246 106.2830  0.00  0.00     0.000 O
ATOM     33  HD  BDP C   2      59.311  25.841 106.5650  0.00  0.00     0.000 HD
BRANCH 27 33
ATOM     33   C  BDP C   2      64.769  26.744 107.4690  0.00  0.00     0.000 C
ATOM     34   O  BDP C   2      65.149  25.754 106.7980  0.00  0.00     0.000 OA
ATOM     35   O  BDP C   2      65.467  27.157 108.3800  0.00  0.00     0.000 OA
ENDBRANCH 27 33
BRANCH 23 36
ATOM     36  O4  SGN C   3      62.662  30.013 105.0220  0.00  0.00     0.000 O
BRANCH 36 40
ATOM     37  C1  SGN C   3      64.012  33.932 104.5250  0.00  0.00     0.000 C
ATOM     38  C2  SGN C   3      65.069  32.820 104.6220  0.00  0.00     0.000 C
ATOM     39  C3  SGN C   3      64.436  31.461 104.3600  0.00  0.00     0.000 C
ATOM     40  C4  SGN C   3      63.294  31.258 105.3320  0.00  0.00     0.000 C
ATOM     41  C5  SGN C   3      62.319  32.406 105.1840  0.00  0.00     0.000 C
ATOM     42  O5  SGN C   3      62.985  33.647 105.4620  0.00  0.00     0.000 O
ATOM     43   O  SGN C   3      65.422  30.447 104.5150  0.00  0.00     0.000 O
ATOM     45  HD  SGN C   3      64.637  30.124 104.6880  0.00  0.00     0.000 HD
BRANCH 38 47
ATOM     45   N  SGN C   3      65.842  34.030 104.9530  0.00  0.00     0.000 N
ATOM     47  HD  SGN C   3      65.197  33.488 105.1530  0.00  0.00     0.000 HD
ATOM     47   S  SGN C   3      67.198  34.116 104.1280  0.00  0.00     0.000 S
ATOM     48   O  SGN C   3      68.095  33.079 104.4970  0.00  0.00     0.000 OA
ATOM     49   O  SGN C   3      66.835  34.189 102.7510  0.00  0.00     0.000 OA
ATOM     50   O  SGN C   3      67.756  35.380 104.6050  0.00  0.00     0.000 OA
ENDBRANCH 38 47
BRANCH 41 51
ATOM     51   C  SGN C   3      61.126  32.321 106.0980  0.00  0.00     0.000 C
ATOM     52   O  SGN C   3      57.567  31.815 105.1190  0.00  0.00     0.000 OA
ATOM     53   O  SGN C   3      58.735  31.055 107.0660  0.00  0.00     0.000 OA
ATOM     54   O  SGN C   3      58.408  33.403 106.6820  0.00  0.00     0.000 OA
ATOM     55   O  SGN C   3      59.975  32.074 105.3220  0.00  0.00     0.000 O
ATOM     56   S  SGN C   3      58.537  32.090 106.1230  0.00  0.00     0.000 S
ENDBRANCH 41 51
BRANCH 37 57
ATOM     57  O4  IDS C   4      63.444  34.068 103.3020  0.00  0.00     0.000 O
BRANCH 57 61
ATOM     58  C1  IDS C   4      62.592  35.933 100.0980  0.00  0.00     0.000 C
ATOM     59  C2  IDS C   4      64.025  35.838 100.5130  0.00  0.00     0.000 C
ATOM     60  C3  IDS C   4      64.216  36.003 102.0230  0.00  0.00     0.000 C
ATOM     61  C4  IDS C   4      63.129  35.419 102.9150  0.00  0.00     0.000 C
ATOM     62  C5  IDS C   4      61.763  35.486 102.2220  0.00  0.00     0.000 C
ATOM     63  O5  IDS C   4      61.831  35.028 100.8800  0.00  0.00     0.000 O
ATOM     64   O  IDS C   4      64.268  37.401 102.2410  0.00  0.00     0.000 O
ATOM     66  HD  IDS C   4      63.576  37.663 102.6900  0.00  0.00     0.000 HD
BRANCH 59 66
ATOM     66   O  IDS C   4      64.607  34.529 100.1590  0.00  0.00     0.000 O
ATOM     67   S  IDS C   4      65.720  34.530  99.0220  0.00  0.00     0.000 S
ATOM     68   O  IDS C   4      66.798  35.283  99.6180  0.00  0.00     0.000 OA
ATOM     69   O  IDS C   4      66.012  33.130  98.7850  0.00  0.00     0.000 OA
ATOM     70   O  IDS C   4      65.158  35.217  97.8700  0.00  0.00     0.000 OA
ENDBRANCH 59 66
BRANCH 62 71
ATOM     71   C  IDS C   4      60.712  34.626 102.8960  0.00  0.00     0.000 C
ATOM     72   O  IDS C   4      60.322  33.606 102.3600  0.00  0.00     0.000 OA
ATOM     73   O  IDS C   4      60.189  35.042 103.9490  0.00  0.00     0.000 OA
ENDBRANCH 62 71
BRANCH 58 74
ATOM     74  O4  SGN C   5      62.130  37.202  99.9100  0.00  0.00     0.000 O
BRANCH 74 78
ATOM     75  C1  SGN C   5      59.705  39.703  97.6070  0.00  0.00     0.000 C
ATOM     76  C2  SGN C   5      59.002  38.945  98.7480  0.00  0.00     0.000 C
ATOM     77  C3  SGN C   5      60.031  38.345  99.7150  0.00  0.00     0.000 C
ATOM     78  C4  SGN C   5      61.130  37.597  98.9720  0.00  0.00     0.000 C
ATOM     79  C5  SGN C   5      61.726  38.502  97.9030  0.00  0.00     0.000 C
ATOM     80  O5  SGN C   5      60.687  38.897  96.9680  0.00  0.00     0.000 O
ATOM     81   O  SGN C   5      59.361  37.475 100.6220  0.00  0.00     0.000 O
ATOM     83  HD  SGN C   5      58.571  37.657 100.9250  0.00  0.00     0.000 HD
BRANCH 76 85
ATOM     83   N  SGN C   5      57.714  39.118  99.4330  0.00  0.00     0.000 N
ATOM     85  HD  SGN C   5      56.868  39.303  99.4390  0.00  0.00     0.000 HD
ATOM     85   S  SGN C   5      56.584  40.245  99.2140  0.00  0.00     0.000 S
ATOM     86   O  SGN C   5      55.471  40.004 100.0660  0.00  0.00     0.000 OA
ATOM     87   O  SGN C   5      57.223  41.507  99.3270  0.00  0.00     0.000 OA
ATOM     88   O  SGN C   5      56.250  39.866  97.7730  0.00  0.00     0.000 OA
ENDBRANCH 76 85
BRANCH 79 89
ATOM     89   C  SGN C   5      62.849  37.853  97.1210  0.00  0.00     0.000 C
ATOM     90   O  SGN C   5      63.358  38.783  96.1330  0.00  0.00     0.000 O
ATOM     91   S  SGN C   5      64.916  38.662  95.7650  0.00  0.00     0.000 S
ATOM     92   O  SGN C   5      65.633  38.709  97.0120  0.00  0.00     0.000 OA
ATOM     93   O  SGN C   5      65.092  37.410  95.0750  0.00  0.00     0.000 OA
ATOM     94   O  SGN C   5      65.147  39.808  94.9280  0.00  0.00     0.000 OA
ENDBRANCH 79 89
BRANCH 75 95
ATOM     95  O4  BDP C   6      60.305  40.782  98.1910  0.00  0.00     0.000 O
BRANCH 95 99
ATOM     96  C1  BDP C   6      61.177  44.650  96.5390  0.00  0.00     0.000 C
ATOM     97  C2  BDP C   6      60.008  43.879  95.9930  0.00  0.00     0.000 C
ATOM     98  C3  BDP C   6      59.547  42.713  96.8810  0.00  0.00     0.000 C
ATOM     99  C4  BDP C   6      60.724  41.849  97.3130  0.00  0.00     0.000 C
ATOM    100  C5  BDP C   6      61.819  42.782  97.8790  0.00  0.00     0.000 C
ATOM    101  O5  BDP C   6      62.139  43.638  96.7700  0.00  0.00     0.000 O
BRANCH 100 102
ATOM    102   C  BDP C   6      63.072  42.039  98.2690  0.00  0.00     0.000 C
ATOM    103   O  BDP C   6      63.954  41.751  97.4460  0.00  0.00     0.000 OA
ATOM    104   O  BDP C   6      63.193  41.734  99.4610  0.00  0.00     0.000 OA
ENDBRANCH 100 102
ENDBRANCH 95 99
ENDBRANCH 75 95
ENDBRANCH 74 78
ENDBRANCH 58 74
ENDBRANCH 57 61
ENDBRANCH 37 57
ENDBRANCH 36 40
ENDBRANCH 23 36
ENDBRANCH 22 26
ENDBRANCH 1 22
TORSDOF 20
ENDMDL
MODEL 36
REMARK VINA RESULT:      -0.4     73.582     78.364
ROOT
ATOM      1  C1  NGY C   1      35.843  80.101  80.3250  0.00  0.00     0.000 C
ATOM      2  C2  NGY C   1      34.803  80.981  81.0040  0.00  0.00     0.000 C
ATOM      3  C3  NGY C   1      33.399  80.463  80.7100  0.00  0.00     0.000 C
ATOM      4  C4  NGY C   1      33.235  80.361  79.2050  0.00  0.00     0.000 C
ATOM      5  C5  NGY C   1      34.280  79.390  78.6640  0.00  0.00     0.000 C
ATOM      6  O5  NGY C   1      35.596  79.935  78.9450  0.00  0.00     0.000 O
ATOM      7   O  NGY C   1      32.446  81.341  81.2920  0.00  0.00     0.000 O
ATOM      9  HD  NGY C   1      32.362  82.192  81.4250  0.00  0.00     0.000 HD
ATOM      9   O  NGY C   1      31.931  79.914  78.8650  0.00  0.00     0.000 O
ATOM     11  HD  NGY C   1      31.846  80.766  78.9980  0.00  0.00     0.000 HD
ENDROOT
BRANCH 2 13
ATOM     11   N  NGY C   1      35.315  81.088  82.3500  0.00  0.00     0.000 N
ATOM     13  HD  NGY C   1      34.993  81.866  82.5550  0.00  0.00     0.000 HD
ATOM     13   C  NGY C   1      35.075  82.159  83.1050  0.00  0.00     0.000 C
ATOM     14   O  NGY C   1      34.529  83.160  82.6370  0.00  0.00     0.000 OA
ATOM     15   C  NGY C   1      35.475  82.069  84.5460  0.00  0.00     0.000 C
ENDBRANCH 2 13
BRANCH 5 16
ATOM     16   C  NGY C   1      34.240  79.174  77.1850  0.00  0.00     0.000 C
ATOM     17   O  NGY C   1      32.798  76.204  75.5850  0.00  0.00     0.000 OA
ATOM     18   O  NGY C   1      33.813  77.834  76.9270  0.00  0.00     0.000 O
ATOM     19   S  NGY C   1      33.285  77.556  75.4740  0.00  0.00     0.000 S
ATOM     20   O  NGY C   1      34.412  77.662  74.5840  0.00  0.00     0.000 OA
ATOM     21   O  NGY C   1      32.272  78.575  75.2510  0.00  0.00     0.000 OA
ENDBRANCH 5 16
BRANCH 1 22
ATOM     22  O4  BDP C   2      35.915  78.926  80.9850  0.00  0.00     0.000 O
BRANCH 22 26
ATOM     23  C1  BDP C   2      38.079  75.711  82.3810  0.00  0.00     0.000 C
ATOM     24  C2  BDP C   2      38.656  77.071  82.6990  0.00  0.00     0.000 C
ATOM     25  C3  BDP C   2      37.611  78.130  82.4660  0.00  0.00     0.000 C
ATOM     26  C4  BDP C   2      37.035  78.004  81.0600  0.00  0.00     0.000 C
ATOM     27  C5  BDP C   2      36.648  76.556  80.7880  0.00  0.00     0.000 C
ATOM     28  O5  BDP C   2      37.757  75.637  80.9640  0.00  0.00     0.000 O
ATOM     29   O  BDP C   2      38.979  77.215  84.0820  0.00  0.00     0.000 O
ATOM     31  HD  BDP C   2      38.851  77.997  84.4310  0.00  0.00     0.000 HD
ATOM     31   O  BDP C   2      38.257  79.388  82.6190  0.00  0.00     0.000 O
ATOM     33  HD  BDP C   2      38.129  80.171  82.9670  0.00  0.00     0.000 HD
BRANCH 27 33
ATOM     33   C  BDP C   2      36.160  76.344  79.3750  0.00  0.00     0.000 C
ATOM     34   O  BDP C   2      35.134  75.669  79.1190  0.00  0.00     0.000 OA
ATOM     35   O  BDP C   2      36.810  76.821  78.4590  0.00  0.00     0.000 OA
ENDBRANCH 27 33
BRANCH 23 36
ATOM     36  O4  SGN C   3      38.879  74.660  82.6740  0.00  0.00     0.000 O
BRANCH 36 40
ATOM     37  C1  SGN C   3      39.033  70.797  84.2510  0.00  0.00     0.000 C
ATOM     38  C2  SGN C   3      38.608  70.952  82.7810  0.00  0.00     0.000 C
ATOM     39  C3  SGN C   3      39.018  72.318  82.2500  0.00  0.00     0.000 C
ATOM     40  C4  SGN C   3      38.421  73.387  83.1400  0.00  0.00     0.000 C
ATOM     41  C5  SGN C   3      38.872  73.144  84.5640  0.00  0.00     0.000 C
ATOM     42  O5  SGN C   3      38.435  71.846  84.9960  0.00  0.00     0.000 O
ATOM     43   O  SGN C   3      38.560  72.457  80.9110  0.00  0.00     0.000 O
ATOM     45  HD  SGN C   3      38.619  73.236  81.2840  0.00  0.00     0.000 HD
BRANCH 38 47
ATOM     45   N  SGN C   3      37.772  69.946  82.1030  0.00  0.00     0.000 N
ATOM     47  HD  SGN C   3      37.927  70.779  82.2800  0.00  0.00     0.000 HD
ATOM     47   S  SGN C   3      38.479  68.523  82.0450  0.00  0.00     0.000 S
ATOM     48   O  SGN C   3      39.637  68.553  81.2230  0.00  0.00     0.000 OA
ATOM     49   O  SGN C   3      38.664  68.103  83.3960  0.00  0.00     0.000 OA
ATOM     50   O  SGN C   3      37.469  67.716  81.3630  0.00  0.00     0.000 OA
ENDBRANCH 38 47
BRANCH 41 51
ATOM     51   C  SGN C   3      38.348  74.148  85.5550  0.00  0.00     0.000 C
ATOM     52   O  SGN C   3      34.834  75.326  85.9280  0.00  0.00     0.000 OA
ATOM     53   O  SGN C   3      36.519  75.004  87.5980  0.00  0.00     0.000 OA
ATOM     54   O  SGN C   3      36.797  76.673  85.8950  0.00  0.00     0.000 OA
ATOM     55   O  SGN C   3      36.953  74.267  85.3880  0.00  0.00     0.000 O
ATOM     56   S  SGN C   3      36.207  75.427  86.2870  0.00  0.00     0.000 S
ENDBRANCH 41 51
BRANCH 37 57
ATOM     57  O4  IDS C   4      40.372  70.839  84.4590  0.00  0.00     0.000 O
BRANCH 57 61
ATOM     58  C1  IDS C   4      43.283  68.827  85.8560  0.00  0.00     0.000 C
ATOM     59  C2  IDS C   4      42.045  68.101  85.4340  0.00  0.00     0.000 C
ATOM     60  C3  IDS C   4      40.763  68.844  85.8180  0.00  0.00     0.000 C
ATOM     61  C4  IDS C   4      40.810  70.364  85.7470  0.00  0.00     0.000 C
ATOM     62  C5  IDS C   4      42.217  70.880  86.0710  0.00  0.00     0.000 C
ATOM     63  O5  IDS C   4      43.218  70.156  85.3690  0.00  0.00     0.000 O
ATOM     64   O  IDS C   4      40.501  68.468  87.1570  0.00  0.00     0.000 O
ATOM     66  HD  IDS C   4      40.594  69.148  87.6860  0.00  0.00     0.000 HD
BRANCH 59 66
ATOM     66   O  IDS C   4      41.997  67.914  83.9710  0.00  0.00     0.000 O
ATOM     67   S  IDS C   4      42.144  66.420  83.4410  0.00  0.00     0.000 S
ATOM     68   O  IDS C   4      40.960  65.772  83.9520  0.00  0.00     0.000 OA
ATOM     69   O  IDS C   4      42.199  66.541  81.9970  0.00  0.00     0.000 OA
ATOM     70   O  IDS C   4      43.354  65.871  84.0320  0.00  0.00     0.000 OA
ENDBRANCH 59 66
BRANCH 62 71
ATOM     71   C  IDS C   4      42.420  72.334  85.6890  0.00  0.00     0.000 C
ATOM     72   O  IDS C   4      43.185  72.628  84.7910  0.00  0.00     0.000 OA
ATOM     73   O  IDS C   4      41.869  73.212  86.3820  0.00  0.00     0.000 OA
ENDBRANCH 62 71
BRANCH 58 74
ATOM     74  O4  SGN C   5      43.667  68.607  87.1450  0.00  0.00     0.000 O
BRANCH 74 78
ATOM     75  C1  SGN C   5      46.856  68.034  89.7810  0.00  0.00     0.000 C
ATOM     76  C2  SGN C   5      46.726  69.444  89.1740  0.00  0.00     0.000 C
ATOM     77  C3  SGN C   5      45.353  69.625  88.5120  0.00  0.00     0.000 C
ATOM     78  C4  SGN C   5      45.011  68.454  87.6020  0.00  0.00     0.000 C
ATOM     79  C5  SGN C   5      45.170  67.150  88.3710  0.00  0.00     0.000 C
ATOM     80  O5  SGN C   5      46.541  67.023  88.8320  0.00  0.00     0.000 O
ATOM     81   O  SGN C   5      45.351  70.845  87.7790  0.00  0.00     0.000 O
ATOM     83  HD  SGN C   5      45.764  71.550  88.0680  0.00  0.00     0.000 HD
BRANCH 76 85
ATOM     83   N  SGN C   5      47.938  69.827  89.9090  0.00  0.00     0.000 N
ATOM     85  HD  SGN C   5      48.344  70.167  90.5940  0.00  0.00     0.000 HD
ATOM     85   S  SGN C   5      48.235  71.154  90.7710  0.00  0.00     0.000 S
ATOM     86   O  SGN C   5      49.531  71.090  91.3520  0.00  0.00     0.000 OA
ATOM     87   O  SGN C   5      47.956  72.267  89.9360  0.00  0.00     0.000 OA
ATOM     88   O  SGN C   5      47.160  70.910  91.8270  0.00  0.00     0.000 OA
ENDBRANCH 76 85
BRANCH 79 89
ATOM     89   C  SGN C   5      44.827  65.921  87.5530  0.00  0.00     0.000 C
ATOM     90   O  SGN C   5      45.999  65.472  86.8290  0.00  0.00     0.000 O
ATOM     91   S  SGN C   5      46.119  63.894  86.5620  0.00  0.00     0.000 S
ATOM     92   O  SGN C   5      45.959  63.252  87.8400  0.00  0.00     0.000 OA
ATOM     93   O  SGN C   5      45.075  63.541  85.6340  0.00  0.00     0.000 OA
ATOM     94   O  SGN C   5      47.440  63.752  86.0110  0.00  0.00     0.000 OA
ENDBRANCH 79 89
BRANCH 75 95
ATOM     95  O4  BDP C   6      45.962  67.989  90.8130  0.00  0.00     0.000 O
BRANCH 95 99
ATOM     96  C1  BDP C   6      45.990  65.863  94.5440  0.00  0.00     0.000 C
ATOM     97  C2  BDP C   6      47.242  66.570  94.1080  0.00  0.00     0.000 C
ATOM     98  C3  BDP C   6      47.031  67.598  92.9860  0.00  0.00     0.000 C
ATOM     99  C4  BDP C   6      46.210  67.012  91.8470  0.00  0.00     0.000 C
ATOM    100  C5  BDP C   6      44.947  66.357  92.4550  0.00  0.00     0.000 C
ATOM    101  O5  BDP C   6      45.480  65.348  93.3290  0.00  0.00     0.000 O
BRANCH 100 102
ATOM    102   C  BDP C   6      44.092  65.671  91.4200  0.00  0.00     0.000 C
ATOM    103   O  BDP C   6      43.015  66.146  91.0320  0.00  0.00     0.000 OA
ATOM    104   O  BDP C   6      44.520  64.607  90.9580  0.00  0.00     0.000 OA
ENDBRANCH 100 102
ENDBRANCH 95 99
ENDBRANCH 75 95
ENDBRANCH 74 78
ENDBRANCH 58 74
ENDBRANCH 57 61
ENDBRANCH 37 57
ENDBRANCH 36 40
ENDBRANCH 23 36
ENDBRANCH 22 26
ENDBRANCH 1 22
TORSDOF 20
ENDMDL
MODEL 37
REMARK VINA RESULT:      -0.4     87.394     94.615
ROOT
ATOM      1  C1  NGY C   1      69.849  62.079  91.0470  0.00  0.00     0.000 C
ATOM      2  C2  NGY C   1      69.552  60.663  91.5210  0.00  0.00     0.000 C
ATOM      3  C3  NGY C   1      70.407  59.659  90.7550  0.00  0.00     0.000 C
ATOM      4  C4  NGY C   1      70.179  59.875  89.2710  0.00  0.00     0.000 C
ATOM      5  C5  NGY C   1      70.591  61.300  88.9140  0.00  0.00     0.000 C
ATOM      6  O5  NGY C   1      69.738  62.217  89.6460  0.00  0.00     0.000 O
ATOM      7   O  NGY C   1      70.060  58.343  91.1620  0.00  0.00     0.000 O
ATOM      9  HD  NGY C   1      69.343  57.916  91.3940  0.00  0.00     0.000 HD
ATOM      9   O  NGY C   1      70.925  58.943  88.5010  0.00  0.00     0.000 O
ATOM     11  HD  NGY C   1      70.208  58.516  88.7330  0.00  0.00     0.000 HD
ENDROOT
BRANCH 2 13
ATOM     11   N  NGY C   1      69.620  60.795  92.9570  0.00  0.00     0.000 N
ATOM     13  HD  NGY C   1      69.069  60.164  93.1760  0.00  0.00     0.000 HD
ATOM     13   C  NGY C   1      68.911  60.008  93.7650  0.00  0.00     0.000 C
ATOM     14   O  NGY C   1      68.064  59.234  93.3180  0.00  0.00     0.000 OA
ATOM     15   C  NGY C   1      69.219  60.096  95.2290  0.00  0.00     0.000 C
ENDBRANCH 2 13
BRANCH 5 16
ATOM     16   C  NGY C   1      70.433  61.665  87.4730  0.00  0.00     0.000 C
ATOM     17   O  NGY C   1      67.246  62.646  85.9440  0.00  0.00     0.000 OA
ATOM     18   O  NGY C   1      69.039  61.779  87.1770  0.00  0.00     0.000 O
ATOM     19   S  NGY C   1      68.684  62.576  85.8700  0.00  0.00     0.000 S
ATOM     20   O  NGY C   1      69.138  61.787  84.7550  0.00  0.00     0.000 OA
ATOM     21   O  NGY C   1      69.386  63.841  86.0110  0.00  0.00     0.000 OA
ENDBRANCH 5 16
BRANCH 1 22
ATOM     22  O4  BDP C   2      71.062  62.446  91.5100  0.00  0.00     0.000 O
BRANCH 22 26
ATOM     23  C1  BDP C   2      73.707  65.299  92.8620  0.00  0.00     0.000 C
ATOM     24  C2  BDP C   2      72.450  65.139  93.6830  0.00  0.00     0.000 C
ATOM     25  C3  BDP C   2      71.764  63.850  93.3110  0.00  0.00     0.000 C
ATOM     26  C4  BDP C   2      71.546  63.784  91.8030  0.00  0.00     0.000 C
ATOM     27  C5  BDP C   2      72.839  64.134  91.0770  0.00  0.00     0.000 C
ATOM     28  O5  BDP C   2      73.359  65.435  91.4560  0.00  0.00     0.000 O
ATOM     29   O  BDP C   2      72.724  64.984  95.0750  0.00  0.00     0.000 O
ATOM     31  HD  BDP C   2      72.205  64.449  95.5150  0.00  0.00     0.000 HD
ATOM     31   O  BDP C   2      70.513  63.836  93.9870  0.00  0.00     0.000 O
ATOM     33  HD  BDP C   2      69.994  63.301  94.4270  0.00  0.00     0.000 HD
BRANCH 27 33
ATOM     33   C  BDP C   2      72.664  64.183  89.5780  0.00  0.00     0.000 C
ATOM     34   O  BDP C   2      71.751  64.850  89.0350  0.00  0.00     0.000 OA
ATOM     35   O  BDP C   2      73.419  63.522  88.8850  0.00  0.00     0.000 OA
ENDBRANCH 27 33
BRANCH 23 36
ATOM     36  O4  SGN C   3      74.485  66.356  93.1940  0.00  0.00     0.000 O
BRANCH 36 40
ATOM     37  C1  SGN C   3      78.396  67.697  93.7700  0.00  0.00     0.000 C
ATOM     38  C2  SGN C   3      77.859  67.659  92.3300  0.00  0.00     0.000 C
ATOM     39  C3  SGN C   3      76.339  67.580  92.3310  0.00  0.00     0.000 C
ATOM     40  C4  SGN C   3      75.914  66.372  93.1380  0.00  0.00     0.000 C
ATOM     41  C5  SGN C   3      76.504  66.481  94.5270  0.00  0.00     0.000 C
ATOM     42  O5  SGN C   3      77.936  66.535  94.4420  0.00  0.00     0.000 O
ATOM     43   O  SGN C   3      75.874  67.487  90.9910  0.00  0.00     0.000 O
ATOM     45  HD  SGN C   3      75.309  67.108  91.5260  0.00  0.00     0.000 HD
BRANCH 38 47
ATOM     45   N  SGN C   3      79.321  67.698  92.1490  0.00  0.00     0.000 N
ATOM     47  HD  SGN C   3      78.626  67.285  92.4610  0.00  0.00     0.000 HD
ATOM     47   S  SGN C   3      79.760  68.773  91.0650  0.00  0.00     0.000 S
ATOM     48   O  SGN C   3      79.308  68.415  89.7670  0.00  0.00     0.000 OA
ATOM     49   O  SGN C   3      79.346  70.045  91.5590  0.00  0.00     0.000 OA
ATOM     50   O  SGN C   3      81.216  68.637  91.0830  0.00  0.00     0.000 OA
ENDBRANCH 38 47
BRANCH 41 51
ATOM     51   C  SGN C   3      76.150  65.336  95.4370  0.00  0.00     0.000 C
ATOM     52   O  SGN C   3      76.353  61.697  94.6680  0.00  0.00     0.000 OA
ATOM     53   O  SGN C   3      76.718  62.839  96.7400  0.00  0.00     0.000 OA
ATOM     54   O  SGN C   3      74.545  62.837  95.7170  0.00  0.00     0.000 OA
ATOM     55   O  SGN C   3      76.421  64.123  94.7700  0.00  0.00     0.000 O
ATOM     56   S  SGN C   3      75.965  62.746  95.5470  0.00  0.00     0.000 S
ENDBRANCH 41 51
BRANCH 37 57
ATOM     57  O4  IDS C   4      78.015  68.781  94.4890  0.00  0.00     0.000 O
BRANCH 57 61
ATOM     58  C1  IDS C   4      78.647  71.997  96.4190  0.00  0.00     0.000 C
ATOM     59  C2  IDS C   4      79.250  71.846  95.0580  0.00  0.00     0.000 C
ATOM     60  C3  IDS C   4      79.787  70.435  94.8030  0.00  0.00     0.000 C
ATOM     61  C4  IDS C   4      78.997  69.285  95.4130  0.00  0.00     0.000 C
ATOM     62  C5  IDS C   4      78.341  69.716  96.7300  0.00  0.00     0.000 C
ATOM     63  O5  IDS C   4      77.688  70.971  96.6080  0.00  0.00     0.000 O
ATOM     64   O  IDS C   4      81.089  70.426  95.3580  0.00  0.00     0.000 O
ATOM     66  HD  IDS C   4      81.123  69.897  96.0420  0.00  0.00     0.000 HD
BRANCH 59 66
ATOM     66   O  IDS C   4      78.265  72.117  93.9950  0.00  0.00     0.000 O
ATOM     67   S  IDS C   4      78.485  73.444  93.1440  0.00  0.00     0.000 S
ATOM     68   O  IDS C   4      79.732  73.193  92.4610  0.00  0.00     0.000 OA
ATOM     69   O  IDS C   4      77.323  73.531  92.2810  0.00  0.00     0.000 OA
ATOM     70   O  IDS C   4      78.602  74.545  94.0860  0.00  0.00     0.000 OA
ENDBRANCH 59 66
BRANCH 62 71
ATOM     71   C  IDS C   4      77.277  68.746  97.2090  0.00  0.00     0.000 C
ATOM     72   O  IDS C   4      77.596  67.657  97.6450  0.00  0.00     0.000 OA
ATOM     73   O  IDS C   4      76.079  69.052  97.0460  0.00  0.00     0.000 OA
ENDBRANCH 62 71
BRANCH 58 74
ATOM     74  O4  SGN C   5      79.537  72.270  97.4150  0.00  0.00     0.000 O
BRANCH 74 78
ATOM     75  C1  SGN C   5      80.317  74.459 100.8850  0.00  0.00     0.000 C
ATOM     76  C2  SGN C   5      79.347  73.272 101.0390  0.00  0.00     0.000 C
ATOM     77  C3  SGN C   5      79.409  72.358  99.8080  0.00  0.00     0.000 C
ATOM     78  C4  SGN C   5      79.316  73.155  98.5130  0.00  0.00     0.000 C
ATOM     79  C5  SGN C   5      80.358  74.263  98.5250  0.00  0.00     0.000 C
ATOM     80  O5  SGN C   5      80.119  75.143  99.6550  0.00  0.00     0.000 O
ATOM     81   O  SGN C   5      78.352  71.407  99.8860  0.00  0.00     0.000 O
ATOM     83  HD  SGN C   5      78.106  71.062 100.6410  0.00  0.00     0.000 HD
BRANCH 76 85
ATOM     83   N  SGN C   5      78.777  72.593 102.2090  0.00  0.00     0.000 N
ATOM     85  HD  SGN C   5      78.515  72.577 103.0350  0.00  0.00     0.000 HD
ATOM     85   S  SGN C   5      79.211  72.686 103.7580  0.00  0.00     0.000 S
ATOM     86   O  SGN C   5      78.351  71.890 104.5630  0.00  0.00     0.000 OA
ATOM     87   O  SGN C   5      80.600  72.402 103.8200  0.00  0.00     0.000 OA
ATOM     88   O  SGN C   5      78.891  74.168 103.9310  0.00  0.00     0.000 OA
ENDBRANCH 76 85
BRANCH 79 89
ATOM     89   C  SGN C   5      80.362  75.101  97.2620  0.00  0.00     0.000 C
ATOM     90   O  SGN C   5      79.982  76.463  97.5770  0.00  0.00     0.000 O
ATOM     91   S  SGN C   5      80.627  77.619  96.6690  0.00  0.00     0.000 S
ATOM     92   O  SGN C   5      82.051  77.407  96.6920  0.00  0.00     0.000 OA
ATOM     93   O  SGN C   5      80.071  77.481  95.3480  0.00  0.00     0.000 OA
ATOM     94   O  SGN C   5      80.218  78.827  97.3330  0.00  0.00     0.000 OA
ENDBRANCH 79 89
BRANCH 75 95
ATOM     95  O4  BDP C   6      81.572  73.920 100.9140  0.00  0.00     0.000 O
BRANCH 95 99
ATOM     96  C1  BDP C   6      85.210  75.501 102.5610  0.00  0.00     0.000 C
ATOM     97  C2  BDP C   6      83.904  75.882 103.1990  0.00  0.00     0.000 C
ATOM     98  C3  BDP C   6      82.719  74.989 102.8000  0.00  0.00     0.000 C
ATOM     99  C4  BDP C   6      82.651  74.802 101.2920  0.00  0.00     0.000 C
ATOM    100  C5  BDP C   6      84.055  74.380 100.7980  0.00  0.00     0.000 C
ATOM    101  O5  BDP C   6      84.892  75.483 101.1810  0.00  0.00     0.000 O
BRANCH 100 102
ATOM    102   C  BDP C   6      84.127  74.241  99.2990  0.00  0.00     0.000 C
ATOM    103   O  BDP C   6      83.770  75.147  98.5320  0.00  0.00     0.000 OA
ATOM    104   O  BDP C   6      84.574  73.176  98.8570  0.00  0.00     0.000 OA
ENDBRANCH 100 102
ENDBRANCH 95 99
ENDBRANCH 75 95
ENDBRANCH 74 78
ENDBRANCH 58 74
ENDBRANCH 57 61
ENDBRANCH 37 57
ENDBRANCH 36 40
ENDBRANCH 23 36
ENDBRANCH 22 26
ENDBRANCH 1 22
TORSDOF 20
ENDMDL
MODEL 38
REMARK VINA RESULT:      -0.3     99.090    108.678
ROOT
ATOM      1  C1  NGY C   1      24.970  81.113 112.6830  0.00  0.00     0.000 C
ATOM      2  C2  NGY C   1      24.450  80.025 111.7530  0.00  0.00     0.000 C
ATOM      3  C3  NGY C   1      23.161  79.426 112.3080  0.00  0.00     0.000 C
ATOM      4  C4  NGY C   1      23.428  78.953 113.7240  0.00  0.00     0.000 C
ATOM      5  C5  NGY C   1      23.860  80.150 114.5670  0.00  0.00     0.000 C
ATOM      6  O5  NGY C   1      25.099  80.670 114.0170  0.00  0.00     0.000 O
ATOM      7   O  NGY C   1      22.736  78.367 111.4620  0.00  0.00     0.000 O
ATOM      9  HD  NGY C   1      23.105  77.741 110.9910  0.00  0.00     0.000 HD
ATOM      9   O  NGY C   1      22.270  78.353 114.2860  0.00  0.00     0.000 O
ATOM     11  HD  NGY C   1      22.639  77.727 113.8150  0.00  0.00     0.000 HD
ENDROOT
BRANCH 2 13
ATOM     11   N  NGY C   1      24.526  80.669 110.4630  0.00  0.00     0.000 N
ATOM     13  HD  NGY C   1      24.624  79.966 109.9670  0.00  0.00     0.000 HD
ATOM     13   C  NGY C   1      24.686  79.969 109.3410  0.00  0.00     0.000 C
ATOM     14   O  NGY C   1      24.918  78.759 109.3730  0.00  0.00     0.000 OA
ATOM     15   C  NGY C   1      24.541  80.720 108.0530  0.00  0.00     0.000 C
ENDBRANCH 2 13
BRANCH 5 16
ATOM     16   C  NGY C   1      24.152  79.844 116.0010  0.00  0.00     0.000 C
ATOM     17   O  NGY C   1      21.775  80.397 118.7400  0.00  0.00     0.000 OA
ATOM     18   O  NGY C   1      23.101  80.379 116.8090  0.00  0.00     0.000 O
ATOM     19   S  NGY C   1      22.990  79.789 118.2610  0.00  0.00     0.000 S
ATOM     20   O  NGY C   1      24.150  80.232 118.9900  0.00  0.00     0.000 OA
ATOM     21   O  NGY C   1      22.942  78.349 118.0680  0.00  0.00     0.000 OA
ENDBRANCH 5 16
BRANCH 1 22
ATOM     22  O4  BDP C   2      24.174  82.197 112.5700  0.00  0.00     0.000 O
BRANCH 22 26
ATOM     23  C1  BDP C   2      23.628  86.279 112.5240  0.00  0.00     0.000 C
ATOM     24  C2  BDP C   2      24.677  85.753 111.5730  0.00  0.00     0.000 C
ATOM     25  C3  BDP C   2      24.521  84.263 111.4230  0.00  0.00     0.000 C
ATOM     26  C4  BDP C   2      24.517  83.591 112.7920  0.00  0.00     0.000 C
ATOM     27  C5  BDP C   2      23.550  84.314 113.7200  0.00  0.00     0.000 C
ATOM     28  O5  BDP C   2      23.851  85.727 113.8520  0.00  0.00     0.000 O
ATOM     29   O  BDP C   2      24.503  86.246 110.2450  0.00  0.00     0.000 O
ATOM     31  HD  BDP C   2      24.695  85.700 109.6010  0.00  0.00     0.000 HD
ATOM     31   O  BDP C   2      25.629  83.806 110.6570  0.00  0.00     0.000 O
ATOM     33  HD  BDP C   2      25.821  83.260 110.0130  0.00  0.00     0.000 HD
BRANCH 27 33
ATOM     33   C  BDP C   2      23.571  83.757 115.1230  0.00  0.00     0.000 C
ATOM     34   O  BDP C   2      24.637  83.624 115.7700  0.00  0.00     0.000 OA
ATOM     35   O  BDP C   2      22.517  83.397 115.6210  0.00  0.00     0.000 OA
ENDBRANCH 27 33
BRANCH 23 36
ATOM     36  O4  SGN C   3      23.578  87.626 112.6440  0.00  0.00     0.000 O
BRANCH 36 40
ATOM     37  C1  SGN C   3      21.069  90.954 112.9050  0.00  0.00     0.000 C
ATOM     38  C2  SGN C   3      21.381  90.191 114.2030  0.00  0.00     0.000 C
ATOM     39  C3  SGN C   3      22.612  89.315 114.0230  0.00  0.00     0.000 C
ATOM     40  C4  SGN C   3      22.384  88.387 112.8480  0.00  0.00     0.000 C
ATOM     41  C5  SGN C   3      22.062  89.218 111.6260  0.00  0.00     0.000 C
ATOM     42  O5  SGN C   3      20.884  90.002 111.8690  0.00  0.00     0.000 O
ATOM     43   O  SGN C   3      22.842  88.577 115.2170  0.00  0.00     0.000 O
ATOM     45  HD  SGN C   3      23.155  88.142 114.5370  0.00  0.00     0.000 HD
BRANCH 38 47
ATOM     45   N  SGN C   3      20.174  90.974 114.5210  0.00  0.00     0.000 N
ATOM     47  HD  SGN C   3      20.556  90.372 114.0280  0.00  0.00     0.000 HD
ATOM     47   S  SGN C   3      20.284  91.693 115.9340  0.00  0.00     0.000 S
ATOM     48   O  SGN C   3      20.314  90.748 116.9950  0.00  0.00     0.000 OA
ATOM     49   O  SGN C   3      21.384  92.596 115.8490  0.00  0.00     0.000 OA
ATOM     50   O  SGN C   3      19.008  92.403 116.0060  0.00  0.00     0.000 OA
ENDBRANCH 38 47
BRANCH 41 51
ATOM     51   C  SGN C   3      21.817  88.411 110.3800  0.00  0.00     0.000 C
ATOM     52   O  SGN C   3      19.631  85.415 110.0280  0.00  0.00     0.000 OA
ATOM     53   O  SGN C   3      20.102  87.152 108.4490  0.00  0.00     0.000 OA
ATOM     54   O  SGN C   3      21.845  85.676 109.1900  0.00  0.00     0.000 OA
ATOM     55   O  SGN C   3      20.885  87.394 110.6730  0.00  0.00     0.000 O
ATOM     56   S  SGN C   3      20.590  86.308 109.4720  0.00  0.00     0.000 S
ENDBRANCH 41 51
BRANCH 37 57
ATOM     57  O4  IDS C   4      22.033  91.823 112.5150  0.00  0.00     0.000 O
BRANCH 57 61
ATOM     58  C1  IDS C   4      21.996  95.473 111.4430  0.00  0.00     0.000 C
ATOM     59  C2  IDS C   4      20.741  94.874 111.9950  0.00  0.00     0.000 C
ATOM     60  C3  IDS C   4      20.504  93.442 111.5070  0.00  0.00     0.000 C
ATOM     61  C4  IDS C   4      21.740  92.573 111.3200  0.00  0.00     0.000 C
ATOM     62  C5  IDS C   4      22.944  93.423 110.8980  0.00  0.00     0.000 C
ATOM     63  O5  IDS C   4      23.073  94.588 111.6990  0.00  0.00     0.000 O
ATOM     64   O  IDS C   4      19.862  93.578 110.2530  0.00  0.00     0.000 O
ATOM     66  HD  IDS C   4      20.378  93.298 109.6160  0.00  0.00     0.000 HD
BRANCH 59 66
ATOM     66   O  IDS C   4      20.773  94.813 113.4690  0.00  0.00     0.000 O
ATOM     67   S  IDS C   4      19.691  95.690 114.2390  0.00  0.00     0.000 S
ATOM     68   O  IDS C   4      18.440  95.082 113.8530  0.00  0.00     0.000 OA
ATOM     69   O  IDS C   4      20.030  95.552 115.6420  0.00  0.00     0.000 OA
ATOM     70   O  IDS C   4      19.804  97.051 113.7370  0.00  0.00     0.000 OA
ENDBRANCH 59 66
BRANCH 62 71
ATOM     71   C  IDS C   4      24.265  92.689 111.0270  0.00  0.00     0.000 C
ATOM     72   O  IDS C   4      25.121  93.103 111.7850  0.00  0.00     0.000 OA
ATOM     73   O  IDS C   4      24.485  91.725 110.2670  0.00  0.00     0.000 OA
ENDBRANCH 62 71
BRANCH 58 74
ATOM     74  O4  SGN C   5      21.871  96.029 110.2040  0.00  0.00     0.000 O
BRANCH 74 78
ATOM     75  C1  SGN C   5      22.923  99.190 107.6850  0.00  0.00     0.000 C
ATOM     76  C2  SGN C   5      24.079  98.287 108.1550  0.00  0.00     0.000 C
ATOM     77  C3  SGN C   5      23.537  96.991 108.7750  0.00  0.00     0.000 C
ATOM     78  C4  SGN C   5      22.434  97.272 109.7850  0.00  0.00     0.000 C
ATOM     79  C5  SGN C   5      21.371  98.152 109.1450  0.00  0.00     0.000 C
ATOM     80  O5  SGN C   5      21.971  99.405 108.7190  0.00  0.00     0.000 O
ATOM     81   O  SGN C   5      24.613  96.290 109.3900  0.00  0.00     0.000 O
ATOM     83  HD  SGN C   5      25.406  96.279 109.0430  0.00  0.00     0.000 HD
BRANCH 76 85
ATOM     83   N  SGN C   5      24.710  98.902 106.9810  0.00  0.00     0.000 N
ATOM     85  HD  SGN C   5      25.225  98.876 106.2850  0.00  0.00     0.000 HD
ATOM     85   S  SGN C   5      26.215  98.745 106.4290  0.00  0.00     0.000 S
ATOM     86   O  SGN C   5      26.385  99.489 105.2300  0.00  0.00     0.000 OA
ATOM     87   O  SGN C   5      27.090  99.046 107.5050  0.00  0.00     0.000 OA
ATOM     88   O  SGN C   5      26.125  97.251 106.1260  0.00  0.00     0.000 OA
ENDBRANCH 76 85
BRANCH 79 89
ATOM     89   C  SGN C   5      20.213  98.469 110.0690  0.00  0.00     0.000 C
ATOM     90   O  SGN C   5      20.586  99.535 110.9760  0.00  0.00     0.000 O
ATOM     91   S  SGN C   5      19.411 100.517 111.4570  0.00  0.00     0.000 S
ATOM     92   O  SGN C   5      18.761 100.989 110.2620  0.00  0.00     0.000 OA
ATOM     93   O  SGN C   5      18.530  99.745 112.2940  0.00  0.00     0.000 OA
ATOM     94   O  SGN C   5      20.114 101.548 112.1710  0.00  0.00     0.000 OA
ENDBRANCH 79 89
BRANCH 75 95
ATOM     95  O4  BDP C   6      22.331  98.527 106.6470  0.00  0.00     0.000 O
BRANCH 95 99
ATOM     96  C1  BDP C   6      20.115  99.979 103.2660  0.00  0.00     0.000 C
ATOM     97  C2  BDP C   6      21.312 100.758 103.7330  0.00  0.00     0.000 C
ATOM     98  C3  BDP C   6      22.245  99.983 104.6750  0.00  0.00     0.000 C
ATOM     99  C4  BDP C   6      21.465  99.302 105.7890  0.00  0.00     0.000 C
ATOM    100  C5  BDP C   6      20.297  98.518 105.1450  0.00  0.00     0.000 C
ATOM    101  O5  BDP C   6      19.535  99.537 104.4800  0.00  0.00     0.000 O
BRANCH 100 102
ATOM    102   C  BDP C   6      19.404  97.862 106.1670  0.00  0.00     0.000 C
ATOM    103   O  BDP C   6      19.436  96.643 106.3890  0.00  0.00     0.000 OA
ATOM    104   O  BDP C   6      18.635  98.600 106.7930  0.00  0.00     0.000 OA
ENDBRANCH 100 102
ENDBRANCH 95 99
ENDBRANCH 75 95
ENDBRANCH 74 78
ENDBRANCH 58 74
ENDBRANCH 57 61
ENDBRANCH 37 57
ENDBRANCH 36 40
ENDBRANCH 23 36
ENDBRANCH 22 26
ENDBRANCH 1 22
TORSDOF 20
ENDMDL
MODEL 39
REMARK VINA RESULT:      -0.3    107.739    113.036
ROOT
ATOM      1  C1  NGY C   1      45.983  85.434 118.9590  0.00  0.00     0.000 C
ATOM      2  C2  NGY C   1      45.503  84.036 118.5970  0.00  0.00     0.000 C
ATOM      3  C3  NGY C   1      44.284  84.116 117.6840  0.00  0.00     0.000 C
ATOM      4  C4  NGY C   1      43.234  84.973 118.3660  0.00  0.00     0.000 C
ATOM      5  C5  NGY C   1      43.813  86.365 118.5970  0.00  0.00     0.000 C
ATOM      6  O5  NGY C   1      44.953  86.242 119.4870  0.00  0.00     0.000 O
ATOM      7   O  NGY C   1      43.812  82.803 117.4190  0.00  0.00     0.000 O
ATOM      9  HD  NGY C   1      43.738  82.054 117.8470  0.00  0.00     0.000 HD
ATOM      9   O  NGY C   1      42.057  85.058 117.5760  0.00  0.00     0.000 O
ATOM     11  HD  NGY C   1      41.983  84.309 118.0050  0.00  0.00     0.000 HD
ENDROOT
BRANCH 2 13
ATOM     11   N  NGY C   1      46.694  83.368 118.1250  0.00  0.00     0.000 N
ATOM     13  HD  NGY C   1      46.519  82.568 118.4070  0.00  0.00     0.000 HD
ATOM     13   C  NGY C   1      46.893  82.067 118.3310  0.00  0.00     0.000 C
ATOM     14   O  NGY C   1      46.139  81.414 119.0550  0.00  0.00     0.000 OA
ATOM     15   C  NGY C   1      48.055  81.444 117.6200  0.00  0.00     0.000 C
ENDBRANCH 2 13
BRANCH 5 16
ATOM     16   C  NGY C   1      42.888  87.337 119.2570  0.00  0.00     0.000 C
ATOM     17   O  NGY C   1      44.004  90.113 121.3800  0.00  0.00     0.000 OA
ATOM     18   O  NGY C   1      43.640  88.140 120.1710  0.00  0.00     0.000 O
ATOM     19   S  NGY C   1      42.957  89.483 120.6160  0.00  0.00     0.000 S
ATOM     20   O  NGY C   1      41.821  89.133 121.4280  0.00  0.00     0.000 OA
ATOM     21   O  NGY C   1      42.600  90.143 119.3710  0.00  0.00     0.000 OA
ENDBRANCH 5 16
BRANCH 1 22
ATOM     22  O4  BDP C   2      46.573  85.985 117.8770  0.00  0.00     0.000 O
BRANCH 22 26
ATOM     23  C1  BDP C   2      49.433  88.402 116.1620  0.00  0.00     0.000 C
ATOM     24  C2  BDP C   2      49.960  87.315 117.0700  0.00  0.00     0.000 C
ATOM     25  C3  BDP C   2      48.875  86.302 117.3270  0.00  0.00     0.000 C
ATOM     26  C4  BDP C   2      47.616  86.994 117.8380  0.00  0.00     0.000 C
ATOM     27  C5  BDP C   2      47.280  88.181 116.9440  0.00  0.00     0.000 C
ATOM     28  O5  BDP C   2      48.371  89.131 116.8390  0.00  0.00     0.000 O
ATOM     29   O  BDP C   2      50.997  86.549 116.4570  0.00  0.00     0.000 O
ATOM     31  HD  BDP C   2      51.018  85.705 116.6460  0.00  0.00     0.000 HD
ATOM     31   O  BDP C   2      49.373  85.405 118.3120  0.00  0.00     0.000 O
ATOM     33  HD  BDP C   2      49.394  84.560 118.5010  0.00  0.00     0.000 HD
BRANCH 27 33
ATOM     33   C  BDP C   2      46.096  88.970 117.4520  0.00  0.00     0.000 C
ATOM     34   O  BDP C   2      45.074  89.162 116.7510  0.00  0.00     0.000 OA
ATOM     35   O  BDP C   2      46.161  89.459 118.5680  0.00  0.00     0.000 OA
ENDBRANCH 27 33
BRANCH 23 36
ATOM     36  O4  SGN C   3      50.351  89.307 115.7490  0.00  0.00     0.000 O
BRANCH 36 40
ATOM     37  C1  SGN C   3      51.718  91.617 112.5520  0.00  0.00     0.000 C
ATOM     38  C2  SGN C   3      50.440  92.078 113.2710  0.00  0.00     0.000 C
ATOM     39  C3  SGN C   3      50.328  91.414 114.6350  0.00  0.00     0.000 C
ATOM     40  C4  SGN C   3      50.379  89.912 114.4540  0.00  0.00     0.000 C
ATOM     41  C5  SGN C   3      51.652  89.553 113.7210  0.00  0.00     0.000 C
ATOM     42  O5  SGN C   3      51.675  90.203 112.4400  0.00  0.00     0.000 O
ATOM     43   O  SGN C   3      49.110  91.812 115.2520  0.00  0.00     0.000 O
ATOM     45  HD  SGN C   3      49.347  91.032 115.5440  0.00  0.00     0.000 HD
BRANCH 38 47
ATOM     45   N  SGN C   3      49.421  92.922 112.6210  0.00  0.00     0.000 N
ATOM     47  HD  SGN C   3      49.606  92.232 113.1100  0.00  0.00     0.000 HD
ATOM     47   S  SGN C   3      50.017  94.315 112.1410  0.00  0.00     0.000 S
ATOM     48   O  SGN C   3      50.411  95.118 113.2450  0.00  0.00     0.000 OA
ATOM     49   O  SGN C   3      51.023  94.018 111.1750  0.00  0.00     0.000 OA
ATOM     50   O  SGN C   3      48.849  94.943 111.5270  0.00  0.00     0.000 OA
ENDBRANCH 38 47
BRANCH 41 51
ATOM     51   C  SGN C   3      51.827  88.078 113.4790  0.00  0.00     0.000 C
ATOM     52   O  SGN C   3      49.301  85.699 112.1220  0.00  0.00     0.000 OA
ATOM     53   O  SGN C   3      51.679  85.723 111.8390  0.00  0.00     0.000 OA
ATOM     54   O  SGN C   3      50.715  85.361 114.0090  0.00  0.00     0.000 OA
ATOM     55   O  SGN C   3      50.643  87.565 112.9110  0.00  0.00     0.000 O
ATOM     56   S  SGN C   3      50.580  85.934 112.7020  0.00  0.00     0.000 S
ENDBRANCH 41 51
BRANCH 37 57
ATOM     57  O4  IDS C   4      52.872  91.958 113.1750  0.00  0.00     0.000 O
BRANCH 57 61
ATOM     58  C1  IDS C   4      56.103  93.948 112.9000  0.00  0.00     0.000 C
ATOM     59  C2  IDS C   4      54.912  94.400 112.1160  0.00  0.00     0.000 C
ATOM     60  C3  IDS C   4      54.126  93.235 111.5090  0.00  0.00     0.000 C
ATOM     61  C4  IDS C   4      54.046  91.962 112.3400  0.00  0.00     0.000 C
ATOM     62  C5  IDS C   4      55.316  91.780 113.1800  0.00  0.00     0.000 C
ATOM     63  O5  IDS C   4      55.683  92.980 113.8460  0.00  0.00     0.000 O
ATOM     64   O  IDS C   4      54.786  92.933 110.2940  0.00  0.00     0.000 O
ATOM     66  HD  IDS C   4      55.159  92.153 110.3370  0.00  0.00     0.000 HD
BRANCH 59 66
ATOM     66   O  IDS C   4      53.962  95.153 112.9570  0.00  0.00     0.000 O
ATOM     67   S  IDS C   4      53.745  96.685 112.5870  0.00  0.00     0.000 S
ATOM     68   O  IDS C   4      53.140  96.625 111.2780  0.00  0.00     0.000 OA
ATOM     69   O  IDS C   4      52.887  97.204 113.6340  0.00  0.00     0.000 OA
ATOM     70   O  IDS C   4      55.060  97.307 112.5420  0.00  0.00     0.000 OA
ENDBRANCH 59 66
BRANCH 62 71
ATOM     71   C  IDS C   4      55.164  90.737 114.2700  0.00  0.00     0.000 C
ATOM     72   O  IDS C   4      55.121  91.075 115.4370  0.00  0.00     0.000 OA
ATOM     73   O  IDS C   4      55.190  89.532 113.9470  0.00  0.00     0.000 OA
ENDBRANCH 62 71
BRANCH 58 74
ATOM     74  O4  SGN C   5      57.224  93.715 112.1610  0.00  0.00     0.000 O
BRANCH 74 78
ATOM     75  C1  SGN C   5      61.389  93.999 112.0330  0.00  0.00     0.000 C
ATOM     76  C2  SGN C   5      60.818  92.676 112.5770  0.00  0.00     0.000 C
ATOM     77  C3  SGN C   5      59.322  92.558 112.2580  0.00  0.00     0.000 C
ATOM     78  C4  SGN C   5      58.569  93.830 112.6240  0.00  0.00     0.000 C
ATOM     79  C5  SGN C   5      59.255  95.028 111.9830  0.00  0.00     0.000 C
ATOM     80  O5  SGN C   5      60.623  95.117 112.4620  0.00  0.00     0.000 O
ATOM     81   O  SGN C   5      58.787  91.441 112.9600  0.00  0.00     0.000 O
ATOM     83  HD  SGN C   5      59.241  90.713 113.0690  0.00  0.00     0.000 HD
BRANCH 76 85
ATOM     83   N  SGN C   5      61.772  91.814 111.8670  0.00  0.00     0.000 N
ATOM     85  HD  SGN C   5      62.199  91.068 111.7610  0.00  0.00     0.000 HD
ATOM     85   S  SGN C   5      62.874  90.801 112.4620  0.00  0.00     0.000 S
ATOM     86   O  SGN C   5      63.553  90.130 111.4080  0.00  0.00     0.000 OA
ATOM     87   O  SGN C   5      63.670  91.538 113.3770  0.00  0.00     0.000 OA
ATOM     88   O  SGN C   5      61.884  89.862 113.1470  0.00  0.00     0.000 OA
ENDBRANCH 76 85
BRANCH 79 89
ATOM     89   C  SGN C   5      58.563  96.345 112.2700  0.00  0.00     0.000 C
ATOM     90   O  SGN C   5      59.426  97.445 111.8880  0.00  0.00     0.000 O
ATOM     91   S  SGN C   5      58.704  98.784 111.3770  0.00  0.00     0.000 S
ATOM     92   O  SGN C   5      57.798  98.383 110.3320  0.00  0.00     0.000 OA
ATOM     93   O  SGN C   5      58.020  99.355 112.5090  0.00  0.00     0.000 OA
ATOM     94   O  SGN C   5      59.797  99.590 110.9080  0.00  0.00     0.000 OA
ENDBRANCH 79 89
BRANCH 75 95
ATOM     95  O4  BDP C   6      61.329  93.897 110.6710  0.00  0.00     0.000 O
BRANCH 95 99
ATOM     96  C1  BDP C   6      63.804  95.646 107.6270  0.00  0.00     0.000 C
ATOM     97  C2  BDP C   6      64.439  95.235 108.9250  0.00  0.00     0.000 C
ATOM     98  C3  BDP C   6      63.581  94.290 109.7800  0.00  0.00     0.000 C
ATOM     99  C4  BDP C   6      62.156  94.807 109.9130  0.00  0.00     0.000 C
ATOM    100  C5  BDP C   6      61.637  95.151 108.4970  0.00  0.00     0.000 C
ATOM    101  O5  BDP C   6      62.551  96.160 108.0400  0.00  0.00     0.000 O
BRANCH 100 102
ATOM    102   C  BDP C   6      60.254  95.749 108.5140  0.00  0.00     0.000 C
ATOM    103   O  BDP C   6      60.062  96.973 108.5590  0.00  0.00     0.000 OA
ATOM    104   O  BDP C   6      59.303  94.960 108.4680  0.00  0.00     0.000 OA
ENDBRANCH 100 102
ENDBRANCH 95 99
ENDBRANCH 75 95
ENDBRANCH 74 78
ENDBRANCH 58 74
ENDBRANCH 57 61
ENDBRANCH 37 57
ENDBRANCH 36 40
ENDBRANCH 23 36
ENDBRANCH 22 26
ENDBRANCH 1 22
TORSDOF 20
ENDMDL
MODEL 40
REMARK VINA RESULT:      -0.3     69.942     73.559
ROOT
ATOM      1  C1  NGY C   1     100.817  13.472  19.6310  0.00  0.00     0.000 C
ATOM      2  C2  NGY C   1     100.245  14.868  19.4230  0.00  0.00     0.000 C
ATOM      3  C3  NGY C   1      98.873  14.783  18.7630  0.00  0.00     0.000 C
ATOM      4  C4  NGY C   1      99.008  13.974  17.4870  0.00  0.00     0.000 C
ATOM      5  C5  NGY C   1      99.509  12.577  17.8440  0.00  0.00     0.000 C
ATOM      6  O5  NGY C   1     100.823  12.705  18.4460  0.00  0.00     0.000 O
ATOM      7   O  NGY C   1      98.394  16.097  18.5130  0.00  0.00     0.000 O
ATOM      9  HD  NGY C   1      98.724  16.861  18.2760  0.00  0.00     0.000 HD
ATOM      9   O  NGY C   1      97.765  13.888  16.8060  0.00  0.00     0.000 O
ATOM     11  HD  NGY C   1      98.095  14.652  16.5690  0.00  0.00     0.000 HD
ENDROOT
BRANCH 2 13
ATOM     11   N  NGY C   1     100.450  15.479  20.7150  0.00  0.00     0.000 N
ATOM     13  HD  NGY C   1     100.516  16.305  20.4640  0.00  0.00     0.000 HD
ATOM     13   C  NGY C   1     100.615  16.794  20.8470  0.00  0.00     0.000 C
ATOM     14   O  NGY C   1     100.742  17.522  19.8610  0.00  0.00     0.000 OA
ATOM     15   C  NGY C   1     100.609  17.337  22.2430  0.00  0.00     0.000 C
ENDBRANCH 2 13
BRANCH 5 16
ATOM     16   C  NGY C   1      99.685  11.650  16.6840  0.00  0.00     0.000 C
ATOM     17   O  NGY C   1      97.339   8.959  15.8370  0.00  0.00     0.000 OA
ATOM     18   O  NGY C   1      98.714  10.603  16.7810  0.00  0.00     0.000 O
ATOM     19   S  NGY C   1      98.443   9.803  15.4570  0.00  0.00     0.000 S
ATOM     20   O  NGY C   1      99.634   9.048  15.1640  0.00  0.00     0.000 OA
ATOM     21   O  NGY C   1      98.146  10.825  14.4660  0.00  0.00     0.000 OA
ENDBRANCH 5 16
BRANCH 1 22
ATOM     22  O4  BDP C   2     100.143  12.872  20.6350  0.00  0.00     0.000 O
BRANCH 22 26
ATOM     23  C1  BDP C   2      99.999  10.342  23.8820  0.00  0.00     0.000 C
ATOM     24  C2  BDP C   2     101.021  11.450  23.9660  0.00  0.00     0.000 C
ATOM     25  C3  BDP C   2     100.725  12.492  22.9200  0.00  0.00     0.000 C
ATOM     26  C4  BDP C   2     100.613  11.842  21.5450  0.00  0.00     0.000 C
ATOM     27  C5  BDP C   2      99.692  10.631  21.6190  0.00  0.00     0.000 C
ATOM     28  O5  BDP C   2     100.125   9.657  22.6040  0.00  0.00     0.000 O
ATOM     29   O  BDP C   2     100.939  12.174  25.1940  0.00  0.00     0.000 O
ATOM     31  HD  BDP C   2     101.097  13.025  25.1540  0.00  0.00     0.000 HD
ATOM     31   O  BDP C   2     101.808  13.414  22.9370  0.00  0.00     0.000 O
ATOM     33  HD  BDP C   2     101.966  14.265  22.8970  0.00  0.00     0.000 HD
BRANCH 27 33
ATOM     33   C  BDP C   2      99.614   9.883  20.3090  0.00  0.00     0.000 C
ATOM     34   O  BDP C   2      98.523   9.499  19.8260  0.00  0.00     0.000 OA
ATOM     35   O  BDP C   2     100.654   9.620  19.7290  0.00  0.00     0.000 OA
ENDBRANCH 27 33
BRANCH 23 36
ATOM     36  O4  SGN C   3     100.077   9.406  24.8560  0.00  0.00     0.000 O
BRANCH 36 40
ATOM     37  C1  SGN C   3      97.928   6.742  27.2470  0.00  0.00     0.000 C
ATOM     38  C2  SGN C   3      98.248   6.310  25.8070  0.00  0.00     0.000 C
ATOM     39  C3  SGN C   3      99.373   7.160  25.2340  0.00  0.00     0.000 C
ATOM     40  C4  SGN C   3      98.979   8.618  25.3260  0.00  0.00     0.000 C
ATOM     41  C5  SGN C   3      98.661   8.948  26.7680  0.00  0.00     0.000 C
ATOM     42  O5  SGN C   3      97.583   8.118  27.2290  0.00  0.00     0.000 O
ATOM     43   O  SGN C   3      99.607   6.780  23.8840  0.00  0.00     0.000 O
ATOM     45  HD  SGN C   3      99.831   7.608  24.0000  0.00  0.00     0.000 HD
BRANCH 38 47
ATOM     45   N  SGN C   3      97.124   5.429  26.1710  0.00  0.00     0.000 N
ATOM     47  HD  SGN C   3      97.419   6.232  26.0360  0.00  0.00     0.000 HD
ATOM     47   S  SGN C   3      97.418   3.908  25.8150  0.00  0.00     0.000 S
ATOM     48   O  SGN C   3      97.509   3.712  24.4120  0.00  0.00     0.000 OA
ATOM     49   O  SGN C   3      98.550   3.519  26.5910  0.00  0.00     0.000 OA
ATOM     50   O  SGN C   3      96.196   3.253  26.2790  0.00  0.00     0.000 OA
ENDBRANCH 38 47
BRANCH 41 51
ATOM     51   C  SGN C   3      98.257  10.379  26.9980  0.00  0.00     0.000 C
ATOM     52   O  SGN C   3     100.137  12.976  28.8950  0.00  0.00     0.000 OA
ATOM     53   O  SGN C   3      98.750  13.209  26.9580  0.00  0.00     0.000 OA
ATOM     54   O  SGN C   3      97.810  12.497  29.0500  0.00  0.00     0.000 OA
ATOM     55   O  SGN C   3      99.277  11.029  27.7230  0.00  0.00     0.000 O
ATOM     56   S  SGN C   3      98.962  12.572  28.2010  0.00  0.00     0.000 S
ENDBRANCH 41 51
BRANCH 37 57
ATOM     57  O4  IDS C   4      98.945   6.572  28.1280  0.00  0.00     0.000 O
BRANCH 57 61
ATOM     58  C1  IDS C   4     100.612   5.059  31.1940  0.00  0.00     0.000 C
ATOM     59  C2  IDS C   4     100.022   4.141  30.1710  0.00  0.00     0.000 C
ATOM     60  C3  IDS C   4      98.689   4.651  29.6170  0.00  0.00     0.000 C
ATOM     61  C4  IDS C   4      98.553   6.158  29.4500  0.00  0.00     0.000 C
ATOM     62  C5  IDS C   4      99.364   6.899  30.5200  0.00  0.00     0.000 C
ATOM     63  O5  IDS C   4     100.675   6.366  30.6500  0.00  0.00     0.000 O
ATOM     64   O  IDS C   4      97.710   4.215  30.5420  0.00  0.00     0.000 O
ATOM     66  HD  IDS C   4      97.357   4.891  30.9510  0.00  0.00     0.000 HD
BRANCH 59 66
ATOM     66   O  IDS C   4     100.919   3.972  29.0120  0.00  0.00     0.000 O
ATOM     67   S  IDS C   4     101.601   2.544  28.8440  0.00  0.00     0.000 S
ATOM     68   O  IDS C   4     100.479   1.671  28.5950  0.00  0.00     0.000 OA
ATOM     69   O  IDS C   4     102.515   2.696  27.7290  0.00  0.00     0.000 OA
ATOM     70   O  IDS C   4     102.257   2.230  30.1040  0.00  0.00     0.000 OA
ENDBRANCH 59 66
BRANCH 62 71
ATOM     71   C  IDS C   4      99.551   8.372  30.2100  0.00  0.00     0.000 C
ATOM     72   O  IDS C   4      98.614   9.140  30.3150  0.00  0.00     0.000 OA
ATOM     73   O  IDS C   4     100.648   8.748  29.7510  0.00  0.00     0.000 OA
ENDBRANCH 62 71
BRANCH 58 74
ATOM     74  O4  SGN C   5     100.141   4.886  32.4620  0.00  0.00     0.000 O
BRANCH 74 78
ATOM     75  C1  SGN C   5     101.061   4.772  36.5340  0.00  0.00     0.000 C
ATOM     76  C2  SGN C   5     101.026   6.170  35.8880  0.00  0.00     0.000 C
ATOM     77  C3  SGN C   5     100.354   6.114  34.5100  0.00  0.00     0.000 C
ATOM     78  C4  SGN C   5     100.911   4.981  33.6600  0.00  0.00     0.000 C
ATOM     79  C5  SGN C   5     100.844   3.679  34.4430  0.00  0.00     0.000 C
ATOM     80  O5  SGN C   5     101.627   3.804  35.6600  0.00  0.00     0.000 O
ATOM     81   O  SGN C   5     100.537   7.366  33.8560  0.00  0.00     0.000 O
ATOM     83  HD  SGN C   5     100.517   8.114  34.2920  0.00  0.00     0.000 HD
BRANCH 76 85
ATOM     83   N  SGN C   5     100.837   6.550  37.2940  0.00  0.00     0.000 N
ATOM     85  HD  SGN C   5     100.504   7.055  37.9130  0.00  0.00     0.000 HD
ATOM     85   S  SGN C   5     100.813   8.015  37.9630  0.00  0.00     0.000 S
ATOM     86   O  SGN C   5     100.553   7.920  39.3580  0.00  0.00     0.000 OA
ATOM     87   O  SGN C   5     102.007   8.674  37.5720  0.00  0.00     0.000 OA
ATOM     88   O  SGN C   5      99.577   8.516  37.2190  0.00  0.00     0.000 OA
ENDBRANCH 76 85
BRANCH 79 89
ATOM     89   C  SGN C   5     101.357   2.481  33.6690  0.00  0.00     0.000 C
ATOM     90   O  SGN C   5     102.652   2.084  34.1820  0.00  0.00     0.000 O
ATOM     91   S  SGN C   5     103.011   0.522  34.1020  0.00  0.00     0.000 S
ATOM     92   O  SGN C   5     101.917  -0.178  34.7210  0.00  0.00     0.000 OA
ATOM     93   O  SGN C   5     103.158   0.192  32.7080  0.00  0.00     0.000 OA
ATOM     94   O  SGN C   5     104.242   0.428  34.8410  0.00  0.00     0.000 OA
ENDBRANCH 79 89
BRANCH 75 95
ATOM     95  O4  BDP C   6      99.759   4.451  36.7940  0.00  0.00     0.000 O
BRANCH 95 99
ATOM     96  C1  BDP C   6      98.151   1.875  39.8320  0.00  0.00     0.000 C
ATOM     97  C2  BDP C   6      99.470   2.550  40.0820  0.00  0.00     0.000 C
ATOM     98  C3  BDP C   6      99.772   3.722  39.1360  0.00  0.00     0.000 C
ATOM     99  C4  BDP C   6      99.528   3.337  37.6840  0.00  0.00     0.000 C
ATOM    100  C5  BDP C   6      98.125   2.693  37.5900  0.00  0.00     0.000 C
ATOM    101  O5  BDP C   6      98.220   1.551  38.4560  0.00  0.00     0.000 O
BRANCH 100 102
ATOM    102   C  BDP C   6      97.804   2.199  36.2020  0.00  0.00     0.000 C
ATOM    103   O  BDP C   6      98.413   1.254  35.6790  0.00  0.00     0.000 OA
ATOM    104   O  BDP C   6      96.888   2.772  35.6030  0.00  0.00     0.000 OA
ENDBRANCH 100 102
ENDBRANCH 95 99
ENDBRANCH 75 95
ENDBRANCH 74 78
ENDBRANCH 58 74
ENDBRANCH 57 61
ENDBRANCH 37 57
ENDBRANCH 36 40
ENDBRANCH 23 36
ENDBRANCH 22 26
ENDBRANCH 1 22
TORSDOF 20
ENDMDL
MODEL 41
REMARK VINA RESULT:      -0.3     93.463     99.248
ROOT
ATOM      1  C1  NGY C   1      81.441  74.589  74.5220  0.00  0.00     0.000 C
ATOM      2  C2  NGY C   1      82.095  73.362  75.1420  0.00  0.00     0.000 C
ATOM      3  C3  NGY C   1      82.759  72.514  74.0620  0.00  0.00     0.000 C
ATOM      4  C4  NGY C   1      81.721  72.194  73.0040  0.00  0.00     0.000 C
ATOM      5  C5  NGY C   1      81.210  73.502  72.4070  0.00  0.00     0.000 C
ATOM      6  O5  NGY C   1      80.567  74.262  73.4640  0.00  0.00     0.000 O
ATOM      7   O  NGY C   1      83.297  71.341  74.6550  0.00  0.00     0.000 O
ATOM      9  HD  NGY C   1      83.083  70.791  75.2890  0.00  0.00     0.000 HD
ATOM      9   O  NGY C   1      82.273  71.375  71.9830  0.00  0.00     0.000 O
ATOM     11  HD  NGY C   1      82.058  70.825  72.6170  0.00  0.00     0.000 HD
ENDROOT
BRANCH 2 13
ATOM     11   N  NGY C   1      82.835  73.930  76.2450  0.00  0.00     0.000 N
ATOM     13  HD  NGY C   1      82.828  73.247  76.7770  0.00  0.00     0.000 HD
ATOM     13   C  NGY C   1      83.089  73.229  77.3490  0.00  0.00     0.000 C
ATOM     14   O  NGY C   1      82.582  72.121  77.5320  0.00  0.00     0.000 OA
ATOM     15   C  NGY C   1      84.038  73.844  78.3320  0.00  0.00     0.000 C
ENDBRANCH 2 13
BRANCH 5 16
ATOM     16   C  NGY C   1      80.180  73.351  71.3340  0.00  0.00     0.000 C
ATOM     17   O  NGY C   1      76.725  72.277  71.9450  0.00  0.00     0.000 OA
ATOM     18   O  NGY C   1      79.025  72.715  71.8900  0.00  0.00     0.000 O
ATOM     19   S  NGY C   1      77.698  72.871  71.0640  0.00  0.00     0.000 S
ATOM     20   O  NGY C   1      77.865  72.122  69.8460  0.00  0.00     0.000 OA
ATOM     21   O  NGY C   1      77.566  74.303  70.8500  0.00  0.00     0.000 OA
ENDBRANCH 5 16
BRANCH 1 22
ATOM     22  O4  BDP C   2      82.408  75.454  74.1480  0.00  0.00     0.000 O
BRANCH 22 26
ATOM     23  C1  BDP C   2      83.789  79.280  73.5030  0.00  0.00     0.000 C
ATOM     24  C2  BDP C   2      83.368  78.972  74.9200  0.00  0.00     0.000 C
ATOM     25  C3  BDP C   2      83.241  77.481  75.0970  0.00  0.00     0.000 C
ATOM     26  C4  BDP C   2      82.325  76.898  74.0260  0.00  0.00     0.000 C
ATOM     27  C5  BDP C   2      82.737  77.417  72.6550  0.00  0.00     0.000 C
ATOM     28  O5  BDP C   2      82.742  78.866  72.5810  0.00  0.00     0.000 O
ATOM     29   O  BDP C   2      84.362  79.340  75.8760  0.00  0.00     0.000 O
ATOM     31  HD  BDP C   2      84.448  78.823  76.5660  0.00  0.00     0.000 HD
ATOM     31   O  BDP C   2      82.685  77.264  76.3880  0.00  0.00     0.000 O
ATOM     33  HD  BDP C   2      82.770  76.747  77.0770  0.00  0.00     0.000 HD
BRANCH 27 33
ATOM     33   C  BDP C   2      81.808  76.953  71.5590  0.00  0.00     0.000 C
ATOM     34   O  BDP C   2      82.233  76.417  70.5080  0.00  0.00     0.000 OA
ATOM     35   O  BDP C   2      80.610  77.143  71.6950  0.00  0.00     0.000 OA
ENDBRANCH 27 33
BRANCH 23 36
ATOM     36  O4  SGN C   3      84.065  80.581  73.2510  0.00  0.00     0.000 O
BRANCH 36 40
ATOM     37  C1  SGN C   3      86.427  83.226  71.0480  0.00  0.00     0.000 C
ATOM     38  C2  SGN C   3      85.181  82.642  70.3630  0.00  0.00     0.000 C
ATOM     39  C3  SGN C   3      84.222  82.074  71.3990  0.00  0.00     0.000 C
ATOM     40  C4  SGN C   3      84.956  81.047  72.2340  0.00  0.00     0.000 C
ATOM     41  C5  SGN C   3      86.175  81.700  72.8480  0.00  0.00     0.000 C
ATOM     42  O5  SGN C   3      87.035  82.194  71.8100  0.00  0.00     0.000 O
ATOM     43   O  SGN C   3      83.108  81.489  70.7360  0.00  0.00     0.000 O
ATOM     45  HD  SGN C   3      83.235  81.099  71.4990  0.00  0.00     0.000 HD
BRANCH 38 47
ATOM     45   N  SGN C   3      86.000  83.085  69.2210  0.00  0.00     0.000 N
ATOM     47  HD  SGN C   3      85.911  82.567  69.9100  0.00  0.00     0.000 HD
ATOM     47   S  SGN C   3      85.159  83.946  68.1820  0.00  0.00     0.000 S
ATOM     48   O  SGN C   3      84.161  83.160  67.5470  0.00  0.00     0.000 OA
ATOM     49   O  SGN C   3      84.713  85.107  68.8800  0.00  0.00     0.000 OA
ATOM     50   O  SGN C   3      86.172  84.275  67.1810  0.00  0.00     0.000 OA
ENDBRANCH 38 47
BRANCH 41 51
ATOM     51   C  SGN C   3      86.995  80.781  73.7120  0.00  0.00     0.000 C
ATOM     52   O  SGN C   3      87.528  81.023  77.3910  0.00  0.00     0.000 OA
ATOM     53   O  SGN C   3      87.368  79.082  75.9990  0.00  0.00     0.000 OA
ATOM     54   O  SGN C   3      89.187  80.625  75.7300  0.00  0.00     0.000 OA
ATOM     55   O  SGN C   3      86.889  81.201  75.0540  0.00  0.00     0.000 O
ATOM     56   S  SGN C   3      87.833  80.408  76.1440  0.00  0.00     0.000 S
ENDBRANCH 41 51
BRANCH 37 57
ATOM     57  O4  IDS C   4      86.182  84.273  71.8730  0.00  0.00     0.000 O
BRANCH 57 61
ATOM     58  C1  IDS C   4      86.485  87.887  73.0220  0.00  0.00     0.000 C
ATOM     59  C2  IDS C   4      86.044  87.614  71.6190  0.00  0.00     0.000 C
ATOM     60  C3  IDS C   4      86.810  86.457  70.9720  0.00  0.00     0.000 C
ATOM     61  C4  IDS C   4      87.192  85.300  71.8840  0.00  0.00     0.000 C
ATOM     62  C5  IDS C   4      87.454  85.795  73.3110  0.00  0.00     0.000 C
ATOM     63  O5  IDS C   4      86.434  86.676  73.7580  0.00  0.00     0.000 O
ATOM     64   O  IDS C   4      87.998  87.035  70.4640  0.00  0.00     0.000 O
ATOM     66  HD  IDS C   4      88.688  86.740  70.8960  0.00  0.00     0.000 HD
BRANCH 59 66
ATOM     66   O  IDS C   4      84.615  87.254  71.5600  0.00  0.00     0.000 O
ATOM     67   S  IDS C   4      83.644  88.310  70.8710  0.00  0.00     0.000 S
ATOM     68   O  IDS C   4      84.096  88.326  69.5000  0.00  0.00     0.000 OA
ATOM     69   O  IDS C   4      82.311  87.776  71.0690  0.00  0.00     0.000 OA
ATOM     70   O  IDS C   4      83.867  89.590  71.5240  0.00  0.00     0.000 OA
ENDBRANCH 59 66
BRANCH 62 71
ATOM     71   C  IDS C   4      87.501  84.673  74.3310  0.00  0.00     0.000 C
ATOM     72   O  IDS C   4      86.606  84.550  75.1440  0.00  0.00     0.000 OA
ATOM     73   O  IDS C   4      88.521  83.956  74.3780  0.00  0.00     0.000 OA
ENDBRANCH 62 71
BRANCH 58 74
ATOM     74  O4  SGN C   5      87.582  88.689  73.1350  0.00  0.00     0.000 O
BRANCH 74 78
ATOM     75  C1  SGN C   5      89.423  91.796  75.2340  0.00  0.00     0.000 C
ATOM     76  C2  SGN C   5      89.430  90.418  75.9220  0.00  0.00     0.000 C
ATOM     77  C3  SGN C   5      89.045  89.313  74.9290  0.00  0.00     0.000 C
ATOM     78  C4  SGN C   5      87.794  89.678  74.1420  0.00  0.00     0.000 C
ATOM     79  C5  SGN C   5      87.973  91.052  73.5130  0.00  0.00     0.000 C
ATOM     80  O5  SGN C   5      88.196  92.037  74.5560  0.00  0.00     0.000 O
ATOM     81   O  SGN C   5      88.848  88.097  75.6440  0.00  0.00     0.000 O
ATOM     83  HD  SGN C   5      89.342  87.885  76.3230  0.00  0.00     0.000 HD
BRANCH 76 85
ATOM     83   N  SGN C   5      90.153  91.062  77.0260  0.00  0.00     0.000 N
ATOM     85  HD  SGN C   5      90.879  91.260  77.4550  0.00  0.00     0.000 HD
ATOM     85   S  SGN C   5      91.391  90.511  77.8960  0.00  0.00     0.000 S
ATOM     86   O  SGN C   5      91.811  91.490  78.8380  0.00  0.00     0.000 OA
ATOM     87   O  SGN C   5      91.013  89.243  78.4080  0.00  0.00     0.000 OA
ATOM     88   O  SGN C   5      92.382  90.421  76.7370  0.00  0.00     0.000 OA
ENDBRANCH 76 85
BRANCH 79 89
ATOM     89   C  SGN C   5      86.784  91.497  72.6850  0.00  0.00     0.000 C
ATOM     90   O  SGN C   5      86.477  92.883  72.9740  0.00  0.00     0.000 O
ATOM     91   S  SGN C   5      85.856  93.749  71.7740  0.00  0.00     0.000 S
ATOM     92   O  SGN C   5      86.745  93.586  70.6540  0.00  0.00     0.000 OA
ATOM     93   O  SGN C   5      84.539  93.228  71.5120  0.00  0.00     0.000 OA
ATOM     94   O  SGN C   5      85.842  95.085  72.3040  0.00  0.00     0.000 OA
ENDBRANCH 79 89
BRANCH 75 95
ATOM     95  O4  BDP C   6      90.447  91.766  74.3300  0.00  0.00     0.000 O
BRANCH 95 99
ATOM     96  C1  BDP C   6      92.858  95.228  73.5270  0.00  0.00     0.000 C
ATOM     97  C2  BDP C   6      91.680  95.367  74.4500  0.00  0.00     0.000 C
ATOM     98  C3  BDP C   6      91.124  94.034  74.9720  0.00  0.00     0.000 C
ATOM     99  C4  BDP C   6      90.920  93.039  73.8400  0.00  0.00     0.000 C
ATOM    100  C5  BDP C   6      92.225  92.986  73.0100  0.00  0.00     0.000 C
ATOM    101  O5  BDP C   6      92.379  94.334  72.5390  0.00  0.00     0.000 O
BRANCH 100 102
ATOM    102   C  BDP C   6      92.113  92.084  71.8070  0.00  0.00     0.000 C
ATOM    103   O  BDP C   6      92.948  91.202  71.5610  0.00  0.00     0.000 OA
ATOM    104   O  BDP C   6      91.133  92.253  71.0710  0.00  0.00     0.000 OA
ENDBRANCH 100 102
ENDBRANCH 95 99
ENDBRANCH 75 95
ENDBRANCH 74 78
ENDBRANCH 58 74
ENDBRANCH 57 61
ENDBRANCH 37 57
ENDBRANCH 36 40
ENDBRANCH 23 36
ENDBRANCH 22 26
ENDBRANCH 1 22
TORSDOF 20
ENDMDL
MODEL 42
REMARK VINA RESULT:      -0.3     10.858     14.455
ROOT
ATOM      1  C1  NGY C   1      20.982  27.420  47.4630  0.00  0.00     0.000 C
ATOM      2  C2  NGY C   1      20.625  28.856  47.8200  0.00  0.00     0.000 C
ATOM      3  C3  NGY C   1      21.892  29.675  48.0460  0.00  0.00     0.000 C
ATOM      4  C4  NGY C   1      22.735  28.969  49.0900  0.00  0.00     0.000 C
ATOM      5  C5  NGY C   1      23.091  27.578  48.5740  0.00  0.00     0.000 C
ATOM      6  O5  NGY C   1      21.860  26.830  48.3980  0.00  0.00     0.000 O
ATOM      7   O  NGY C   1      21.533  30.989  48.4480  0.00  0.00     0.000 O
ATOM      9  HD  NGY C   1      20.920  31.362  48.9340  0.00  0.00     0.000 HD
ATOM      9   O  NGY C   1      23.918  29.704  49.3690  0.00  0.00     0.000 O
ATOM     11  HD  NGY C   1      23.306  30.076  49.8550  0.00  0.00     0.000 HD
ENDROOT
BRANCH 2 13
ATOM     11   N  NGY C   1      19.718  29.275  46.7780  0.00  0.00     0.000 N
ATOM     13  HD  NGY C   1      19.195  29.779  47.2500  0.00  0.00     0.000 HD
ATOM     13   C  NGY C   1      18.696  30.092  47.0300  0.00  0.00     0.000 C
ATOM     14   O  NGY C   1      18.401  30.407  48.1840  0.00  0.00     0.000 OA
ATOM     15   C  NGY C   1      17.951  30.623  45.8420  0.00  0.00     0.000 C
ENDBRANCH 2 13
BRANCH 5 16
ATOM     16   C  NGY C   1      23.935  26.755  49.4940  0.00  0.00     0.000 C
ATOM     17   O  NGY C   1      22.673  23.915  51.4440  0.00  0.00     0.000 OA
ATOM     18   O  NGY C   1      23.083  25.885  50.2450  0.00  0.00     0.000 O
ATOM     19   S  NGY C   1      23.792  24.656  50.9200  0.00  0.00     0.000 S
ATOM     20   O  NGY C   1      24.642  25.175  51.9600  0.00  0.00     0.000 OA
ATOM     21   O  NGY C   1      24.523  24.016  49.8390  0.00  0.00     0.000 OA
ENDBRANCH 5 16
BRANCH 1 22
ATOM     22  O4  BDP C   2      21.470  27.394  46.2040  0.00  0.00     0.000 O
BRANCH 22 26
ATOM     23  C1  BDP C   2      22.054  25.518  42.5850  0.00  0.00     0.000 C
ATOM     24  C2  BDP C   2      20.616  25.815  42.9380  0.00  0.00     0.000 C
ATOM     25  C3  BDP C   2      20.568  26.804  44.0730  0.00  0.00     0.000 C
ATOM     26  C4  BDP C   2      21.415  26.309  45.2410  0.00  0.00     0.000 C
ATOM     27  C5  BDP C   2      22.785  25.873  44.7380  0.00  0.00     0.000 C
ATOM     28  O5  BDP C   2      22.706  24.857  43.7060  0.00  0.00     0.000 O
ATOM     29   O  BDP C   2      19.923  26.481  41.8820  0.00  0.00     0.000 O
ATOM     31  HD  BDP C   2      19.338  27.074  42.1170  0.00  0.00     0.000 HD
ATOM     31   O  BDP C   2      19.207  26.914  44.4680  0.00  0.00     0.000 O
ATOM     33  HD  BDP C   2      18.621  27.507  44.7030  0.00  0.00     0.000 HD
BRANCH 27 33
ATOM     33   C  BDP C   2      23.640  25.280  45.8330  0.00  0.00     0.000 C
ATOM     34   O  BDP C   2      23.341  24.201  46.3990  0.00  0.00     0.000 OA
ATOM     35   O  BDP C   2      24.630  25.894  46.1930  0.00  0.00     0.000 OA
ENDBRANCH 27 33
BRANCH 23 36
ATOM     36  O4  SGN C   3      22.234  24.741  41.4910  0.00  0.00     0.000 O
BRANCH 36 40
ATOM     37  C1  SGN C   3      24.809  23.766  38.3530  0.00  0.00     0.000 C
ATOM     38  C2  SGN C   3      25.078  23.123  39.7230  0.00  0.00     0.000 C
ATOM     39  C3  SGN C   3      23.844  23.220  40.6080  0.00  0.00     0.000 C
ATOM     40  C4  SGN C   3      23.438  24.674  40.7220  0.00  0.00     0.000 C
ATOM     41  C5  SGN C   3      23.218  25.229  39.3320  0.00  0.00     0.000 C
ATOM     42  O5  SGN C   3      24.428  25.116  38.5670  0.00  0.00     0.000 O
ATOM     43   O  SGN C   3      24.139  22.673  41.8870  0.00  0.00     0.000 O
ATOM     45  HD  SGN C   3      23.518  23.271  41.9590  0.00  0.00     0.000 HD
BRANCH 38 47
ATOM     45   N  SGN C   3      25.390  21.741  39.3170  0.00  0.00     0.000 N
ATOM     47  HD  SGN C   3      24.800  22.367  39.4130  0.00  0.00     0.000 HD
ATOM     47   S  SGN C   3      26.954  21.507  39.1510  0.00  0.00     0.000 S
ATOM     48   O  SGN C   3      27.480  22.263  38.0700  0.00  0.00     0.000 OA
ATOM     49   O  SGN C   3      27.538  21.730  40.4330  0.00  0.00     0.000 OA
ATOM     50   O  SGN C   3      27.005  20.095  38.7750  0.00  0.00     0.000 OA
ENDBRANCH 38 47
BRANCH 41 51
ATOM     51   C  SGN C   3      22.802  26.675  39.3060  0.00  0.00     0.000 C
ATOM     52   O  SGN C   3      19.433  28.039  38.4890  0.00  0.00     0.000 OA
ATOM     53   O  SGN C   3      21.072  28.849  40.0360  0.00  0.00     0.000 OA
ATOM     54   O  SGN C   3      21.529  28.827  37.6790  0.00  0.00     0.000 OA
ATOM     55   O  SGN C   3      21.428  26.749  38.9980  0.00  0.00     0.000 O
ATOM     56   S  SGN C   3      20.809  28.258  38.7790  0.00  0.00     0.000 S
ENDBRANCH 41 51
BRANCH 37 57
ATOM     57  O4  IDS C   4      23.838  23.161  37.6250  0.00  0.00     0.000 O
BRANCH 57 61
ATOM     58  C1  IDS C   4      22.617  21.130  34.6500  0.00  0.00     0.000 C
ATOM     59  C2  IDS C   4      23.839  20.671  35.3800  0.00  0.00     0.000 C
ATOM     60  C3  IDS C   4      24.752  21.828  35.7910  0.00  0.00     0.000 C
ATOM     61  C4  IDS C   4      24.066  23.123  36.2040  0.00  0.00     0.000 C
ATOM     62  C5  IDS C   4      22.755  23.313  35.4330  0.00  0.00     0.000 C
ATOM     63  O5  IDS C   4      21.973  22.128  35.4240  0.00  0.00     0.000 O
ATOM     64   O  IDS C   4      25.555  22.091  34.6560  0.00  0.00     0.000 O
ATOM     66  HD  IDS C   4      25.366  22.868  34.3240  0.00  0.00     0.000 HD
BRANCH 59 66
ATOM     66   O  IDS C   4      23.492  19.951  36.6200  0.00  0.00     0.000 O
ATOM     67   S  IDS C   4      23.658  18.368  36.5930  0.00  0.00     0.000 S
ATOM     68   O  IDS C   4      25.080  18.190  36.4270  0.00  0.00     0.000 OA
ATOM     69   O  IDS C   4      23.129  17.916  37.8640  0.00  0.00     0.000 OA
ATOM     70   O  IDS C   4      22.918  17.878  35.4400  0.00  0.00     0.000 OA
ENDBRANCH 59 66
BRANCH 62 71
ATOM     71   C  IDS C   4      21.864  24.386  36.0290  0.00  0.00     0.000 C
ATOM     72   O  IDS C   4      22.145  25.561  35.8870  0.00  0.00     0.000 OA
ATOM     73   O  IDS C   4      20.908  24.032  36.7490  0.00  0.00     0.000 OA
ENDBRANCH 62 71
BRANCH 58 74
ATOM     74  O4  SGN C   5      22.787  21.332  33.3120  0.00  0.00     0.000 O
BRANCH 74 78
ATOM     75  C1  SGN C   5      21.125  20.924  29.5020  0.00  0.00     0.000 C
ATOM     76  C2  SGN C   5      20.700  22.175  30.2950  0.00  0.00     0.000 C
ATOM     77  C3  SGN C   5      21.619  22.389  31.5050  0.00  0.00     0.000 C
ATOM     78  C4  SGN C   5      21.806  21.104  32.3010  0.00  0.00     0.000 C
ATOM     79  C5  SGN C   5      22.249  19.988  31.3670  0.00  0.00     0.000 C
ATOM     80  O5  SGN C   5      21.240  19.784  30.3430  0.00  0.00     0.000 O
ATOM     81   O  SGN C   5      21.067  23.411  32.3290  0.00  0.00     0.000 O
ATOM     83  HD  SGN C   5      20.667  24.100  31.9900  0.00  0.00     0.000 HD
BRANCH 76 85
ATOM     83   N  SGN C   5      20.748  23.379  29.4560  0.00  0.00     0.000 N
ATOM     85  HD  SGN C   5      20.391  24.089  29.1130  0.00  0.00     0.000 HD
ATOM     85   S  SGN C   5      19.634  23.974  28.4560  0.00  0.00     0.000 S
ATOM     86   O  SGN C   5      20.086  25.191  27.8770  0.00  0.00     0.000 OA
ATOM     87   O  SGN C   5      19.270  22.931  27.5650  0.00  0.00     0.000 OA
ATOM     88   O  SGN C   5      18.580  24.246  29.5260  0.00  0.00     0.000 OA
ENDBRANCH 76 85
BRANCH 79 89
ATOM     89   C  SGN C   5      22.486  18.668  32.0720  0.00  0.00     0.000 C
ATOM     90   O  SGN C   5      23.299  17.807  31.2390  0.00  0.00     0.000 O
ATOM     91   S  SGN C   5      24.277  16.784  31.9970  0.00  0.00     0.000 S
ATOM     92   O  SGN C   5      25.048  17.571  32.9240  0.00  0.00     0.000 OA
ATOM     93   O  SGN C   5      23.443  15.813  32.6590  0.00  0.00     0.000 OA
ATOM     94   O  SGN C   5      25.062  16.225  30.9300  0.00  0.00     0.000 OA
ENDBRANCH 79 89
BRANCH 75 95
ATOM     95  O4  BDP C   6      22.346  21.222  28.9650  0.00  0.00     0.000 O
BRANCH 95 99
ATOM     96  C1  BDP C   6      23.884  20.091  25.1180  0.00  0.00     0.000 C
ATOM     97  C2  BDP C   6      22.398  20.061  25.3380  0.00  0.00     0.000 C
ATOM     98  C3  BDP C   6      21.925  20.831  26.5800  0.00  0.00     0.000 C
ATOM     99  C4  BDP C   6      22.750  20.463  27.8050  0.00  0.00     0.000 C
ATOM    100  C5  BDP C   6      24.245  20.577  27.4260  0.00  0.00     0.000 C
ATOM    101  O5  BDP C   6      24.394  19.631  26.3550  0.00  0.00     0.000 O
BRANCH 100 102
ATOM    102   C  BDP C   6      25.163  20.159  28.5470  0.00  0.00     0.000 C
ATOM    103   O  BDP C   6      26.080  20.884  28.9580  0.00  0.00     0.000 OA
ATOM    104   O  BDP C   6      24.953  19.052  29.0570  0.00  0.00     0.000 OA
ENDBRANCH 100 102
ENDBRANCH 95 99
ENDBRANCH 75 95
ENDBRANCH 74 78
ENDBRANCH 58 74
ENDBRANCH 57 61
ENDBRANCH 37 57
ENDBRANCH 36 40
ENDBRANCH 23 36
ENDBRANCH 22 26
ENDBRANCH 1 22
TORSDOF 20
ENDMDL
MODEL 43
REMARK VINA RESULT:      -0.3    106.928    113.989
ROOT
ATOM      1  C1  NGY C   1      81.697  91.862  79.2510  0.00  0.00     0.000 C
ATOM      2  C2  NGY C   1      82.378  90.562  78.8470  0.00  0.00     0.000 C
ATOM      3  C3  NGY C   1      83.679  90.856  78.1050  0.00  0.00     0.000 C
ATOM      4  C4  NGY C   1      83.365  91.777  76.9420  0.00  0.00     0.000 C
ATOM      5  C5  NGY C   1      82.766  93.070  77.4890  0.00  0.00     0.000 C
ATOM      6  O5  NGY C   1      81.523  92.745  78.1630  0.00  0.00     0.000 O
ATOM      7   O  NGY C   1      84.257  89.632  77.6760  0.00  0.00     0.000 O
ATOM      9  HD  NGY C   1      83.982  88.867  77.3780  0.00  0.00     0.000 HD
ATOM      9   O  NGY C   1      84.535  92.062  76.1890  0.00  0.00     0.000 O
ATOM     11  HD  NGY C   1      84.260  91.297  75.8910  0.00  0.00     0.000 HD
ENDROOT
BRANCH 2 13
ATOM     11   N  NGY C   1      82.322  89.800  80.0720  0.00  0.00     0.000 N
ATOM     13  HD  NGY C   1      82.329  89.003  79.7350  0.00  0.00     0.000 HD
ATOM     13   C  NGY C   1      82.309  88.468  80.0660  0.00  0.00     0.000 C
ATOM     14   O  NGY C   1      82.200  87.837  79.0130  0.00  0.00     0.000 OA
ATOM     15   C  NGY C   1      82.460  87.788  81.3920  0.00  0.00     0.000 C
ENDBRANCH 2 13
BRANCH 5 16
ATOM     16   C  NGY C   1      82.410  94.092  76.4570  0.00  0.00     0.000 C
ATOM     17   O  NGY C   1      78.974  94.843  75.4150  0.00  0.00     0.000 OA
ATOM     18   O  NGY C   1      81.020  93.968  76.1470  0.00  0.00     0.000 O
ATOM     19   S  NGY C   1      80.367  95.211  75.4420  0.00  0.00     0.000 S
ATOM     20   O  NGY C   1      80.936  95.298  74.1220  0.00  0.00     0.000 OA
ATOM     21   O  NGY C   1      80.707  96.337  76.2950  0.00  0.00     0.000 OA
ENDBRANCH 5 16
BRANCH 1 22
ATOM     22  O4  BDP C   2      82.391  92.419  80.2660  0.00  0.00     0.000 O
BRANCH 22 26
ATOM     23  C1  BDP C   2      82.603  94.750  83.6550  0.00  0.00     0.000 C
ATOM     24  C2  BDP C   2      81.695  93.547  83.7500  0.00  0.00     0.000 C
ATOM     25  C3  BDP C   2      81.987  92.603  82.6130  0.00  0.00     0.000 C
ATOM     26  C4  BDP C   2      81.916  93.342  81.2810  0.00  0.00     0.000 C
ATOM     27  C5  BDP C   2      82.728  94.629  81.3600  0.00  0.00     0.000 C
ATOM     28  O5  BDP C   2      82.301  95.496  82.4420  0.00  0.00     0.000 O
ATOM     29   O  BDP C   2      81.953  92.761  84.9140  0.00  0.00     0.000 O
ATOM     31  HD  BDP C   2      81.869  91.904  84.8290  0.00  0.00     0.000 HD
ATOM     31   O  BDP C   2      80.997  91.583  82.6590  0.00  0.00     0.000 O
ATOM     33  HD  BDP C   2      80.913  90.725  82.5740  0.00  0.00     0.000 HD
BRANCH 27 33
ATOM     33   C  BDP C   2      82.619  95.458  80.1030  0.00  0.00     0.000 C
ATOM     34   O  BDP C   2      83.631  95.873  79.4890  0.00  0.00     0.000 OA
ATOM     35   O  BDP C   2      81.507  95.758  79.6990  0.00  0.00     0.000 OA
ENDBRANCH 27 33
BRANCH 23 36
ATOM     36  O4  SGN C   3      82.530  95.614  84.6940  0.00  0.00     0.000 O
BRANCH 36 40
ATOM     37  C1  SGN C   3      84.709  98.046  87.2960  0.00  0.00     0.000 C
ATOM     38  C2  SGN C   3      84.363  98.613  85.9090  0.00  0.00     0.000 C
ATOM     39  C3  SGN C   3      83.232  97.817  85.2760  0.00  0.00     0.000 C
ATOM     40  C4  SGN C   3      83.633  96.358  85.2200  0.00  0.00     0.000 C
ATOM     41  C5  SGN C   3      83.976  95.893  86.6180  0.00  0.00     0.000 C
ATOM     42  O5  SGN C   3      85.059  96.680  87.1390  0.00  0.00     0.000 O
ATOM     43   O  SGN C   3      82.974  98.324  83.9720  0.00  0.00     0.000 O
ATOM     45  HD  SGN C   3      82.755  97.488  84.0110  0.00  0.00     0.000 HD
BRANCH 38 47
ATOM     45   N  SGN C   3      85.156  99.677  85.2670  0.00  0.00     0.000 N
ATOM     47  HD  SGN C   3      84.754  98.913  85.2000  0.00  0.00     0.000 HD
ATOM     47   S  SGN C   3      85.185 101.008  86.1360  0.00  0.00     0.000 S
ATOM     48   O  SGN C   3      83.897 101.602  86.2170  0.00  0.00     0.000 OA
ATOM     49   O  SGN C   3      85.816 100.675  87.3710  0.00  0.00     0.000 OA
ATOM     50   O  SGN C   3      86.027 101.878  85.3180  0.00  0.00     0.000 OA
ENDBRANCH 38 47
BRANCH 41 51
ATOM     51   C  SGN C   3      84.389  94.449  86.7020  0.00  0.00     0.000 C
ATOM     52   O  SGN C   3      86.849  92.677  84.5360  0.00  0.00     0.000 OA
ATOM     53   O  SGN C   3      86.356  92.360  86.8570  0.00  0.00     0.000 OA
ATOM     54   O  SGN C   3      84.694  91.898  85.1860  0.00  0.00     0.000 OA
ATOM     55   O  SGN C   3      85.380  94.201  85.7290  0.00  0.00     0.000 O
ATOM     56   S  SGN C   3      85.863  92.637  85.5620  0.00  0.00     0.000 S
ENDBRANCH 41 51
BRANCH 37 57
ATOM     57  O4  IDS C   4      83.706  98.125  88.2050  0.00  0.00     0.000 O
BRANCH 57 61
ATOM     58  C1  IDS C   4      82.728  99.567  91.5870  0.00  0.00     0.000 C
ATOM     59  C2  IDS C   4      83.815 100.237  90.8080  0.00  0.00     0.000 C
ATOM     60  C3  IDS C   4      84.748  99.239  90.1160  0.00  0.00     0.000 C
ATOM     61  C4  IDS C   4      84.107  97.967  89.5800  0.00  0.00     0.000 C
ATOM     62  C5  IDS C   4      82.917  97.548  90.4520  0.00  0.00     0.000 C
ATOM     63  O5  IDS C   4      82.063  98.646  90.7390  0.00  0.00     0.000 O
ATOM     64   O  IDS C   4      85.702  98.879  91.0970  0.00  0.00     0.000 O
ATOM     66  HD  IDS C   4      85.609  98.047  91.3180  0.00  0.00     0.000 HD
BRANCH 59 66
ATOM     66   O  IDS C   4      83.268 101.103  89.7470  0.00  0.00     0.000 O
ATOM     67   S  IDS C   4      83.497 102.669  89.9190  0.00  0.00     0.000 S
ATOM     68   O  IDS C   4      84.931 102.803  89.8270  0.00  0.00     0.000 OA
ATOM     69   O  IDS C   4      82.755 103.276  88.8320  0.00  0.00     0.000 OA
ATOM     70   O  IDS C   4      83.008 103.032  91.2400  0.00  0.00     0.000 OA
ENDBRANCH 59 66
BRANCH 62 71
ATOM     71   C  IDS C   4      82.035  96.505  89.7940  0.00  0.00     0.000 C
ATOM     72   O  IDS C   4      80.911  96.795  89.4330  0.00  0.00     0.000 OA
ATOM     73   O  IDS C   4      82.451  95.330  89.7300  0.00  0.00     0.000 OA
ENDBRANCH 62 71
BRANCH 58 74
ATOM     74  O4  SGN C   5      83.077  99.180  92.8470  0.00  0.00     0.000 O
BRANCH 74 78
ATOM     75  C1  SGN C   5      81.926  98.924  96.8530  0.00  0.00     0.000 C
ATOM     76  C2  SGN C   5      81.317  97.873  95.9070  0.00  0.00     0.000 C
ATOM     77  C3  SGN C   5      82.064  97.852  94.5670  0.00  0.00     0.000 C
ATOM     78  C4  SGN C   5      82.245  99.255  94.0040  0.00  0.00     0.000 C
ATOM     79  C5  SGN C   5      82.879 100.147  95.0620  0.00  0.00     0.000 C
ATOM     80  O5  SGN C   5      82.020 100.199  96.2310  0.00  0.00     0.000 O
ATOM     81   O  SGN C   5      81.344  97.035  93.6490  0.00  0.00     0.000 O
ATOM     83  HD  SGN C   5      80.938  96.314  93.9050  0.00  0.00     0.000 HD
BRANCH 76 85
ATOM     83   N  SGN C   5      80.572  96.629  96.1390  0.00  0.00     0.000 N
ATOM     85  HD  SGN C   5      80.040  96.130  96.6050  0.00  0.00     0.000 HD
ATOM     85   S  SGN C   5      80.357  95.806  97.5070  0.00  0.00     0.000 S
ATOM     86   O  SGN C   5      79.523  94.676  97.2810  0.00  0.00     0.000 OA
ATOM     87   O  SGN C   5      81.642  95.561  98.0550  0.00  0.00     0.000 OA
ATOM     88   O  SGN C   5      79.589  96.902  98.2410  0.00  0.00     0.000 OA
ENDBRANCH 76 85
BRANCH 79 89
ATOM     89   C  SGN C   5      83.123 101.566  94.5870  0.00  0.00     0.000 C
ATOM     90   O  SGN C   5      82.307 102.486  95.3520  0.00  0.00     0.000 O
ATOM     91   S  SGN C   5      82.907 103.955  95.5920  0.00  0.00     0.000 S
ATOM     92   O  SGN C   5      84.224 103.770  96.1430  0.00  0.00     0.000 OA
ATOM     93   O  SGN C   5      82.934 104.615  94.3120  0.00  0.00     0.000 OA
ATOM     94   O  SGN C   5      81.977 104.545  96.5160  0.00  0.00     0.000 OA
ENDBRANCH 79 89
BRANCH 75 95
ATOM     95  O4  BDP C   6      83.178  98.470  97.1580  0.00  0.00     0.000 O
BRANCH 95 99
ATOM     96  C1  BDP C   6      85.533  98.910 100.7230  0.00  0.00     0.000 C
ATOM     97  C2  BDP C   6      84.046  98.740 100.8570  0.00  0.00     0.000 C
ATOM     98  C3  BDP C   6      83.351  98.214  99.5920  0.00  0.00     0.000 C
ATOM     99  C4  BDP C   6      83.787  98.993  98.3590  0.00  0.00     0.000 C
ATOM    100  C5  BDP C   6      85.333  99.047  98.3490  0.00  0.00     0.000 C
ATOM    101  O5  BDP C   6      85.653  99.727  99.5740  0.00  0.00     0.000 O
BRANCH 100 102
ATOM    102   C  BDP C   6      85.878  99.866  97.2070  0.00  0.00     0.000 C
ATOM    103   O  BDP C   6      85.885 101.105  97.2250  0.00  0.00     0.000 OA
ATOM    104   O  BDP C   6      86.337  99.243  96.2420  0.00  0.00     0.000 OA
ENDBRANCH 100 102
ENDBRANCH 95 99
ENDBRANCH 75 95
ENDBRANCH 74 78
ENDBRANCH 58 74
ENDBRANCH 57 61
ENDBRANCH 37 57
ENDBRANCH 36 40
ENDBRANCH 23 36
ENDBRANCH 22 26
ENDBRANCH 1 22
TORSDOF 20
ENDMDL
MODEL 44
REMARK VINA RESULT:      -0.3    105.343    111.111
ROOT
ATOM      1  C1  NGY C   1      85.112  84.713  85.7760  0.00  0.00     0.000 C
ATOM      2  C2  NGY C   1      84.309  83.504  86.2370  0.00  0.00     0.000 C
ATOM      3  C3  NGY C   1      84.114  82.527  85.0820  0.00  0.00     0.000 C
ATOM      4  C4  NGY C   1      83.488  83.279  83.9240  0.00  0.00     0.000 C
ATOM      5  C5  NGY C   1      84.427  84.408  83.5080  0.00  0.00     0.000 C
ATOM      6  O5  NGY C   1      84.563  85.322  84.6270  0.00  0.00     0.000 O
ATOM      7   O  NGY C   1      83.303  81.446  85.5180  0.00  0.00     0.000 O
ATOM      9  HD  NGY C   1      82.625  81.329  86.0440  0.00  0.00     0.000 HD
ATOM      9   O  NGY C   1      83.250  82.412  82.8240  0.00  0.00     0.000 O
ATOM     11  HD  NGY C   1      82.572  82.296  83.3500  0.00  0.00     0.000 HD
ENDROOT
BRANCH 2 13
ATOM     11   N  NGY C   1      84.985  83.128  87.4570  0.00  0.00     0.000 N
ATOM     13  HD  NGY C   1      84.317  82.773  87.8770  0.00  0.00     0.000 HD
ATOM     13   C  NGY C   1      84.341  82.524  88.4540  0.00  0.00     0.000 C
ATOM     14   O  NGY C   1      83.116  82.393  88.4340  0.00  0.00     0.000 OA
ATOM     15   C  NGY C   1      85.183  81.996  89.5760  0.00  0.00     0.000 C
ENDBRANCH 2 13
BRANCH 5 16
ATOM     16   C  NGY C   1      83.950  85.241  82.3610  0.00  0.00     0.000 C
ATOM     17   O  NGY C   1      85.113  84.832  78.9060  0.00  0.00     0.000 OA
ATOM     18   O  NGY C   1      84.762  84.959  81.2180  0.00  0.00     0.000 O
ATOM     19   S  NGY C   1      84.156  85.382  79.8320  0.00  0.00     0.000 S
ATOM     20   O  NGY C   1      84.127  86.820  79.8010  0.00  0.00     0.000 OA
ATOM     21   O  NGY C   1      82.835  84.774  79.8100  0.00  0.00     0.000 OA
ENDBRANCH 5 16
BRANCH 1 22
ATOM     22  O4  BDP C   2      86.397  84.340  85.6030  0.00  0.00     0.000 O
BRANCH 22 26
ATOM     23  C1  BDP C   2      90.431  85.149  85.8130  0.00  0.00     0.000 C
ATOM     24  C2  BDP C   2      89.633  85.495  87.0480  0.00  0.00     0.000 C
ATOM     25  C3  BDP C   2      88.285  84.827  86.9830  0.00  0.00     0.000 C
ATOM     26  C4  BDP C   2      87.590  85.167  85.6690  0.00  0.00     0.000 C
ATOM     27  C5  BDP C   2      88.547  84.945  84.5060  0.00  0.00     0.000 C
ATOM     28  O5  BDP C   2      89.776  85.705  84.6380  0.00  0.00     0.000 O
ATOM     29   O  BDP C   2      90.215  84.963  88.2390  0.00  0.00     0.000 O
ATOM     31  HD  BDP C   2      89.666  84.693  88.8510  0.00  0.00     0.000 HD
ATOM     31   O  BDP C   2      87.525  85.321  88.0800  0.00  0.00     0.000 O
ATOM     33  HD  BDP C   2      86.976  85.051  88.6920  0.00  0.00     0.000 HD
BRANCH 27 33
ATOM     33   C  BDP C   2      87.951  85.356  83.1800  0.00  0.00     0.000 C
ATOM     34   O  BDP C   2      87.396  86.469  83.0170  0.00  0.00     0.000 OA
ATOM     35   O  BDP C   2      87.986  84.561  82.2560  0.00  0.00     0.000 OA
ENDBRANCH 27 33
BRANCH 23 36
ATOM     36  O4  SGN C   3      91.712  85.583  85.8110  0.00  0.00     0.000 O
BRANCH 36 40
ATOM     37  C1  SGN C   3      95.639  84.694  84.7040  0.00  0.00     0.000 C
ATOM     38  C2  SGN C   3      94.705  85.269  83.6260  0.00  0.00     0.000 C
ATOM     39  C3  SGN C   3      93.496  85.932  84.2680  0.00  0.00     0.000 C
ATOM     40  C4  SGN C   3      92.799  84.924  85.1560  0.00  0.00     0.000 C
ATOM     41  C5  SGN C   3      93.794  84.396  86.1670  0.00  0.00     0.000 C
ATOM     42  O5  SGN C   3      94.894  83.773  85.4850  0.00  0.00     0.000 O
ATOM     43   O  SGN C   3      92.622  86.402  83.2480  0.00  0.00     0.000 O
ATOM     45  HD  SGN C   3      92.170  86.224  83.9650  0.00  0.00     0.000 HD
BRANCH 38 47
ATOM     45   N  SGN C   3      95.821  84.664  82.8770  0.00  0.00     0.000 N
ATOM     47  HD  SGN C   3      95.173  84.567  83.4440  0.00  0.00     0.000 HD
ATOM     47   S  SGN C   3      96.325  85.600  81.6960  0.00  0.00     0.000 S
ATOM     48   O  SGN C   3      95.334  85.745  80.6900  0.00  0.00     0.000 OA
ATOM     49   O  SGN C   3      96.803  86.800  82.3020  0.00  0.00     0.000 OA
ATOM     50   O  SGN C   3      97.418  84.809  81.1350  0.00  0.00     0.000 OA
ENDBRANCH 38 47
BRANCH 41 51
ATOM     51   C  SGN C   3      93.222  83.381  87.1200  0.00  0.00     0.000 C
ATOM     52   O  SGN C   3      93.156  83.568  90.8400  0.00  0.00     0.000 OA
ATOM     53   O  SGN C   3      91.562  82.608  89.3330  0.00  0.00     0.000 OA
ATOM     54   O  SGN C   3      93.773  81.689  89.5140  0.00  0.00     0.000 OA
ATOM     55   O  SGN C   3      93.359  83.866  88.4370  0.00  0.00     0.000 O
ATOM     56   S  SGN C   3      92.922  82.835  89.6430  0.00  0.00     0.000 S
ENDBRANCH 41 51
BRANCH 37 57
ATOM     57  O4  IDS C   4      96.178  85.618  85.5370  0.00  0.00     0.000 O
BRANCH 57 61
ATOM     58  C1  IDS C   4      99.687  86.423  86.7650  0.00  0.00     0.000 C
ATOM     59  C2  IDS C   4      99.525  85.446  85.6440  0.00  0.00     0.000 C
ATOM     60  C3  IDS C   4      98.333  84.507  85.8460  0.00  0.00     0.000 C
ATOM     61  C4  IDS C   4      97.102  85.103  86.5140  0.00  0.00     0.000 C
ATOM     62  C5  IDS C   4      97.501  86.191  87.5180  0.00  0.00     0.000 C
ATOM     63  O5  IDS C   4      98.453  87.091  86.9680  0.00  0.00     0.000 O
ATOM     64   O  IDS C   4      98.819  83.458  86.6620  0.00  0.00     0.000 O
ATOM     66  HD  IDS C   4      98.439  83.478  87.4400  0.00  0.00     0.000 HD
BRANCH 59 66
ATOM     66   O  IDS C   4      99.305  86.129  84.3560  0.00  0.00     0.000 O
ATOM     67   S  IDS C   4     100.413  85.907  83.2350  0.00  0.00     0.000 S
ATOM     68   O  IDS C   4     100.311  84.496  82.9470  0.00  0.00     0.000 OA
ATOM     69   O  IDS C   4     100.025  86.782  82.1470  0.00  0.00     0.000 OA
ATOM     70   O  IDS C   4     101.699  86.241  83.8290  0.00  0.00     0.000 OA
ENDBRANCH 59 66
BRANCH 62 71
ATOM     71   C  IDS C   4      96.332  87.051  87.9590  0.00  0.00     0.000 C
ATOM     72   O  IDS C   4      95.402  86.554  88.5630  0.00  0.00     0.000 OA
ATOM     73   O  IDS C   4      96.304  88.245  87.5970  0.00  0.00     0.000 OA
ENDBRANCH 62 71
BRANCH 58 74
ATOM     74  O4  SGN C   5     100.375  85.953  87.8440  0.00  0.00     0.000 O
BRANCH 74 78
ATOM     75  C1  SGN C   5     103.208  86.777  90.7990  0.00  0.00     0.000 C
ATOM     76  C2  SGN C   5     101.863  87.517  90.9280  0.00  0.00     0.000 C
ATOM     77  C3  SGN C   5     100.808  86.886  90.0090  0.00  0.00     0.000 C
ATOM     78  C4  SGN C   5     101.344  86.680  88.5990  0.00  0.00     0.000 C
ATOM     79  C5  SGN C   5     102.657  85.915  88.6620  0.00  0.00     0.000 C
ATOM     80  O5  SGN C   5     103.621  86.670  89.4430  0.00  0.00     0.000 O
ATOM     81   O  SGN C   5      99.655  87.722  89.9880  0.00  0.00     0.000 O
ATOM     83  HD  SGN C   5      99.386  88.142  90.6960  0.00  0.00     0.000 HD
BRANCH 76 85
ATOM     83   N  SGN C   5     101.822  87.339  92.3850  0.00  0.00     0.000 N
ATOM     85  HD  SGN C   5     101.515  87.529  93.1720  0.00  0.00     0.000 HD
ATOM     85   S  SGN C   5     101.699  88.447  93.5470  0.00  0.00     0.000 S
ATOM     86   O  SGN C   5     101.650  87.824  94.8240  0.00  0.00     0.000 OA
ATOM     87   O  SGN C   5     102.731  89.397  93.3310  0.00  0.00     0.000 OA
ATOM     88   O  SGN C   5     100.317  88.957  93.1440  0.00  0.00     0.000 OA
ENDBRANCH 76 85
BRANCH 79 89
ATOM     89   C  SGN C   5     103.261  85.637  87.3010  0.00  0.00     0.000 C
ATOM     90   O  SGN C   5     104.123  86.736  86.9130  0.00  0.00     0.000 O
ATOM     91   S  SGN C   5     105.386  86.371  85.9940  0.00  0.00     0.000 S
ATOM     92   O  SGN C   5     106.087  85.309  86.6680  0.00  0.00     0.000 OA
ATOM     93   O  SGN C   5     104.873  85.964  84.7110  0.00  0.00     0.000 OA
ATOM     94   O  SGN C   5     106.125  87.603  85.9440  0.00  0.00     0.000 OA
ENDBRANCH 79 89
BRANCH 75 95
ATOM     95  O4  BDP C   6     102.998  85.529  91.3150  0.00  0.00     0.000 O
BRANCH 95 99
ATOM     96  C1  BDP C   6     105.616  82.755  93.2880  0.00  0.00     0.000 C
ATOM     97  C2  BDP C   6     105.652  84.199  93.7010  0.00  0.00     0.000 C
ATOM     98  C3  BDP C   6     104.443  85.023  93.2310  0.00  0.00     0.000 C
ATOM     99  C4  BDP C   6     104.164  84.799  91.7520  0.00  0.00     0.000 C
ATOM    100  C5  BDP C   6     104.125  83.274  91.4980  0.00  0.00     0.000 C
ATOM    101  O5  BDP C   6     105.436  82.834  91.8860  0.00  0.00     0.000 O
BRANCH 100 102
ATOM    102   C  BDP C   6     103.931  82.931  90.0430  0.00  0.00     0.000 C
ATOM    103   O  BDP C   6     104.816  83.118  89.1950  0.00  0.00     0.000 OA
ATOM    104   O  BDP C   6     102.843  82.437  89.7250  0.00  0.00     0.000 OA
ENDBRANCH 100 102
ENDBRANCH 95 99
ENDBRANCH 75 95
ENDBRANCH 74 78
ENDBRANCH 58 74
ENDBRANCH 57 61
ENDBRANCH 37 57
ENDBRANCH 36 40
ENDBRANCH 23 36
ENDBRANCH 22 26
ENDBRANCH 1 22
TORSDOF 20
ENDMDL
MODEL 45
REMARK VINA RESULT:      -0.3     32.851     39.819
ROOT
ATOM      1  C1  NGY C   1      56.980  38.202  22.9550  0.00  0.00     0.000 C
ATOM      2  C2  NGY C   1      56.796  38.583  21.4920  0.00  0.00     0.000 C
ATOM      3  C3  NGY C   1      56.181  37.422  20.7170  0.00  0.00     0.000 C
ATOM      4  C4  NGY C   1      57.046  36.194  20.9330  0.00  0.00     0.000 C
ATOM      5  C5  NGY C   1      57.080  35.875  22.4250  0.00  0.00     0.000 C
ATOM      6  O5  NGY C   1      57.693  36.994  23.1160  0.00  0.00     0.000 O
ATOM      7   O  NGY C   1      56.087  37.774  19.3450  0.00  0.00     0.000 O
ATOM      9  HD  NGY C   1      56.553  38.223  18.7690  0.00  0.00     0.000 HD
ATOM      9   O  NGY C   1      56.542  35.083  20.2070  0.00  0.00     0.000 O
ATOM     11  HD  NGY C   1      57.007  35.532  19.6310  0.00  0.00     0.000 HD
ENDROOT
BRANCH 2 13
ATOM     11   N  NGY C   1      56.161  39.876  21.5890  0.00  0.00     0.000 N
ATOM     13  HD  NGY C   1      56.442  40.219  20.8450  0.00  0.00     0.000 HD
ATOM     13   C  NGY C   1      56.307  40.798  20.6390  0.00  0.00     0.000 C
ATOM     14   O  NGY C   1      57.103  40.638  19.7120  0.00  0.00     0.000 OA
ATOM     15   C  NGY C   1      55.439  42.014  20.7430  0.00  0.00     0.000 C
ENDBRANCH 2 13
BRANCH 5 16
ATOM     16   C  NGY C   1      57.891  34.676  22.7990  0.00  0.00     0.000 C
ATOM     17   O  NGY C   1      56.463  31.366  23.4800  0.00  0.00     0.000 OA
ATOM     18   O  NGY C   1      57.004  33.627  23.1990  0.00  0.00     0.000 O
ATOM     19   S  NGY C   1      57.617  32.181  23.1960  0.00  0.00     0.000 S
ATOM     20   O  NGY C   1      58.595  32.131  24.2510  0.00  0.00     0.000 OA
ATOM     21   O  NGY C   1      58.187  32.027  21.8680  0.00  0.00     0.000 OA
ENDBRANCH 5 16
BRANCH 1 22
ATOM     22  O4  BDP C   2      55.770  38.175  23.5520  0.00  0.00     0.000 O
BRANCH 22 26
ATOM     23  C1  BDP C   2      53.359  38.749  26.8420  0.00  0.00     0.000 C
ATOM     24  C2  BDP C   2      54.215  39.930  26.4500  0.00  0.00     0.000 C
ATOM     25  C3  BDP C   2      54.752  39.725  25.0570  0.00  0.00     0.000 C
ATOM     26  C4  BDP C   2      55.455  38.375  24.9550  0.00  0.00     0.000 C
ATOM     27  C5  BDP C   2      54.568  37.284  25.5400  0.00  0.00     0.000 C
ATOM     28  O5  BDP C   2      54.183  37.551  26.9130  0.00  0.00     0.000 O
ATOM     29   O  BDP C   2      53.461  41.137  26.3450  0.00  0.00     0.000 O
ATOM     31  HD  BDP C   2      53.699  41.690  25.7230  0.00  0.00     0.000 HD
ATOM     31   O  BDP C   2      55.676  40.777  24.8110  0.00  0.00     0.000 O
ATOM     33  HD  BDP C   2      55.914  41.330  24.1890  0.00  0.00     0.000 HD
BRANCH 27 33
ATOM     33   C  BDP C   2      55.246  35.936  25.5590  0.00  0.00     0.000 C
ATOM     34   O  BDP C   2      56.418  35.786  25.9810  0.00  0.00     0.000 OA
ATOM     35   O  BDP C   2      54.640  34.975  25.1150  0.00  0.00     0.000 OA
ENDBRANCH 27 33
BRANCH 23 36
ATOM     36  O4  SGN C   3      52.711  38.870  28.0240  0.00  0.00     0.000 O
BRANCH 36 40
ATOM     37  C1  SGN C   3      49.131  38.194  30.0620  0.00  0.00     0.000 C
ATOM     38  C2  SGN C   3      50.110  37.017  29.9290  0.00  0.00     0.000 C
ATOM     39  C3  SGN C   3      51.501  37.519  29.5710  0.00  0.00     0.000 C
ATOM     40  C4  SGN C   3      51.412  38.342  28.3030  0.00  0.00     0.000 C
ATOM     41  C5  SGN C   3      50.413  39.458  28.5160  0.00  0.00     0.000 C
ATOM     42  O5  SGN C   3      49.127  38.904  28.8340  0.00  0.00     0.000 O
ATOM     43   O  SGN C   3      52.371  36.407  29.3960  0.00  0.00     0.000 O
ATOM     45  HD  SGN C   3      52.646  37.075  28.9180  0.00  0.00     0.000 HD
BRANCH 38 47
ATOM     45   N  SGN C   3      48.833  36.339  30.2160  0.00  0.00     0.000 N
ATOM     47  HD  SGN C   3      49.302  36.838  29.6850  0.00  0.00     0.000 HD
ATOM     47   S  SGN C   3      48.975  35.264  31.3780  0.00  0.00     0.000 S
ATOM     48   O  SGN C   3      49.806  34.182  30.9850  0.00  0.00     0.000 OA
ATOM     49   O  SGN C   3      49.365  35.978  32.5490  0.00  0.00     0.000 OA
ATOM     50   O  SGN C   3      47.607  34.760  31.4850  0.00  0.00     0.000 OA
ENDBRANCH 38 47
BRANCH 41 51
ATOM     51   C  SGN C   3      50.233  40.358  27.3240  0.00  0.00     0.000 C
ATOM     52   O  SGN C   3      49.675  39.331  23.7860  0.00  0.00     0.000 OA
ATOM     53   O  SGN C   3      48.833  41.232  24.9720  0.00  0.00     0.000 OA
ATOM     54   O  SGN C   3      51.189  40.994  24.5700  0.00  0.00     0.000 OA
ATOM     55   O  SGN C   3      49.999  39.562  26.1830  0.00  0.00     0.000 O
ATOM     56   S  SGN C   3      49.918  40.355  24.7440  0.00  0.00     0.000 S
ENDBRANCH 41 51
BRANCH 37 57
ATOM     57  O4  IDS C   4      49.427  39.067  31.0560  0.00  0.00     0.000 O
BRANCH 57 61
ATOM     58  C1  IDS C   4      48.707  40.897  34.3120  0.00  0.00     0.000 C
ATOM     59  C2  IDS C   4      48.535  39.412  34.2700  0.00  0.00     0.000 C
ATOM     60  C3  IDS C   4      47.904  38.926  32.9620  0.00  0.00     0.000 C
ATOM     61  C4  IDS C   4      48.292  39.679  31.6980  0.00  0.00     0.000 C
ATOM     62  C5  IDS C   4      48.568  41.156  32.0080  0.00  0.00     0.000 C
ATOM     63  O5  IDS C   4      49.402  41.308  33.1470  0.00  0.00     0.000 O
ATOM     64   O  IDS C   4      46.508  39.061  33.1500  0.00  0.00     0.000 O
ATOM     66  HD  IDS C   4      46.189  39.672  32.6260  0.00  0.00     0.000 HD
BRANCH 59 66
ATOM     66   O  IDS C   4      49.828  38.712  34.3950  0.00  0.00     0.000 O
ATOM     67   S  IDS C   4      50.076  37.915  35.7500  0.00  0.00     0.000 S
ATOM     68   O  IDS C   4      49.077  36.875  35.7070  0.00  0.00     0.000 OA
ATOM     69   O  IDS C   4      51.446  37.449  35.6630  0.00  0.00     0.000 OA
ATOM     70   O  IDS C   4      49.839  38.843  36.8450  0.00  0.00     0.000 OA
ENDBRANCH 59 66
BRANCH 62 71
ATOM     71   C  IDS C   4      49.281  41.877  30.8800  0.00  0.00     0.000 C
ATOM     72   O  IDS C   4      50.478  42.078  30.9450  0.00  0.00     0.000 OA
ATOM     73   O  IDS C   4      48.597  42.343  29.9470  0.00  0.00     0.000 OA
ENDBRANCH 62 71
BRANCH 58 74
ATOM     74  O4  SGN C   5      47.604  41.593  34.7100  0.00  0.00     0.000 O
BRANCH 74 78
ATOM     75  C1  SGN C   5      46.126  44.790  36.9530  0.00  0.00     0.000 C
ATOM     76  C2  SGN C   5      46.788  45.155  35.6110  0.00  0.00     0.000 C
ATOM     77  C3  SGN C   5      46.974  43.906  34.7400  0.00  0.00     0.000 C
ATOM     78  C4  SGN C   5      47.603  42.764  35.5260  0.00  0.00     0.000 C
ATOM     79  C5  SGN C   5      46.808  42.526  36.8010  0.00  0.00     0.000 C
ATOM     80  O5  SGN C   5      46.815  43.734  37.6090  0.00  0.00     0.000 O
ATOM     81   O  SGN C   5      47.780  44.242  33.6160  0.00  0.00     0.000 O
ATOM     83  HD  SGN C   5      47.713  45.011  33.2220  0.00  0.00     0.000 HD
BRANCH 76 85
ATOM     83   N  SGN C   5      46.378  46.525  35.9470  0.00  0.00     0.000 N
ATOM     85  HD  SGN C   5      45.878  47.224  35.8390  0.00  0.00     0.000 HD
ATOM     85   S  SGN C   5      45.951  47.733  34.9710  0.00  0.00     0.000 S
ATOM     86   O  SGN C   5      45.584  48.878  35.7300  0.00  0.00     0.000 OA
ATOM     87   O  SGN C   5      46.994  47.894  34.0230  0.00  0.00     0.000 OA
ATOM     88   O  SGN C   5      44.713  47.050  34.3940  0.00  0.00     0.000 OA
ENDBRANCH 76 85
BRANCH 79 89
ATOM     89   C  SGN C   5      47.344  41.387  37.6440  0.00  0.00     0.000 C
ATOM     90   O  SGN C   5      47.377  41.782  39.0380  0.00  0.00     0.000 O
ATOM     91   S  SGN C   5      47.151  40.620  40.1220  0.00  0.00     0.000 S
ATOM     92   O  SGN C   5      45.934  39.948  39.7500  0.00  0.00     0.000 OA
ATOM     93   O  SGN C   5      48.300  39.753  40.0580  0.00  0.00     0.000 OA
ATOM     94   O  SGN C   5      47.052  41.340  41.3620  0.00  0.00     0.000 OA
ENDBRANCH 79 89
BRANCH 75 95
ATOM     95  O4  BDP C   6      44.857  44.389  36.6440  0.00  0.00     0.000 O
BRANCH 95 99
ATOM     96  C1  BDP C   6      41.541  43.528  39.2350  0.00  0.00     0.000 C
ATOM     97  C2  BDP C   6      42.558  44.542  39.6770  0.00  0.00     0.000 C
ATOM     98  C3  BDP C   6      43.469  45.057  38.5530  0.00  0.00     0.000 C
ATOM     99  C4  BDP C   6      44.041  43.909  37.7350  0.00  0.00     0.000 C
ATOM    100  C5  BDP C   6      42.872  42.981  37.3310  0.00  0.00     0.000 C
ATOM    101  O5  BDP C   6      42.334  42.548  38.5910  0.00  0.00     0.000 O
BRANCH 100 102
ATOM    102   C  BDP C   6      43.333  41.759  36.5780  0.00  0.00     0.000 C
ATOM    103   O  BDP C   6      43.077  41.585  35.3780  0.00  0.00     0.000 OA
ATOM    104   O  BDP C   6      43.997  40.930  37.2110  0.00  0.00     0.000 OA
ENDBRANCH 100 102
ENDBRANCH 95 99
ENDBRANCH 75 95
ENDBRANCH 74 78
ENDBRANCH 58 74
ENDBRANCH 57 61
ENDBRANCH 37 57
ENDBRANCH 36 40
ENDBRANCH 23 36
ENDBRANCH 22 26
ENDBRANCH 1 22
TORSDOF 20
ENDMDL
MODEL 46
REMARK VINA RESULT:      -0.3    143.472    149.805
ROOT
ATOM      1  C1  NGY C   1     104.963 116.486 119.2280  0.00  0.00     0.000 C
ATOM      2  C2  NGY C   1     103.678 116.817 118.4820  0.00  0.00     0.000 C
ATOM      3  C3  NGY C   1     103.965 117.785 117.3380  0.00  0.00     0.000 C
ATOM      4  C4  NGY C   1     104.679 118.996 117.9080  0.00  0.00     0.000 C
ATOM      5  C5  NGY C   1     105.984 118.537 118.5510  0.00  0.00     0.000 C
ATOM      6  O5  NGY C   1     105.661 117.640 119.6450  0.00  0.00     0.000 O
ATOM      7   O  NGY C   1     102.742 118.135 116.7050  0.00  0.00     0.000 O
ATOM      9  HD  NGY C   1     101.922 118.283 116.9410  0.00  0.00     0.000 HD
ATOM      9   O  NGY C   1     104.944 119.953 116.8920  0.00  0.00     0.000 O
ATOM     11  HD  NGY C   1     104.124 120.101 117.1280  0.00  0.00     0.000 HD
ENDROOT
BRANCH 2 13
ATOM     11   N  NGY C   1     103.102 115.513 118.2520  0.00  0.00     0.000 N
ATOM     13  HD  NGY C   1     102.265 115.735 118.2450  0.00  0.00     0.000 HD
ATOM     13   C  NGY C   1     101.785 115.338 118.1630  0.00  0.00     0.000 C
ATOM     14   O  NGY C   1     101.001 116.254 118.4160  0.00  0.00     0.000 OA
ATOM     15   C  NGY C   1     101.315 113.987 117.7160  0.00  0.00     0.000 C
ENDBRANCH 2 13
BRANCH 5 16
ATOM     16   C  NGY C   1     106.813 119.627 119.1530  0.00  0.00     0.000 C
ATOM     17   O  NGY C   1     109.724 121.135 117.5090  0.00  0.00     0.000 OA
ATOM     18   O  NGY C   1     107.977 119.818 118.3460  0.00  0.00     0.000 O
ATOM     19   S  NGY C   1     108.727 121.184 118.5470  0.00  0.00     0.000 S
ATOM     20   O  NGY C   1     109.306 121.161 119.8650  0.00  0.00     0.000 OA
ATOM     21   O  NGY C   1     107.695 122.196 118.3850  0.00  0.00     0.000 OA
ENDBRANCH 5 16
BRANCH 1 22
ATOM     22  O4  BDP C   2     105.716 115.674 118.4560  0.00  0.00     0.000 O
BRANCH 22 26
ATOM     23  C1  BDP C   2     108.386 112.569 118.0190  0.00  0.00     0.000 C
ATOM     24  C2  BDP C   2     107.140 112.248 118.8100  0.00  0.00     0.000 C
ATOM     25  C3  BDP C   2     106.108 113.322 118.5860  0.00  0.00     0.000 C
ATOM     26  C4  BDP C   2     106.703 114.696 118.8760  0.00  0.00     0.000 C
ATOM     27  C5  BDP C   2     108.042 114.840 118.1640  0.00  0.00     0.000 C
ATOM     28  O5  BDP C   2     108.983 113.796 118.5240  0.00  0.00     0.000 O
ATOM     29   O  BDP C   2     106.495 111.060 118.3520  0.00  0.00     0.000 O
ATOM     31  HD  BDP C   2     105.630 111.054 118.3790  0.00  0.00     0.000 HD
ATOM     31   O  BDP C   2     105.034 113.056 119.4790  0.00  0.00     0.000 O
ATOM     33  HD  BDP C   2     104.168 113.050 119.5060  0.00  0.00     0.000 HD
BRANCH 27 33
ATOM     33   C  BDP C   2     108.732 116.144 118.4900  0.00  0.00     0.000 C
ATOM     34   O  BDP C   2     108.811 116.580 119.6630  0.00  0.00     0.000 OA
ATOM     35   O  BDP C   2     109.192 116.802 117.5720  0.00  0.00     0.000 OA
ENDBRANCH 27 33
BRANCH 23 36
ATOM     36  O4  SGN C   3     109.343 111.613 118.0320  0.00  0.00     0.000 O
BRANCH 36 40
ATOM     37  C1  SGN C   3     112.265 109.662 115.7760  0.00  0.00     0.000 C
ATOM     38  C2  SGN C   3     112.662 110.968 116.4820  0.00  0.00     0.000 C
ATOM     39  C3  SGN C   3     111.664 111.305 117.5800  0.00  0.00     0.000 C
ATOM     40  C4  SGN C   3     110.278 111.373 116.9760  0.00  0.00     0.000 C
ATOM     41  C5  SGN C   3     109.981 110.061 116.2850  0.00  0.00     0.000 C
ATOM     42  O5  SGN C   3     110.954 109.823 115.2560  0.00  0.00     0.000 O
ATOM     43   O  SGN C   3     112.022 112.545 118.1760  0.00  0.00     0.000 O
ATOM     45  HD  SGN C   3     111.168 112.419 118.2480  0.00  0.00     0.000 HD
BRANCH 38 47
ATOM     45   N  SGN C   3     113.700 110.753 115.4580  0.00  0.00     0.000 N
ATOM     47  HD  SGN C   3     112.862 110.857 115.6500  0.00  0.00     0.000 HD
ATOM     47   S  SGN C   3     115.160 111.041 116.0180  0.00  0.00     0.000 S
ATOM     48   O  SGN C   3     115.332 112.415 116.3330  0.00  0.00     0.000 OA
ATOM     49   O  SGN C   3     115.384 110.109 117.0730  0.00  0.00     0.000 OA
ATOM     50   O  SGN C   3     115.989 110.744 114.8510  0.00  0.00     0.000 OA
ENDBRANCH 38 47
BRANCH 41 51
ATOM     51   C  SGN C   3     108.622 109.996 115.6430  0.00  0.00     0.000 C
ATOM     52   O  SGN C   3     105.920 107.525 116.3250  0.00  0.00     0.000 OA
ATOM     53   O  SGN C   3     105.755 109.841 115.7420  0.00  0.00     0.000 OA
ATOM     54   O  SGN C   3     106.680 108.259 114.1910  0.00  0.00     0.000 OA
ATOM     55   O  SGN C   3     107.893 108.939 116.2250  0.00  0.00     0.000 O
ATOM     56   S  SGN C   3     106.425 108.611 115.5560  0.00  0.00     0.000 S
ENDBRANCH 41 51
BRANCH 37 57
ATOM     57  O4  IDS C   4     112.273 108.564 116.5710  0.00  0.00     0.000 O
BRANCH 57 61
ATOM     58  C1  IDS C   4     113.795 105.087 116.3140  0.00  0.00     0.000 C
ATOM     59  C2  IDS C   4     114.193 106.121 115.3090  0.00  0.00     0.000 C
ATOM     60  C3  IDS C   4     113.017 106.989 114.8550  0.00  0.00     0.000 C
ATOM     61  C4  IDS C   4     111.969 107.321 115.9080  0.00  0.00     0.000 C
ATOM     62  C5  IDS C   4     111.837 106.179 116.9220  0.00  0.00     0.000 C
ATOM     63  O5  IDS C   4     113.104 105.725 117.3740  0.00  0.00     0.000 O
ATOM     64   O  IDS C   4     112.391 106.256 113.8190  0.00  0.00     0.000 O
ATOM     66  HD  IDS C   4     111.603 105.995 114.0660  0.00  0.00     0.000 HD
BRANCH 59 66
ATOM     66   O  IDS C   4     115.208 107.043 115.8540  0.00  0.00     0.000 O
ATOM     67   S  IDS C   4     116.642 107.010 115.1640  0.00  0.00     0.000 S
ATOM     68   O  IDS C   4     116.373 107.478 113.8250  0.00  0.00     0.000 OA
ATOM     69   O  IDS C   4     117.463 107.895 115.9660  0.00  0.00     0.000 OA
ATOM     70   O  IDS C   4     117.090 105.626 115.1690  0.00  0.00     0.000 OA
ENDBRANCH 59 66
BRANCH 62 71
ATOM     71   C  IDS C   4     111.075 106.578 118.1720  0.00  0.00     0.000 C
ATOM     72   O  IDS C   4     109.913 106.924 118.0940  0.00  0.00     0.000 OA
ATOM     73   O  IDS C   4     111.697 106.641 119.2510  0.00  0.00     0.000 OA
ENDBRANCH 62 71
BRANCH 58 74
ATOM     74  O4  SGN C   5     113.288 103.937 115.7850  0.00  0.00     0.000 O
BRANCH 74 78
ATOM     75  C1  SGN C   5     113.120  99.771 116.0250  0.00  0.00     0.000 C
ATOM     76  C2  SGN C   5     112.320 100.542 117.0920  0.00  0.00     0.000 C
ATOM     77  C3  SGN C   5     112.179 102.019 116.7010  0.00  0.00     0.000 C
ATOM     78  C4  SGN C   5     113.514 102.618 116.2820  0.00  0.00     0.000 C
ATOM     79  C5  SGN C   5     114.148 101.744 115.2100  0.00  0.00     0.000 C
ATOM     80  O5  SGN C   5     114.358 100.407 115.7360  0.00  0.00     0.000 O
ATOM     81   O  SGN C   5     111.633 102.737 117.8030  0.00  0.00     0.000 O
ATOM     83  HD  SGN C   5     111.030 102.389 118.3180  0.00  0.00     0.000 HD
BRANCH 76 85
ATOM     83   N  SGN C   5     111.304 100.134 118.0700  0.00  0.00     0.000 N
ATOM     85  HD  SGN C   5     110.937  99.553 118.5980  0.00  0.00     0.000 HD
ATOM     85   S  SGN C   5     110.493  98.747 118.1850  0.00  0.00     0.000 S
ATOM     86   O  SGN C   5     109.635  98.766 119.3190  0.00  0.00     0.000 OA
ATOM     87   O  SGN C   5     109.889  98.510 116.9220  0.00  0.00     0.000 OA
ATOM     88   O  SGN C   5     111.710  97.864 118.4460  0.00  0.00     0.000 OA
ENDBRANCH 76 85
BRANCH 79 89
ATOM     89   C  SGN C   5     115.476 102.272 114.7070  0.00  0.00     0.000 C
ATOM     90   O  SGN C   5     116.555 101.458 115.2260  0.00  0.00     0.000 O
ATOM     91   S  SGN C   5     117.857 101.309 114.2980  0.00  0.00     0.000 S
ATOM     92   O  SGN C   5     117.389 100.877 113.0070  0.00  0.00     0.000 OA
ATOM     93   O  SGN C   5     118.492 102.601 114.2500  0.00  0.00     0.000 OA
ATOM     94   O  SGN C   5     118.640 100.318 114.9840  0.00  0.00     0.000 OA
ENDBRANCH 79 89
BRANCH 75 95
ATOM     95  O4  BDP C   6     112.336  99.763 114.9060  0.00  0.00     0.000 O
BRANCH 95 99
ATOM     96  C1  BDP C   6     111.942  96.884 111.7430  0.00  0.00     0.000 C
ATOM     97  C2  BDP C   6     112.091  96.389 113.1540  0.00  0.00     0.000 C
ATOM     98  C3  BDP C   6     111.841  97.458 114.2290  0.00  0.00     0.000 C
ATOM     99  C4  BDP C   6     112.608  98.736 113.9270  0.00  0.00     0.000 C
ATOM    100  C5  BDP C   6     112.324  99.128 112.4580  0.00  0.00     0.000 C
ATOM    101  O5  BDP C   6     112.809  98.002 111.7090  0.00  0.00     0.000 O
BRANCH 100 102
ATOM    102   C  BDP C   6     113.099 100.346 112.0210  0.00  0.00     0.000 C
ATOM    103   O  BDP C   6     112.559 101.448 111.8520  0.00  0.00     0.000 OA
ATOM    104   O  BDP C   6     114.315 100.201 111.8480  0.00  0.00     0.000 OA
ENDBRANCH 100 102
ENDBRANCH 95 99
ENDBRANCH 75 95
ENDBRANCH 74 78
ENDBRANCH 58 74
ENDBRANCH 57 61
ENDBRANCH 37 57
ENDBRANCH 36 40
ENDBRANCH 23 36
ENDBRANCH 22 26
ENDBRANCH 1 22
TORSDOF 20
ENDMDL
MODEL 47
REMARK VINA RESULT:      -0.3    134.543    138.698
ROOT
ATOM      1  C1  NGY C   1     111.292 103.311 106.7000  0.00  0.00     0.000 C
ATOM      2  C2  NGY C   1     109.847 103.763 106.8550  0.00  0.00     0.000 C
ATOM      3  C3  NGY C   1     109.133 103.720 105.5080  0.00  0.00     0.000 C
ATOM      4  C4  NGY C   1     109.935 104.543 104.5180  0.00  0.00     0.000 C
ATOM      5  C5  NGY C   1     111.330 103.937 104.3950  0.00  0.00     0.000 C
ATOM      6  O5  NGY C   1     111.978 104.021 105.6910  0.00  0.00     0.000 O
ATOM      7   O  NGY C   1     107.810 104.214 105.6640  0.00  0.00     0.000 O
ATOM      9  HD  NGY C   1     107.410 104.828 106.1260  0.00  0.00     0.000 HD
ATOM      9   O  NGY C   1     109.301 104.570 103.2470  0.00  0.00     0.000 O
ATOM     11  HD  NGY C   1     108.900 105.184 103.7080  0.00  0.00     0.000 HD
ENDROOT
BRANCH 2 13
ATOM     11   N  NGY C   1     109.048 104.259 107.9500  0.00  0.00     0.000 N
ATOM     13  HD  NGY C   1     108.811 103.502 108.2980  0.00  0.00     0.000 HD
ATOM     13   C  NGY C   1     108.444 103.434 108.8040  0.00  0.00     0.000 C
ATOM     14   O  NGY C   1     108.424 102.217 108.6080  0.00  0.00     0.000 OA
ATOM     15   C  NGY C   1     107.820 104.057 110.0150  0.00  0.00     0.000 C
ENDBRANCH 2 13
BRANCH 5 16
ATOM     16   C  NGY C   1     112.244 104.637 103.4400  0.00  0.00     0.000 C
ATOM     17   O  NGY C   1     112.905 103.488 100.0190  0.00  0.00     0.000 OA
ATOM     18   O  NGY C   1     112.433 103.806 102.2910  0.00  0.00     0.000 O
ATOM     19   S  NGY C   1     112.979 104.532 101.0100  0.00  0.00     0.000 S
ATOM     20   O  NGY C   1     114.335 104.926 101.2900  0.00  0.00     0.000 OA
ATOM     21   O  NGY C   1     112.077 105.655 100.8130  0.00  0.00     0.000 OA
ENDBRANCH 5 16
BRANCH 1 22
ATOM     22  O4  BDP C   2     111.311 101.976 106.5000  0.00  0.00     0.000 O
BRANCH 22 26
ATOM     23  C1  BDP C   2     113.080  98.286 106.9670  0.00  0.00     0.000 C
ATOM     24  C2  BDP C   2     112.876  99.074 108.2390  0.00  0.00     0.000 C
ATOM     25  C3  BDP C   2     111.913 100.204 107.9840  0.00  0.00     0.000 C
ATOM     26  C4  BDP C   2     112.379 101.037 106.7940  0.00  0.00     0.000 C
ATOM     27  C5  BDP C   2     112.723 100.123 105.6260  0.00  0.00     0.000 C
ATOM     28  O5  BDP C   2     113.722  99.128 105.9680  0.00  0.00     0.000 O
ATOM     29   O  BDP C   2     112.233  98.307 109.2570  0.00  0.00     0.000 O
ATOM     31  HD  BDP C   2     111.679  98.732 109.7700  0.00  0.00     0.000 HD
ATOM     31   O  BDP C   2     111.891 101.003 109.1610  0.00  0.00     0.000 O
ATOM     33  HD  BDP C   2     111.338 101.427 109.6740  0.00  0.00     0.000 HD
BRANCH 27 33
ATOM     33   C  BDP C   2     113.285 100.879 104.4460  0.00  0.00     0.000 C
ATOM     34   O  BDP C   2     112.864 100.700 103.2790  0.00  0.00     0.000 OA
ATOM     35   O  BDP C   2     114.200 101.662 104.6420  0.00  0.00     0.000 OA
ENDBRANCH 27 33
BRANCH 23 36
ATOM     36  O4  SGN C   3     113.825  97.163 107.0940  0.00  0.00     0.000 O
BRANCH 36 40
ATOM     37  C1  SGN C   3     114.421  93.264 105.7270  0.00  0.00     0.000 C
ATOM     38  C2  SGN C   3     115.037  94.410 104.9080  0.00  0.00     0.000 C
ATOM     39  C3  SGN C   3     115.111  95.680 105.7420  0.00  0.00     0.000 C
ATOM     40  C4  SGN C   3     113.725  96.013 106.2500  0.00  0.00     0.000 C
ATOM     41  C5  SGN C   3     113.189  94.827 107.0210  0.00  0.00     0.000 C
ATOM     42  O5  SGN C   3     113.135  93.676 106.1630  0.00  0.00     0.000 O
ATOM     43   O  SGN C   3     115.629  96.736 104.9430  0.00  0.00     0.000 O
ATOM     45  HD  SGN C   3     115.118  97.059 105.5640  0.00  0.00     0.000 HD
BRANCH 38 47
ATOM     45   N  SGN C   3     114.997  93.302 103.9370  0.00  0.00     0.000 N
ATOM     47  HD  SGN C   3     114.566  93.850 104.4500  0.00  0.00     0.000 HD
ATOM     47   S  SGN C   3     116.386  93.116 103.1860  0.00  0.00     0.000 S
ATOM     48   O  SGN C   3     116.680  94.231 102.3560  0.00  0.00     0.000 OA
ATOM     49   O  SGN C   3     117.350  92.790 104.1860  0.00  0.00     0.000 OA
ATOM     50   O  SGN C   3     116.105  91.975 102.3170  0.00  0.00     0.000 OA
ENDBRANCH 38 47
BRANCH 41 51
ATOM     51   C  SGN C   3     111.810  95.032 107.5860  0.00  0.00     0.000 C
ATOM     52   O  SGN C   3     110.854  95.229 111.1810  0.00  0.00     0.000 OA
ATOM     53   O  SGN C   3     109.922  96.366 109.2920  0.00  0.00     0.000 OA
ATOM     54   O  SGN C   3     109.757  93.978 109.4770  0.00  0.00     0.000 OA
ATOM     55   O  SGN C   3     111.899  95.095 108.9920  0.00  0.00     0.000 O
ATOM     56   S  SGN C   3     110.474  95.173 109.8110  0.00  0.00     0.000 S
ENDBRANCH 41 51
BRANCH 37 57
ATOM     57  O4  IDS C   4     115.140  92.896 106.8150  0.00  0.00     0.000 O
BRANCH 57 61
ATOM     58  C1  IDS C   4     117.158  90.472 108.9430  0.00  0.00     0.000 C
ATOM     59  C2  IDS C   4     117.566  90.691 107.5200  0.00  0.00     0.000 C
ATOM     60  C3  IDS C   4     116.370  90.798 106.5710  0.00  0.00     0.000 C
ATOM     61  C4  IDS C   4     115.127  91.488 107.1160  0.00  0.00     0.000 C
ATOM     62  C5  IDS C   4     114.992  91.251 108.6250  0.00  0.00     0.000 C
ATOM     63  O5  IDS C   4     116.219  91.471 109.3050  0.00  0.00     0.000 O
ATOM     64   O  IDS C   4     116.032  89.462 106.2460  0.00  0.00     0.000 O
ATOM     66  HD  IDS C   4     115.259  89.256 106.5760  0.00  0.00     0.000 HD
BRANCH 59 66
ATOM     66   O  IDS C   4     118.337  91.939 107.3630  0.00  0.00     0.000 O
ATOM     67   S  IDS C   4     119.879  91.781 107.0030  0.00  0.00     0.000 S
ATOM     68   O  IDS C   4     119.850  91.176 105.6930  0.00  0.00     0.000 OA
ATOM     69   O  IDS C   4     120.412  93.128 107.0430  0.00  0.00     0.000 OA
ATOM     70   O  IDS C   4     120.463  90.888 107.9930  0.00  0.00     0.000 OA
ENDBRANCH 59 66
BRANCH 62 71
ATOM     71   C  IDS C   4     113.987  92.176 109.2840  0.00  0.00     0.000 C
ATOM     72   O  IDS C   4     114.368  93.059 110.0290  0.00  0.00     0.000 OA
ATOM     73   O  IDS C   4     112.772  91.942 109.1270  0.00  0.00     0.000 OA
ENDBRANCH 62 71
BRANCH 58 74
ATOM     74  O4  SGN C   5     116.911  89.173 109.2770  0.00  0.00     0.000 O
BRANCH 74 78
ATOM     75  C1  SGN C   5     117.310  86.187 112.1690  0.00  0.00     0.000 C
ATOM     76  C2  SGN C   5     116.225  87.247 112.4380  0.00  0.00     0.000 C
ATOM     77  C3  SGN C   5     115.944  88.069 111.1720  0.00  0.00     0.000 C
ATOM     78  C4  SGN C   5     117.232  88.556 110.5230  0.00  0.00     0.000 C
ATOM     79  C5  SGN C   5     118.171  87.378 110.3110  0.00  0.00     0.000 C
ATOM     80  O5  SGN C   5     118.474  86.762 111.5900  0.00  0.00     0.000 O
ATOM     81   O  SGN C   5     115.108  89.170 111.5130  0.00  0.00     0.000 O
ATOM     83  HD  SGN C   5     114.478  89.097 112.1030  0.00  0.00     0.000 HD
BRANCH 76 85
ATOM     83   N  SGN C   5     115.932  86.518 113.6780  0.00  0.00     0.000 N
ATOM     85  HD  SGN C   5     115.470  85.953 114.1440  0.00  0.00     0.000 HD
ATOM     85   S  SGN C   5     114.509  86.181 114.3540  0.00  0.00     0.000 S
ATOM     86   O  SGN C   5     114.691  85.410 115.5350  0.00  0.00     0.000 OA
ATOM     87   O  SGN C   5     113.807  87.407 114.4850  0.00  0.00     0.000 OA
ATOM     88   O  SGN C   5     113.987  85.307 113.2160  0.00  0.00     0.000 OA
ENDBRANCH 76 85
BRANCH 79 89
ATOM     89   C  SGN C   5     119.478  87.759 109.6450  0.00  0.00     0.000 C
ATOM     90   O  SGN C   5     120.580  87.101 110.3160  0.00  0.00     0.000 O
ATOM     91   S  SGN C   5     121.850  86.720 109.4120  0.00  0.00     0.000 S
ATOM     92   O  SGN C   5     121.342  85.975 108.2900  0.00  0.00     0.000 OA
ATOM     93   O  SGN C   5     122.473  87.957 109.0150  0.00  0.00     0.000 OA
ATOM     94   O  SGN C   5     122.664  85.934 110.3000  0.00  0.00     0.000 OA
ENDBRANCH 79 89
BRANCH 75 95
ATOM     95  O4  BDP C   6     116.753  85.299 111.2930  0.00  0.00     0.000 O
BRANCH 95 99
ATOM     96  C1  BDP C   6     117.460  81.076 110.9460  0.00  0.00     0.000 C
ATOM     97  C2  BDP C   6     117.746  81.750 112.2580  0.00  0.00     0.000 C
ATOM     98  C3  BDP C   6     117.114  83.143 112.4060  0.00  0.00     0.000 C
ATOM     99  C4  BDP C   6     117.388  84.006 111.1830  0.00  0.00     0.000 C
ATOM    100  C5  BDP C   6     117.012  83.187 109.9260  0.00  0.00     0.000 C
ATOM    101  O5  BDP C   6     117.877  82.043 109.9990  0.00  0.00     0.000 O
BRANCH 100 102
ATOM    102   C  BDP C   6     117.316  83.919 108.6440  0.00  0.00     0.000 C
ATOM    103   O  BDP C   6     116.556  83.883 107.6650  0.00  0.00     0.000 OA
ATOM    104   O  BDP C   6     118.363  84.575 108.6100  0.00  0.00     0.000 OA
ENDBRANCH 100 102
ENDBRANCH 95 99
ENDBRANCH 75 95
ENDBRANCH 74 78
ENDBRANCH 58 74
ENDBRANCH 57 61
ENDBRANCH 37 57
ENDBRANCH 36 40
ENDBRANCH 23 36
ENDBRANCH 22 26
ENDBRANCH 1 22
TORSDOF 20
ENDMDL
MODEL 48
REMARK VINA RESULT:      -0.3     95.920    103.613
ROOT
ATOM      1  C1  NGY C   1      57.720  87.764 112.9330  0.00  0.00     0.000 C
ATOM      2  C2  NGY C   1      57.908  88.167 114.3890  0.00  0.00     0.000 C
ATOM      3  C3  NGY C   1      56.672  87.797 115.2030  0.00  0.00     0.000 C
ATOM      4  C4  NGY C   1      55.460  88.423 114.5390  0.00  0.00     0.000 C
ATOM      5  C5  NGY C   1      55.341  87.875 113.1200  0.00  0.00     0.000 C
ATOM      6  O5  NGY C   1      56.525  88.270 112.3790  0.00  0.00     0.000 O
ATOM      7   O  NGY C   1      56.841  88.248 116.5390  0.00  0.00     0.000 O
ATOM      9  HD  NGY C   1      57.196  88.927 116.9430  0.00  0.00     0.000 HD
ATOM      9   O  NGY C   1      54.277  88.142 115.2730  0.00  0.00     0.000 O
ATOM     11  HD  NGY C   1      54.632  88.821 115.6760  0.00  0.00     0.000 HD
ENDROOT
BRANCH 2 13
ATOM     11   N  NGY C   1      59.219  87.642 114.6870  0.00  0.00     0.000 N
ATOM     13  HD  NGY C   1      59.453  88.205 115.3020  0.00  0.00     0.000 HD
ATOM     13   C  NGY C   1      60.003  88.201 115.6080  0.00  0.00     0.000 C
ATOM     14   O  NGY C   1      59.698  89.271 116.1380  0.00  0.00     0.000 OA
ATOM     15   C  NGY C   1      61.246  87.452 115.9790  0.00  0.00     0.000 C
ENDBRANCH 2 13
BRANCH 5 16
ATOM     16   C  NGY C   1      54.180  88.394 112.3340  0.00  0.00     0.000 C
ATOM     17   O  NGY C   1      51.051  86.545 111.8360  0.00  0.00     0.000 OA
ATOM     18   O  NGY C   1      53.230  87.338 112.1660  0.00  0.00     0.000 O
ATOM     19   S  NGY C   1      51.777  87.788 111.7710  0.00  0.00     0.000 S
ATOM     20   O  NGY C   1      51.844  88.314 110.4330  0.00  0.00     0.000 OA
ATOM     21   O  NGY C   1      51.418  88.782 112.7690  0.00  0.00     0.000 OA
ENDBRANCH 5 16
BRANCH 1 22
ATOM     22  O4  BDP C   2      57.807  86.420 112.8400  0.00  0.00     0.000 O
BRANCH 22 26
ATOM     23  C1  BDP C   2      58.886  83.015 110.7890  0.00  0.00     0.000 C
ATOM     24  C2  BDP C   2      59.966  84.063 110.9220  0.00  0.00     0.000 C
ATOM     25  C3  BDP C   2      59.573  85.061 111.9790  0.00  0.00     0.000 C
ATOM     26  C4  BDP C   2      58.185  85.621 111.6880  0.00  0.00     0.000 C
ATOM     27  C5  BDP C   2      57.218  84.480 111.3970  0.00  0.00     0.000 C
ATOM     28  O5  BDP C   2      57.661  83.635 110.3040  0.00  0.00     0.000 O
ATOM     29   O  BDP C   2      61.193  83.520 111.4110  0.00  0.00     0.000 O
ATOM     31  HD  BDP C   2      61.656  84.026 111.9390  0.00  0.00     0.000 HD
ATOM     31   O  BDP C   2      60.539  86.105 111.9410  0.00  0.00     0.000 O
ATOM     33  HD  BDP C   2      61.002  86.610 112.4690  0.00  0.00     0.000 HD
BRANCH 27 33
ATOM     33   C  BDP C   2      55.846  84.972 111.0040  0.00  0.00     0.000 C
ATOM     34   O  BDP C   2      55.682  85.880 110.1540  0.00  0.00     0.000 OA
ATOM     35   O  BDP C   2      54.874  84.489 111.5620  0.00  0.00     0.000 OA
ENDBRANCH 27 33
BRANCH 23 36
ATOM     36  O4  SGN C   3      59.177  81.984 109.9610  0.00  0.00     0.000 O
BRANCH 36 40
ATOM     37  C1  SGN C   3      58.904  77.858 109.3880  0.00  0.00     0.000 C
ATOM     38  C2  SGN C   3      57.682  78.713 109.0160  0.00  0.00     0.000 C
ATOM     39  C3  SGN C   3      58.080  80.174 108.8650  0.00  0.00     0.000 C
ATOM     40  C4  SGN C   3      58.740  80.635 110.1470  0.00  0.00     0.000 C
ATOM     41  C5  SGN C   3      59.913  79.728 110.4460  0.00  0.00     0.000 C
ATOM     42  O5  SGN C   3      59.454  78.374 110.5900  0.00  0.00     0.000 O
ATOM     43   O  SGN C   3      56.922  80.949 108.5810  0.00  0.00     0.000 O
ATOM     45  HD  SGN C   3      57.513  81.438 108.9830  0.00  0.00     0.000 HD
BRANCH 38 47
ATOM     45   N  SGN C   3      57.153  77.343 109.1370  0.00  0.00     0.000 N
ATOM     47  HD  SGN C   3      57.560  78.013 109.5060  0.00  0.00     0.000 HD
ATOM     47   S  SGN C   3      56.172  76.975 107.9420  0.00  0.00     0.000 S
ATOM     48   O  SGN C   3      54.987  77.757 107.9840  0.00  0.00     0.000 OA
ATOM     49   O  SGN C   3      56.943  77.044 106.7440  0.00  0.00     0.000 OA
ATOM     50   O  SGN C   3      55.808  75.597 108.2690  0.00  0.00     0.000 OA
ENDBRANCH 38 47
BRANCH 41 51
ATOM     51   C  SGN C   3      60.662  80.084 111.7010  0.00  0.00     0.000 C
ATOM     52   O  SGN C   3      59.216  80.907 115.0350  0.00  0.00     0.000 OA
ATOM     53   O  SGN C   3      61.256  79.777 114.4960  0.00  0.00     0.000 OA
ATOM     54   O  SGN C   3      60.948  82.082 113.8990  0.00  0.00     0.000 OA
ATOM     55   O  SGN C   3      59.735  80.272 112.7480  0.00  0.00     0.000 O
ATOM     56   S  SGN C   3      60.347  80.811 114.1770  0.00  0.00     0.000 S
ENDBRANCH 41 51
BRANCH 37 57
ATOM     57  O4  IDS C   4      59.883  77.833 108.4500  0.00  0.00     0.000 O
BRANCH 57 61
ATOM     58  C1  IDS C   4      61.873  75.086 106.7290  0.00  0.00     0.000 C
ATOM     59  C2  IDS C   4      60.698  74.701 107.5710  0.00  0.00     0.000 C
ATOM     60  C3  IDS C   4      60.594  75.529 108.8550  0.00  0.00     0.000 C
ATOM     61  C4  IDS C   4      61.011  76.990 108.7580  0.00  0.00     0.000 C
ATOM     62  C5  IDS C   4      62.128  77.170 107.7230  0.00  0.00     0.000 C
ATOM     63  O5  IDS C   4      61.839  76.486 106.5120  0.00  0.00     0.000 O
ATOM     64   O  IDS C   4      61.444  74.884 109.7840  0.00  0.00     0.000 O
ATOM     66  HD  IDS C   4      62.123  75.387 109.9740  0.00  0.00     0.000 HD
BRANCH 59 66
ATOM     66   O  IDS C   4      59.427  74.890 106.8470  0.00  0.00     0.000 O
ATOM     67   S  IDS C   4      58.576  73.579 106.5510  0.00  0.00     0.000 S
ATOM     68   O  IDS C   4      58.206  73.122 107.8690  0.00  0.00     0.000 OA
ATOM     69   O  IDS C   4      57.471  74.029 105.7280  0.00  0.00     0.000 OA
ATOM     70   O  IDS C   4      59.459  72.634 105.8840  0.00  0.00     0.000 OA
ENDBRANCH 59 66
BRANCH 62 71
ATOM     71   C  IDS C   4      62.348  78.619 107.3320  0.00  0.00     0.000 C
ATOM     72   O  IDS C   4      62.711  79.427 108.1640  0.00  0.00     0.000 OA
ATOM     73   O  IDS C   4      62.050  78.973 106.1740  0.00  0.00     0.000 OA
ENDBRANCH 62 71
BRANCH 58 74
ATOM     74  O4  SGN C   5      63.051  74.495 107.0800  0.00  0.00     0.000 O
BRANCH 74 78
ATOM     75  C1  SGN C   5      66.626  72.791 105.7550  0.00  0.00     0.000 C
ATOM     76  C2  SGN C   5      66.484  74.311 105.5470  0.00  0.00     0.000 C
ATOM     77  C3  SGN C   5      65.310  74.863 106.3660  0.00  0.00     0.000 C
ATOM     78  C4  SGN C   5      64.052  74.025 106.1780  0.00  0.00     0.000 C
ATOM     79  C5  SGN C   5      64.372  72.562 106.4470  0.00  0.00     0.000 C
ATOM     80  O5  SGN C   5      65.399  72.113 105.5230  0.00  0.00     0.000 O
ATOM     81   O  SGN C   5      65.073  76.213 105.9820  0.00  0.00     0.000 O
ATOM     83  HD  SGN C   5      65.723  76.750 105.7840  0.00  0.00     0.000 HD
BRANCH 76 85
ATOM     83   N  SGN C   5      67.890  74.187 105.1440  0.00  0.00     0.000 N
ATOM     85  HD  SGN C   5      68.734  74.360 105.2400  0.00  0.00     0.000 HD
ATOM     85   S  SGN C   5      69.045  75.310 105.1040  0.00  0.00     0.000 S
ATOM     86   O  SGN C   5      70.279  74.738 104.6900  0.00  0.00     0.000 OA
ATOM     87   O  SGN C   5      68.547  76.396 104.3380  0.00  0.00     0.000 OA
ATOM     88   O  SGN C   5      69.058  75.588 106.6050  0.00  0.00     0.000 OA
ENDBRANCH 76 85
BRANCH 79 89
ATOM     89   C  SGN C   5      63.172  71.647 106.3080  0.00  0.00     0.000 C
ATOM     90   O  SGN C   5      63.014  71.254 104.9220  0.00  0.00     0.000 O
ATOM     91   S  SGN C   5      62.391  69.799 104.6520  0.00  0.00     0.000 S
ATOM     92   O  SGN C   5      63.178  68.871 105.4200  0.00  0.00     0.000 OA
ATOM     93   O  SGN C   5      61.016  69.842 105.0810  0.00  0.00     0.000 OA
ATOM     94   O  SGN C   5      62.537  69.636 103.2320  0.00  0.00     0.000 OA
ENDBRANCH 79 89
BRANCH 75 95
ATOM     95  O4  BDP C   6      67.003  72.628 107.0580  0.00  0.00     0.000 O
BRANCH 95 99
ATOM     96  C1  BDP C   6      69.140  69.521 109.1140  0.00  0.00     0.000 C
ATOM     97  C2  BDP C   6      69.783  70.172 107.9220  0.00  0.00     0.000 C
ATOM     98  C3  BDP C   6      69.135  71.499 107.4980  0.00  0.00     0.000 C
ATOM     99  C4  BDP C   6      67.622  71.370 107.4040  0.00  0.00     0.000 C
ATOM    100  C5  BDP C   6      67.115  70.720 108.7120  0.00  0.00     0.000 C
ATOM    101  O5  BDP C   6      67.778  69.445 108.7330  0.00  0.00     0.000 O
BRANCH 100 102
ATOM    102   C  BDP C   6      65.629  70.470 108.7000  0.00  0.00     0.000 C
ATOM    103   O  BDP C   6      65.110  69.596 107.9900  0.00  0.00     0.000 OA
ATOM    104   O  BDP C   6      64.937  71.173 109.4460  0.00  0.00     0.000 OA
ENDBRANCH 100 102
ENDBRANCH 95 99
ENDBRANCH 75 95
ENDBRANCH 74 78
ENDBRANCH 58 74
ENDBRANCH 57 61
ENDBRANCH 37 57
ENDBRANCH 36 40
ENDBRANCH 23 36
ENDBRANCH 22 26
ENDBRANCH 1 22
TORSDOF 20
ENDMDL
MODEL 49
REMARK VINA RESULT:      -0.3    119.858    126.200
ROOT
ATOM      1  C1  NGY C   1      94.983 101.390 111.9100  0.00  0.00     0.000 C
ATOM      2  C2  NGY C   1      94.328 102.756 111.7540  0.00  0.00     0.000 C
ATOM      3  C3  NGY C   1      95.357 103.786 111.3000  0.00  0.00     0.000 C
ATOM      4  C4  NGY C   1      96.516 103.765 112.2780  0.00  0.00     0.000 C
ATOM      5  C5  NGY C   1      97.131 102.368 112.2770  0.00  0.00     0.000 C
ATOM      6  O5  NGY C   1      96.126 101.428 112.7380  0.00  0.00     0.000 O
ATOM      7   O  NGY C   1      94.739 105.064 111.2320  0.00  0.00     0.000 O
ATOM      9  HD  NGY C   1      94.140 105.506 111.6730  0.00  0.00     0.000 HD
ATOM      9   O  NGY C   1      97.496 104.731 111.9270  0.00  0.00     0.000 O
ATOM     11  HD  NGY C   1      96.896 105.173 112.3680  0.00  0.00     0.000 HD
ENDROOT
BRANCH 2 13
ATOM     11   N  NGY C   1      93.146 102.441 110.9860  0.00  0.00     0.000 N
ATOM     13  HD  NGY C   1      92.634 103.084 111.2590  0.00  0.00     0.000 HD
ATOM     13   C  NGY C   1      92.040 103.178 111.0740  0.00  0.00     0.000 C
ATOM     14   O  NGY C   1      91.934 104.069 111.9190  0.00  0.00     0.000 OA
ATOM     15   C  NGY C   1      90.956 102.885 110.0830  0.00  0.00     0.000 C
ENDBRANCH 2 13
BRANCH 5 16
ATOM     16   C  NGY C   1      98.301 102.189 113.1920  0.00  0.00     0.000 C
ATOM     17   O  NGY C   1      98.024 101.096 116.6830  0.00  0.00     0.000 OA
ATOM     18   O  NGY C   1      97.817 101.970 114.5200  0.00  0.00     0.000 O
ATOM     19   S  NGY C   1      98.843 101.327 115.5200  0.00  0.00     0.000 S
ATOM     20   O  NGY C   1      99.873 102.304 115.7600  0.00  0.00     0.000 OA
ATOM     21   O  NGY C   1      99.321 100.135 114.8380  0.00  0.00     0.000 OA
ENDBRANCH 5 16
BRANCH 1 22
ATOM     22  O4  BDP C   2      95.245 100.892 110.6840  0.00  0.00     0.000 O
BRANCH 22 26
ATOM     23  C1  BDP C   2      95.643  97.730 108.0740  0.00  0.00     0.000 C
ATOM     24  C2  BDP C   2      94.285  97.873 108.7190  0.00  0.00     0.000 C
ATOM     25  C3  BDP C   2      94.163  99.239 109.3420  0.00  0.00     0.000 C
ATOM     26  C4  BDP C   2      95.337  99.500 110.2800  0.00  0.00     0.000 C
ATOM     27  C5  BDP C   2      96.644  99.156 109.5780  0.00  0.00     0.000 C
ATOM     28  O5  BDP C   2      96.679  97.788 109.0950  0.00  0.00     0.000 O
ATOM     29   O  BDP C   2      93.223  97.841 107.7660  0.00  0.00     0.000 O
ATOM     31  HD  BDP C   2      92.543  98.352 107.9270  0.00  0.00     0.000 HD
ATOM     31   O  BDP C   2      92.942  99.253 110.0720  0.00  0.00     0.000 O
ATOM     33  HD  BDP C   2      92.261  99.763 110.2330  0.00  0.00     0.000 HD
BRANCH 27 33
ATOM     33   C  BDP C   2      97.842  99.300 110.4870  0.00  0.00     0.000 C
ATOM     34   O  BDP C   2      98.867  99.935 110.1420  0.00  0.00     0.000 OA
ATOM     35   O  BDP C   2      97.815  98.748 111.5750  0.00  0.00     0.000 OA
ENDBRANCH 27 33
BRANCH 23 36
ATOM     36  O4  SGN C   3      95.832  96.593 107.3650  0.00  0.00     0.000 O
BRANCH 36 40
ATOM     37  C1  SGN C   3      97.418  94.958 103.8660  0.00  0.00     0.000 C
ATOM     38  C2  SGN C   3      98.367  95.148 105.0600  0.00  0.00     0.000 C
ATOM     39  C3  SGN C   3      97.575  95.326 106.3470  0.00  0.00     0.000 C
ATOM     40  C4  SGN C   3      96.622  96.489 106.1770  0.00  0.00     0.000 C
ATOM     41  C5  SGN C   3      95.745  96.229 104.9720  0.00  0.00     0.000 C
ATOM     42  O5  SGN C   3      96.563  96.089 103.7990  0.00  0.00     0.000 O
ATOM     43   O  SGN C   3      98.475  95.558 107.4230  0.00  0.00     0.000 O
ATOM     45  HD  SGN C   3      97.711  95.928 107.5930  0.00  0.00     0.000 HD
BRANCH 38 47
ATOM     45   N  SGN C   3      99.135  93.890 105.0440  0.00  0.00     0.000 N
ATOM     47  HD  SGN C   3      98.390  94.298 105.2100  0.00  0.00     0.000 HD
ATOM     47   S  SGN C   3     100.475  94.020 104.1980  0.00  0.00     0.000 S
ATOM     48   O  SGN C   3     100.200  94.220 102.8200  0.00  0.00     0.000 OA
ATOM     49   O  SGN C   3     101.271  95.013 104.8430  0.00  0.00     0.000 OA
ATOM     50   O  SGN C   3     101.052  92.685 104.3500  0.00  0.00     0.000 OA
ENDBRANCH 38 47
BRANCH 41 51
ATOM     51   C  SGN C   3      94.743  97.316 104.6940  0.00  0.00     0.000 C
ATOM     52   O  SGN C   3      95.383 100.981 104.5100  0.00  0.00     0.000 OA
ATOM     53   O  SGN C   3      93.825  99.643 103.2810  0.00  0.00     0.000 OA
ATOM     54   O  SGN C   3      93.600  99.898 105.6580  0.00  0.00     0.000 OA
ATOM     55   O  SGN C   3      95.413  98.557 104.6640  0.00  0.00     0.000 O
ATOM     56   S  SGN C   3      94.465  99.894 104.5150  0.00  0.00     0.000 S
ENDBRANCH 41 51
BRANCH 37 57
ATOM     57  O4  IDS C   4      96.645  93.846 103.9290  0.00  0.00     0.000 O
BRANCH 57 61
ATOM     58  C1  IDS C   4      95.983  90.463 102.3200  0.00  0.00     0.000 C
ATOM     59  C2  IDS C   4      97.335  91.082 102.1600  0.00  0.00     0.000 C
ATOM     60  C3  IDS C   4      97.270  92.593 101.9250  0.00  0.00     0.000 C
ATOM     61  C4  IDS C   4      96.174  93.350 102.6610  0.00  0.00     0.000 C
ATOM     62  C5  IDS C   4      94.933  92.468 102.8450  0.00  0.00     0.000 C
ATOM     63  O5  IDS C   4      95.273  91.174 103.3200  0.00  0.00     0.000 O
ATOM     64   O  IDS C   4      97.060  92.745 100.5340  0.00  0.00     0.000 O
ATOM     66  HD  IDS C   4      96.275  93.077 100.3800  0.00  0.00     0.000 HD
BRANCH 59 66
ATOM     66   O  IDS C   4      98.169  90.881 103.3600  0.00  0.00     0.000 O
ATOM     67   S  IDS C   4      99.229  89.695 103.2990  0.00  0.00     0.000 S
ATOM     68   O  IDS C   4     100.139  90.121 102.2630  0.00  0.00     0.000 OA
ATOM     69   O  IDS C   4      99.802  89.638 104.6290  0.00  0.00     0.000 OA
ATOM     70   O  IDS C   4      98.506  88.492 102.9180  0.00  0.00     0.000 OA
ENDBRANCH 59 66
BRANCH 62 71
ATOM     71   C  IDS C   4      93.949  93.029 103.8530  0.00  0.00     0.000 C
ATOM     72   O  IDS C   4      93.710  92.419 104.8770  0.00  0.00     0.000 OA
ATOM     73   O  IDS C   4      93.321  94.065 103.5570  0.00  0.00     0.000 OA
ENDBRANCH 62 71
BRANCH 58 74
ATOM     74  O4  SGN C   5      95.353  90.147 101.1530  0.00  0.00     0.000 O
BRANCH 74 78
ATOM     75  C1  SGN C   5      93.054  87.343  99.0820  0.00  0.00     0.000 C
ATOM     76  C2  SGN C   5      92.336  88.100 100.2160  0.00  0.00     0.000 C
ATOM     77  C3  SGN C   5      93.159  89.317 100.6600  0.00  0.00     0.000 C
ATOM     78  C4  SGN C   5      94.618  88.951 100.8970  0.00  0.00     0.000 C
ATOM     79  C5  SGN C   5      95.167  88.237  99.6710  0.00  0.00     0.000 C
ATOM     80  O5  SGN C   5      94.397  87.030  99.4270  0.00  0.00     0.000 O
ATOM     81   O  SGN C   5      92.580  89.857 101.8440  0.00  0.00     0.000 O
ATOM     83  HD  SGN C   5      91.723  89.876 101.9630  0.00  0.00     0.000 HD
BRANCH 76 85
ATOM     83   N  SGN C   5      91.096  88.279  99.4510  0.00  0.00     0.000 N
ATOM     85  HD  SGN C   5      90.248  88.447  99.3930  0.00  0.00     0.000 HD
ATOM     85   S  SGN C   5      89.602  87.785  99.7950  0.00  0.00     0.000 S
ATOM     86   O  SGN C   5      88.692  88.218  98.7920  0.00  0.00     0.000 OA
ATOM     87   O  SGN C   5      89.670  86.389 100.0460  0.00  0.00     0.000 OA
ATOM     88   O  SGN C   5      89.440  88.617 101.0640  0.00  0.00     0.000 OA
ENDBRANCH 76 85
BRANCH 79 89
ATOM     89   C  SGN C   5      96.627  87.852  99.8010  0.00  0.00     0.000 C
ATOM     90   O  SGN C   5      96.735  86.532 100.3890  0.00  0.00     0.000 O
ATOM     91   S  SGN C   5      97.990  85.641  99.9350  0.00  0.00     0.000 S
ATOM     92   O  SGN C   5      97.975  85.622  98.4950  0.00  0.00     0.000 OA
ATOM     93   O  SGN C   5      99.172  86.272 100.4640  0.00  0.00     0.000 OA
ATOM     94   O  SGN C   5      97.717  84.360 100.5270  0.00  0.00     0.000 OA
ENDBRANCH 79 89
BRANCH 75 95
ATOM     95  O4  BDP C   6      93.040  88.185  98.0060  0.00  0.00     0.000 O
BRANCH 95 99
ATOM     96  C1  BDP C   6      92.858  87.388  93.7900  0.00  0.00     0.000 C
ATOM     97  C2  BDP C   6      92.028  86.548  94.7190  0.00  0.00     0.000 C
ATOM     98  C3  BDP C   6      91.860  87.138  96.1270  0.00  0.00     0.000 C
ATOM     99  C4  BDP C   6      93.197  87.580  96.7040  0.00  0.00     0.000 C
ATOM    100  C5  BDP C   6      93.907  88.459  95.6470  0.00  0.00     0.000 C
ATOM    101  O5  BDP C   6      94.054  87.578  94.5220  0.00  0.00     0.000 O
BRANCH 100 102
ATOM    102   C  BDP C   6      95.284  88.893  96.0810  0.00  0.00     0.000 C
ATOM    103   O  BDP C   6      95.577  90.084  96.2610  0.00  0.00     0.000 OA
ATOM    104   O  BDP C   6      96.119  88.000  96.2660  0.00  0.00     0.000 OA
ENDBRANCH 100 102
ENDBRANCH 95 99
ENDBRANCH 75 95
ENDBRANCH 74 78
ENDBRANCH 58 74
ENDBRANCH 57 61
ENDBRANCH 37 57
ENDBRANCH 36 40
ENDBRANCH 23 36
ENDBRANCH 22 26
ENDBRANCH 1 22
TORSDOF 20
ENDMDL
MODEL 50
REMARK VINA RESULT:      -0.2    106.568    116.420
ROOT
ATOM      1  C1  NGY C   1      34.862  87.392 116.1020  0.00  0.00     0.000 C
ATOM      2  C2  NGY C   1      34.924  86.495 114.8740  0.00  0.00     0.000 C
ATOM      3  C3  NGY C   1      33.560  86.432 114.1960  0.00  0.00     0.000 C
ATOM      4  C4  NGY C   1      32.535  85.998 115.2270  0.00  0.00     0.000 C
ATOM      5  C5  NGY C   1      32.516  87.022 116.3590  0.00  0.00     0.000 C
ATOM      6  O5  NGY C   1      33.824  87.030 116.9880  0.00  0.00     0.000 O
ATOM      7   O  NGY C   1      33.625  85.533 113.0980  0.00  0.00     0.000 O
ATOM      9  HD  NGY C   1      34.018  84.785 112.9100  0.00  0.00     0.000 HD
ATOM      9   O  NGY C   1      31.244  85.888 114.6460  0.00  0.00     0.000 O
ATOM     11  HD  NGY C   1      31.637  85.140 114.4580  0.00  0.00     0.000 HD
ENDROOT
BRANCH 2 13
ATOM     11   N  NGY C   1      36.102  86.981 114.1950  0.00  0.00     0.000 N
ATOM     13  HD  NGY C   1      36.337  86.249 113.7940  0.00  0.00     0.000 HD
ATOM     13   C  NGY C   1      36.840  86.185 113.4210  0.00  0.00     0.000 C
ATOM     14   O  NGY C   1      36.629  84.972 113.3710  0.00  0.00     0.000 OA
ATOM     15   C  NGY C   1      37.910  86.844 112.6060  0.00  0.00     0.000 C
ENDBRANCH 2 13
BRANCH 5 16
ATOM     16   C  NGY C   1      31.542  86.737 117.4570  0.00  0.00     0.000 C
ATOM     17   O  NGY C   1      31.953  84.045 119.9150  0.00  0.00     0.000 OA
ATOM     18   O  NGY C   1      31.901  85.501 118.0810  0.00  0.00     0.000 O
ATOM     19   S  NGY C   1      31.292  85.259 119.5090  0.00  0.00     0.000 S
ATOM     20   O  NGY C   1      29.873  85.080 119.3410  0.00  0.00     0.000 OA
ATOM     21   O  NGY C   1      31.641  86.451 120.2640  0.00  0.00     0.000 OA
ENDBRANCH 5 16
BRANCH 1 22
ATOM     22  O4  BDP C   2      34.774  88.677 115.6980  0.00  0.00     0.000 O
BRANCH 22 26
ATOM     23  C1  BDP C   2      35.556  92.689 116.2020  0.00  0.00     0.000 C
ATOM     24  C2  BDP C   2      36.771  91.795 116.1240  0.00  0.00     0.000 C
ATOM     25  C3  BDP C   2      36.373  90.448 115.5820  0.00  0.00     0.000 C
ATOM     26  C4  BDP C   2      35.218  89.871 116.3940  0.00  0.00     0.000 C
ATOM     27  C5  BDP C   2      34.126  90.921 116.5560  0.00  0.00     0.000 C
ATOM     28  O5  BDP C   2      34.610  92.145 117.1650  0.00  0.00     0.000 O
ATOM     29   O  BDP C   2      37.733  92.267 115.1810  0.00  0.00     0.000 O
ATOM     31  HD  BDP C   2      38.167  91.664 114.7360  0.00  0.00     0.000 HD
ATOM     31   O  BDP C   2      37.514  89.606 115.6900  0.00  0.00     0.000 O
ATOM     33  HD  BDP C   2      37.948  89.002 115.2450  0.00  0.00     0.000 HD
BRANCH 27 33
ATOM     33   C  BDP C   2      32.993  90.445 117.4340  0.00  0.00     0.000 C
ATOM     34   O  BDP C   2      33.194  89.957 118.5720  0.00  0.00     0.000 OA
ATOM     35   O  BDP C   2      31.855  90.511 117.0010  0.00  0.00     0.000 OA
ENDBRANCH 27 33
BRANCH 23 36
ATOM     36  O4  SGN C   3      35.802  93.973 116.5520  0.00  0.00     0.000 O
BRANCH 36 40
ATOM     37  C1  SGN C   3      34.738  97.962 115.9320  0.00  0.00     0.000 C
ATOM     38  C2  SGN C   3      33.902  97.147 116.9320  0.00  0.00     0.000 C
ATOM     39  C3  SGN C   3      34.658  95.900 117.3660  0.00  0.00     0.000 C
ATOM     40  C4  SGN C   3      35.027  95.100 116.1350  0.00  0.00     0.000 C
ATOM     41  C5  SGN C   3      35.824  95.983 115.2000  0.00  0.00     0.000 C
ATOM     42  O5  SGN C   3      35.040  97.126 114.8260  0.00  0.00     0.000 O
ATOM     43   O  SGN C   3      33.839  95.136 118.2420  0.00  0.00     0.000 O
ATOM     45  HD  SGN C   3      34.393  94.615 117.8290  0.00  0.00     0.000 HD
BRANCH 38 47
ATOM     45   N  SGN C   3      33.065  98.313 116.5990  0.00  0.00     0.000 N
ATOM     47  HD  SGN C   3      33.498  97.614 116.3290  0.00  0.00     0.000 HD
ATOM     47   S  SGN C   3      32.383  98.947 117.8880  0.00  0.00     0.000 S
ATOM     48   O  SGN C   3      31.439  98.056 118.4650  0.00  0.00     0.000 OA
ATOM     49   O  SGN C   3      33.442  99.393 118.7320  0.00  0.00     0.000 OA
ATOM     50   O  SGN C   3      31.644 100.068 117.3120  0.00  0.00     0.000 OA
ENDBRANCH 38 47
BRANCH 41 51
ATOM     51   C  SGN C   3      36.260  95.301 113.9320  0.00  0.00     0.000 C
ATOM     52   O  SGN C   3      39.750  94.763 112.7450  0.00  0.00     0.000 OA
ATOM     53   O  SGN C   3      37.816  93.379 112.4700  0.00  0.00     0.000 OA
ATOM     54   O  SGN C   3      37.909  95.554 111.4580  0.00  0.00     0.000 OA
ATOM     55   O  SGN C   3      37.669  95.268 113.8940  0.00  0.00     0.000 O
ATOM     56   S  SGN C   3      38.348  94.687 112.5110  0.00  0.00     0.000 S
ENDBRANCH 41 51
BRANCH 37 57
ATOM     57  O4  IDS C   4      35.904  98.444 116.4300  0.00  0.00     0.000 O
BRANCH 57 61
ATOM     58  C1  IDS C   4      37.622 101.837 116.5030  0.00  0.00     0.000 C
ATOM     59  C2  IDS C   4      36.197 101.763 116.0510  0.00  0.00     0.000 C
ATOM     60  C3  IDS C   4      35.918 100.541 115.1730  0.00  0.00     0.000 C
ATOM     61  C4  IDS C   4      36.668  99.264 115.5250  0.00  0.00     0.000 C
ATOM     62  C5  IDS C   4      38.047  99.587 116.1120  0.00  0.00     0.000 C
ATOM     63  O5  IDS C   4      37.974 100.602 117.1020  0.00  0.00     0.000 O
ATOM     64   O  IDS C   4      36.291 100.930 113.8640  0.00  0.00     0.000 O
ATOM     66  HD  IDS C   4      36.982 100.480 113.5990  0.00  0.00     0.000 HD
BRANCH 59 66
ATOM     66   O  IDS C   4      35.269 101.677 117.1950  0.00  0.00     0.000 O
ATOM     67   S  IDS C   4      34.233 102.873 117.3610  0.00  0.00     0.000 S
ATOM     68   O  IDS C   4      33.407 102.757 116.1830  0.00  0.00     0.000 OA
ATOM     69   O  IDS C   4      33.552 102.606 118.6130  0.00  0.00     0.000 OA
ATOM     70   O  IDS C   4      34.999 104.109 117.3600  0.00  0.00     0.000 OA
ENDBRANCH 59 66
BRANCH 62 71
ATOM     71   C  IDS C   4      38.698  98.398 116.7920  0.00  0.00     0.000 C
ATOM     72   O  IDS C   4      38.962  98.442 117.9780  0.00  0.00     0.000 OA
ATOM     73   O  IDS C   4      39.047  97.429 116.0880  0.00  0.00     0.000 OA
ENDBRANCH 62 71
BRANCH 58 74
ATOM     74  O4  SGN C   5      38.478 102.414 115.6120  0.00  0.00     0.000 O
BRANCH 74 78
ATOM     75  C1  SGN C   5      41.761 104.938 115.0730  0.00  0.00     0.000 C
ATOM     76  C2  SGN C   5      42.073 103.529 115.6110  0.00  0.00     0.000 C
ATOM     77  C3  SGN C   5      40.862 102.603 115.4410  0.00  0.00     0.000 C
ATOM     78  C4  SGN C   5      39.581 103.258 115.9410  0.00  0.00     0.000 C
ATOM     79  C5  SGN C   5      39.423 104.623 115.2890  0.00  0.00     0.000 C
ATOM     80  O5  SGN C   5      40.561 105.459 115.6300  0.00  0.00     0.000 O
ATOM     81   O  SGN C   5      41.108 101.388 116.1420  0.00  0.00     0.000 O
ATOM     83  HD  SGN C   5      41.897 101.031 116.1700  0.00  0.00     0.000 HD
BRANCH 76 85
ATOM     83   N  SGN C   5      43.416 103.927 115.1680  0.00  0.00     0.000 N
ATOM     85  HD  SGN C   5      44.173 103.769 114.7800  0.00  0.00     0.000 HD
ATOM     85   S  SGN C   5      44.792 103.092 115.2000  0.00  0.00     0.000 S
ATOM     86   O  SGN C   5      45.848 103.852 114.6260  0.00  0.00     0.000 OA
ATOM     87   O  SGN C   5      44.975 102.635 116.5310  0.00  0.00     0.000 OA
ATOM     88   O  SGN C   5      44.341 101.991 114.2430  0.00  0.00     0.000 OA
ENDBRANCH 76 85
BRANCH 79 89
ATOM     89   C  SGN C   5      38.159 105.348 115.7060  0.00  0.00     0.000 C
ATOM     90   O  SGN C   5      38.484 106.695 116.1310  0.00  0.00     0.000 O
ATOM     91   S  SGN C   5      37.369 107.820 115.8720  0.00  0.00     0.000 S
ATOM     92   O  SGN C   5      37.019 107.733 114.4790  0.00  0.00     0.000 OA
ATOM     93   O  SGN C   5      36.258 107.523 116.7390  0.00  0.00     0.000 OA
ATOM     94   O  SGN C   5      38.047 109.041 116.2170  0.00  0.00     0.000 OA
ENDBRANCH 79 89
BRANCH 75 95
ATOM     95  O4  BDP C   6      41.616 104.797 113.7220  0.00  0.00     0.000 O
BRANCH 95 99
ATOM     96  C1  BDP C   6      42.157 107.704 110.6070  0.00  0.00     0.000 C
ATOM     97  C2  BDP C   6      42.928 107.866 111.8860  0.00  0.00     0.000 C
ATOM     98  C3  BDP C   6      42.968 106.607 112.7660  0.00  0.00     0.000 C
ATOM     99  C4  BDP C   6      41.579 106.010 112.9400  0.00  0.00     0.000 C
ATOM    100  C5  BDP C   6      40.937 105.877 111.5390  0.00  0.00     0.000 C
ATOM    101  O5  BDP C   6      40.901 107.229 111.0550  0.00  0.00     0.000 O
BRANCH 100 102
ATOM    102   C  BDP C   6      39.520 105.366 111.5950  0.00  0.00     0.000 C
ATOM    103   O  BDP C   6      38.599 106.022 112.1030  0.00  0.00     0.000 OA
ATOM    104   O  BDP C   6      39.307 104.255 111.0960  0.00  0.00     0.000 OA
ENDBRANCH 100 102
ENDBRANCH 95 99
ENDBRANCH 75 95
ENDBRANCH 74 78
ENDBRANCH 58 74
ENDBRANCH 57 61
ENDBRANCH 37 57
ENDBRANCH 36 40
ENDBRANCH 23 36
ENDBRANCH 22 26
ENDBRANCH 1 22
TORSDOF 20
ENDMDL
MODEL 51
REMARK VINA RESULT:      -0.2     85.757     93.604
ROOT
ATOM      1  C1  NGY C   1      31.546  82.831 109.4610  0.00  0.00     0.000 C
ATOM      2  C2  NGY C   1      32.950  83.280 109.8430  0.00  0.00     0.000 C
ATOM      3  C3  NGY C   1      33.841  82.068 110.0940  0.00  0.00     0.000 C
ATOM      4  C4  NGY C   1      33.169  81.189 111.1310  0.00  0.00     0.000 C
ATOM      5  C5  NGY C   1      31.813  80.744 110.5910  0.00  0.00     0.000 C
ATOM      6  O5  NGY C   1      30.993  81.925 110.3910  0.00  0.00     0.000 O
ATOM      7   O  NGY C   1      35.122  82.511 110.5180  0.00  0.00     0.000 O
ATOM      9  HD  NGY C   1      35.446  83.148 111.0060  0.00  0.00     0.000 HD
ATOM      9   O  NGY C   1      33.970  80.056 111.4330  0.00  0.00     0.000 O
ATOM     11  HD  NGY C   1      34.294  80.693 111.9210  0.00  0.00     0.000 HD
ENDROOT
BRANCH 2 13
ATOM     11   N  NGY C   1      33.248  84.262 108.8280  0.00  0.00     0.000 N
ATOM     13  HD  NGY C   1      33.795  84.759 109.2780  0.00  0.00     0.000 HD
ATOM     13   C  NGY C   1      34.079  85.277 109.0610  0.00  0.00     0.000 C
ATOM     14   O  NGY C   1      34.513  85.498 110.1930  0.00  0.00     0.000 OA
ATOM     15   C  NGY C   1      34.474  86.108 107.8790  0.00  0.00     0.000 C
ENDBRANCH 2 13
BRANCH 5 16
ATOM     16   C  NGY C   1      31.027  79.856 111.5020  0.00  0.00     0.000 C
ATOM     17   O  NGY C   1      27.372  79.951 111.8050  0.00  0.00     0.000 OA
ATOM     18   O  NGY C   1      29.670  80.308 111.5260  0.00  0.00     0.000 O
ATOM     19   S  NGY C   1      28.616  79.268 112.0520  0.00  0.00     0.000 S
ATOM     20   O  NGY C   1      28.869  79.080 113.4560  0.00  0.00     0.000 OA
ATOM     21   O  NGY C   1      28.850  78.075 111.2550  0.00  0.00     0.000 OA
ENDBRANCH 5 16
BRANCH 1 22
ATOM     22  O4  BDP C   2      31.575  82.335 108.2060  0.00  0.00     0.000 O
BRANCH 22 26
ATOM     23  C1  BDP C   2      29.796  81.598 104.5650  0.00  0.00     0.000 C
ATOM     24  C2  BDP C   2      29.887  83.053 104.9610  0.00  0.00     0.000 C
ATOM     25  C3  BDP C   2      30.861  83.207 106.1000  0.00  0.00     0.000 C
ATOM     26  C4  BDP C   2      30.492  82.265 107.2410  0.00  0.00     0.000 C
ATOM     27  C5  BDP C   2      30.254  80.862 106.6970  0.00  0.00     0.000 C
ATOM     28  O5  BDP C   2      29.235  80.827 105.6640  0.00  0.00     0.000 O
ATOM     29   O  BDP C   2      30.447  83.864 103.9280  0.00  0.00     0.000 O
ATOM     31  HD  BDP C   2      30.952  84.520 104.1820  0.00  0.00     0.000 HD
ATOM     31   O  BDP C   2      30.778  84.558 106.5360  0.00  0.00     0.000 O
ATOM     33  HD  BDP C   2      31.283  85.214 106.7890  0.00  0.00     0.000 HD
BRANCH 27 33
ATOM     33   C  BDP C   2      29.789  79.900 107.7640  0.00  0.00     0.000 C
ATOM     34   O  BDP C   2      30.390  78.824 107.9980  0.00  0.00     0.000 OA
ATOM     35   O  BDP C   2      28.776  80.171 108.3880  0.00  0.00     0.000 OA
ENDBRANCH 27 33
BRANCH 23 36
ATOM     36  O4  SGN C   3      29.051  81.343 103.4640  0.00  0.00     0.000 O
BRANCH 36 40
ATOM     37  C1  SGN C   3      28.720  79.040  99.9980  0.00  0.00     0.000 C
ATOM     38  C2  SGN C   3      28.237  78.417 101.3180  0.00  0.00     0.000 C
ATOM     39  C3  SGN C   3      28.016  79.497 102.3670  0.00  0.00     0.000 C
ATOM     40  C4  SGN C   3      29.298  80.285 102.5350  0.00  0.00     0.000 C
ATOM     41  C5  SGN C   3      29.710  80.839 101.1880  0.00  0.00     0.000 C
ATOM     42  O5  SGN C   3      29.914  79.761 100.2620  0.00  0.00     0.000 O
ATOM     43   O  SGN C   3      27.628  78.889 103.5920  0.00  0.00     0.000 O
ATOM     45  HD  SGN C   3      28.027  79.641 103.7500  0.00  0.00     0.000 HD
BRANCH 38 47
ATOM     45   N  SGN C   3      28.453  77.226 100.4770  0.00  0.00     0.000 N
ATOM     47  HD  SGN C   3      28.787  77.916 100.8810  0.00  0.00     0.000 HD
ATOM     47   S  SGN C   3      27.199  76.250 100.4910  0.00  0.00     0.000 S
ATOM     48   O  SGN C   3      27.004  75.676 101.7760  0.00  0.00     0.000 OA
ATOM     49   O  SGN C   3      26.105  76.982  99.9430  0.00  0.00     0.000 OA
ATOM     50   O  SGN C   3      27.641  75.186  99.5900  0.00  0.00     0.000 OA
ENDBRANCH 38 47
BRANCH 41 51
ATOM     51   C  SGN C   3      30.976  81.652 101.2190  0.00  0.00     0.000 C
ATOM     52   O  SGN C   3      34.053  81.108  99.1910  0.00  0.00     0.000 OA
ATOM     53   O  SGN C   3      33.077  83.154  99.9600  0.00  0.00     0.000 OA
ATOM     54   O  SGN C   3      33.941  81.554 101.5280  0.00  0.00     0.000 OA
ATOM     55   O  SGN C   3      31.871  81.136 100.2590  0.00  0.00     0.000 O
ATOM     56   S  SGN C   3      33.377  81.800 100.2340  0.00  0.00     0.000 S
ENDBRANCH 41 51
BRANCH 37 57
ATOM     57  O4  IDS C   4      27.836  79.884  99.4140  0.00  0.00     0.000 O
BRANCH 57 61
ATOM     58  C1  IDS C   4      25.518  81.010  96.6150  0.00  0.00     0.000 C
ATOM     59  C2  IDS C   4      25.383  79.616  97.1430  0.00  0.00     0.000 C
ATOM     60  C3  IDS C   4      26.735  78.961  97.4350  0.00  0.00     0.000 C
ATOM     61  C4  IDS C   4      27.830  79.871  97.9730  0.00  0.00     0.000 C
ATOM     62  C5  IDS C   4      27.681  81.291  97.4130  0.00  0.00     0.000 C
ATOM     63  O5  IDS C   4      26.341  81.752  97.4980  0.00  0.00     0.000 O
ATOM     64   O  IDS C   4      27.166  78.428  96.1970  0.00  0.00     0.000 O
ATOM     66  HD  IDS C   4      27.868  78.849  95.9140  0.00  0.00     0.000 HD
BRANCH 59 66
ATOM     66   O  IDS C   4      24.621  79.586  98.4060  0.00  0.00     0.000 O
ATOM     67   S  IDS C   4      23.178  78.918  98.3490  0.00  0.00     0.000 S
ATOM     68   O  IDS C   4      23.466  77.538  98.0380  0.00  0.00     0.000 OA
ATOM     69   O  IDS C   4      22.611  79.142  99.6640  0.00  0.00     0.000 OA
ATOM     70   O  IDS C   4      22.444  79.569  97.2740  0.00  0.00     0.000 OA
ENDBRANCH 59 66
BRANCH 62 71
ATOM     71   C  IDS C   4      28.515  82.315  98.1600  0.00  0.00     0.000 C
ATOM     72   O  IDS C   4      29.720  82.352  98.0040  0.00  0.00     0.000 OA
ATOM     73   O  IDS C   4      27.950  83.038  99.0050  0.00  0.00     0.000 OA
ENDBRANCH 62 71
BRANCH 58 74
ATOM     74  O4  SGN C   5      25.732  81.098  95.2720  0.00  0.00     0.000 O
BRANCH 74 78
ATOM     75  C1  SGN C   5      24.888  83.179  91.7500  0.00  0.00     0.000 C
ATOM     76  C2  SGN C   5      25.996  83.775  92.6390  0.00  0.00     0.000 C
ATOM     77  C3  SGN C   5      26.445  82.762  93.7000  0.00  0.00     0.000 C
ATOM     78  C4  SGN C   5      25.256  82.137  94.4160  0.00  0.00     0.000 C
ATOM     79  C5  SGN C   5      24.281  81.579  93.3900  0.00  0.00     0.000 C
ATOM     80  O5  SGN C   5      23.819  82.652  92.5260  0.00  0.00     0.000 O
ATOM     81   O  SGN C   5      27.301  83.417  94.6300  0.00  0.00     0.000 O
ATOM     83  HD  SGN C   5      27.864  84.025  94.3790  0.00  0.00     0.000 HD
BRANCH 76 85
ATOM     83   N  SGN C   5      26.205  84.593  91.4370  0.00  0.00     0.000 N
ATOM     85  HD  SGN C   5      26.700  84.906  90.7990  0.00  0.00     0.000 HD
ATOM     85   S  SGN C   5      27.453  85.532  91.0430  0.00  0.00     0.000 S
ATOM     86   O  SGN C   5      27.256  86.106  89.7580  0.00  0.00     0.000 OA
ATOM     87   O  SGN C   5      27.662  86.426  92.1250  0.00  0.00     0.000 OA
ATOM     88   O  SGN C   5      28.489  84.412  90.9790  0.00  0.00     0.000 OA
ENDBRANCH 76 85
BRANCH 79 89
ATOM     89   C  SGN C   5      23.069  80.911  94.0080  0.00  0.00     0.000 C
ATOM     90   O  SGN C   5      22.090  80.625  92.9800  0.00  0.00     0.000 O
ATOM     91   S  SGN C   5      21.170  79.328  93.2010  0.00  0.00     0.000 S
ATOM     92   O  SGN C   5      22.069  78.231  93.4510  0.00  0.00     0.000 OA
ATOM     93   O  SGN C   5      20.312  79.604  94.3240  0.00  0.00     0.000 OA
ATOM     94   O  SGN C   5      20.458  79.213  91.9570  0.00  0.00     0.000 OA
ENDBRANCH 79 89
BRANCH 75 95
ATOM     95  O4  BDP C   6      25.480  82.172  91.0420  0.00  0.00     0.000 O
BRANCH 95 99
ATOM     96  C1  BDP C   6      24.540  80.562  87.1730  0.00  0.00     0.000 C
ATOM     97  C2  BDP C   6      24.318  82.028  87.4180  0.00  0.00     0.000 C
ATOM     98  C3  BDP C   6      25.026  82.576  88.6660  0.00  0.00     0.000 C
ATOM     99  C4  BDP C   6      24.774  81.691  89.8780  0.00  0.00     0.000 C
ATOM    100  C5  BDP C   6      25.080  80.230  89.4740  0.00  0.00     0.000 C
ATOM    101  O5  BDP C   6      24.156  79.976  88.4030  0.00  0.00     0.000 O
BRANCH 100 102
ATOM    102   C  BDP C   6      24.789  79.248  90.5800  0.00  0.00     0.000 C
ATOM    103   O  BDP C   6      23.643  78.842  90.8210  0.00  0.00     0.000 OA
ATOM    104   O  BDP C   6      25.755  78.847  91.2410  0.00  0.00     0.000 OA
ENDBRANCH 100 102
ENDBRANCH 95 99
ENDBRANCH 75 95
ENDBRANCH 74 78
ENDBRANCH 58 74
ENDBRANCH 57 61
ENDBRANCH 37 57
ENDBRANCH 36 40
ENDBRANCH 23 36
ENDBRANCH 22 26
ENDBRANCH 1 22
TORSDOF 20
ENDMDL
MODEL 52
REMARK VINA RESULT:      -0.2     97.295    107.727
ROOT
ATOM      1  C1  NGY C   1      26.231  82.041 109.0450  0.00  0.00     0.000 C
ATOM      2  C2  NGY C   1      25.696  81.021 108.0490  0.00  0.00     0.000 C
ATOM      3  C3  NGY C   1      24.413  80.389 108.5780  0.00  0.00     0.000 C
ATOM      4  C4  NGY C   1      24.696  79.818 109.9540  0.00  0.00     0.000 C
ATOM      5  C5  NGY C   1      25.143  80.952 110.8720  0.00  0.00     0.000 C
ATOM      6  O5  NGY C   1      26.376  81.506 110.3440  0.00  0.00     0.000 O
ATOM      7   O  NGY C   1      23.974  79.392 107.6670  0.00  0.00     0.000 O
ATOM      9  HD  NGY C   1      24.335  78.799 107.1490  0.00  0.00     0.000 HD
ATOM      9   O  NGY C   1      23.544  79.183 110.4880  0.00  0.00     0.000 O
ATOM     11  HD  NGY C   1      23.904  78.590 109.9710  0.00  0.00     0.000 HD
ENDROOT
BRANCH 2 13
ATOM     11   N  NGY C   1      25.749  81.752 106.8050  0.00  0.00     0.000 N
ATOM     13  HD  NGY C   1      25.848  81.085 106.2610  0.00  0.00     0.000 HD
ATOM     13   C  NGY C   1      25.902  81.131 105.6360  0.00  0.00     0.000 C
ATOM     14   O  NGY C   1      26.147  79.925 105.5830  0.00  0.00     0.000 OA
ATOM     15   C  NGY C   1      25.732  81.966 104.4040  0.00  0.00     0.000 C
ENDBRANCH 2 13
BRANCH 5 16
ATOM     16   C  NGY C   1      25.453  80.548 112.2780  0.00  0.00     0.000 C
ATOM     17   O  NGY C   1      23.149  81.003 115.0970  0.00  0.00     0.000 OA
ATOM     18   O  NGY C   1      24.435  81.065 113.1400  0.00  0.00     0.000 O
ATOM     19   S  NGY C   1      24.333  80.388 114.5540  0.00  0.00     0.000 S
ATOM     20   O  NGY C   1      25.521  80.747 115.2840  0.00  0.00     0.000 OA
ATOM     21   O  NGY C   1      24.233  78.965 114.2730  0.00  0.00     0.000 OA
ENDBRANCH 5 16
BRANCH 1 22
ATOM     22  O4  BDP C   2      25.438  83.132 109.0180  0.00  0.00     0.000 O
BRANCH 22 26
ATOM     23  C1  BDP C   2      24.905  87.208 109.2780  0.00  0.00     0.000 C
ATOM     24  C2  BDP C   2      25.961  86.752 108.2980  0.00  0.00     0.000 C
ATOM     25  C3  BDP C   2      25.801  85.278 108.0340  0.00  0.00     0.000 C
ATOM     26  C4  BDP C   2      25.784  84.504 109.3470  0.00  0.00     0.000 C
ATOM     27  C5  BDP C   2      24.812  85.158 110.3200  0.00  0.00     0.000 C
ATOM     28  O5  BDP C   2      25.116  86.556 110.5620  0.00  0.00     0.000 O
ATOM     29   O  BDP C   2      25.799  87.345 107.0100  0.00  0.00     0.000 O
ATOM     31  HD  BDP C   2      25.995  86.848 106.3280  0.00  0.00     0.000 HD
ATOM     31   O  BDP C   2      26.914  84.877 107.2440  0.00  0.00     0.000 O
ATOM     33  HD  BDP C   2      27.109  84.380 106.5620  0.00  0.00     0.000 HD
BRANCH 27 33
ATOM     33   C  BDP C   2      24.820  84.496 111.6780  0.00  0.00     0.000 C
ATOM     34   O  BDP C   2      25.887  84.220 112.2770  0.00  0.00     0.000 OA
ATOM     35   O  BDP C   2      23.752  84.193 112.1820  0.00  0.00     0.000 OA
ENDBRANCH 27 33
BRANCH 23 36
ATOM     36  O4  SGN C   3      24.859  88.542 109.5000  0.00  0.00     0.000 O
BRANCH 36 40
ATOM     37  C1  SGN C   3      22.368  91.847 110.0500  0.00  0.00     0.000 C
ATOM     38  C2  SGN C   3      22.658  90.960 111.2720  0.00  0.00     0.000 C
ATOM     39  C3  SGN C   3      23.886  90.097 111.0230  0.00  0.00     0.000 C
ATOM     40  C4  SGN C   3      23.667  89.289 109.7620  0.00  0.00     0.000 C
ATOM     41  C5  SGN C   3      23.366  90.236 108.6220  0.00  0.00     0.000 C
ATOM     42  O5  SGN C   3      22.190  91.001 108.9250  0.00  0.00     0.000 O
ATOM     43   O  SGN C   3      24.096  89.246 112.1440  0.00  0.00     0.000 O
ATOM     45  HD  SGN C   3      24.415  88.876 111.4290  0.00  0.00     0.000 HD
BRANCH 38 47
ATOM     45   N  SGN C   3      21.753  90.881 112.4330  0.00  0.00     0.000 N
ATOM     47  HD  SGN C   3      22.246  90.470 111.8510  0.00  0.00     0.000 HD
ATOM     47   S  SGN C   3      21.547  92.296 113.1270  0.00  0.00     0.000 S
ATOM     48   O  SGN C   3      22.751  92.764 113.7180  0.00  0.00     0.000 OA
ATOM     49   O  SGN C   3      20.941  93.144 112.1530  0.00  0.00     0.000 OA
ATOM     50   O  SGN C   3      20.619  91.966 114.2070  0.00  0.00     0.000 OA
ENDBRANCH 38 47
BRANCH 41 51
ATOM     51   C  SGN C   3      23.132  89.554 107.3010  0.00  0.00     0.000 C
ATOM     52   O  SGN C   3      20.919  86.633 106.6320  0.00  0.00     0.000 OA
ATOM     53   O  SGN C   3      21.435  88.506 105.2340  0.00  0.00     0.000 OA
ATOM     54   O  SGN C   3      23.149  86.944 105.8560  0.00  0.00     0.000 OA
ATOM     55   O  SGN C   3      22.185  88.525 107.4810  0.00  0.00     0.000 O
ATOM     56   S  SGN C   3      21.897  87.562 106.1780  0.00  0.00     0.000 S
ENDBRANCH 41 51
BRANCH 37 57
ATOM     57  O4  IDS C   4      23.342  92.743 109.7570  0.00  0.00     0.000 O
BRANCH 57 61
ATOM     58  C1  IDS C   4      23.901  96.478 109.2990  0.00  0.00     0.000 C
ATOM     59  C2  IDS C   4      22.691  96.020 110.0500  0.00  0.00     0.000 C
ATOM     60  C3  IDS C   4      22.039  94.785 109.4240  0.00  0.00     0.000 C
ATOM     61  C4  IDS C   4      22.978  93.759 108.8030  0.00  0.00     0.000 C
ATOM     62  C5  IDS C   4      24.224  94.442 108.2280  0.00  0.00     0.000 C
ATOM     63  O5  IDS C   4      24.781  95.378 109.1390  0.00  0.00     0.000 O
ATOM     64   O  IDS C   4      21.192  95.286 108.4070  0.00  0.00     0.000 O
ATOM     66  HD  IDS C   4      21.483  95.051 107.6260  0.00  0.00     0.000 HD
BRANCH 59 66
ATOM     66   O  IDS C   4      23.021  95.658 111.4420  0.00  0.00     0.000 O
ATOM     67   S  IDS C   4      22.447  96.612 112.5790  0.00  0.00     0.000 S
ATOM     68   O  IDS C   4      21.019  96.439 112.4630  0.00  0.00     0.000 OA
ATOM     69   O  IDS C   4      23.024  96.113 113.8110  0.00  0.00     0.000 OA
ATOM     70   O  IDS C   4      22.852  97.969 112.2470  0.00  0.00     0.000 OA
ENDBRANCH 59 66
BRANCH 62 71
ATOM     71   C  IDS C   4      25.342  93.468 107.9080  0.00  0.00     0.000 C
ATOM     72   O  IDS C   4      26.384  93.508 108.5330  0.00  0.00     0.000 OA
ATOM     73   O  IDS C   4      25.203  92.705 106.9310  0.00  0.00     0.000 OA
ENDBRANCH 62 71
BRANCH 58 74
ATOM     74  O4  SGN C   5      23.644  97.286 108.2320  0.00  0.00     0.000 O
BRANCH 74 78
ATOM     75  C1  SGN C   5      24.790 100.668 106.0660  0.00  0.00     0.000 C
ATOM     76  C2  SGN C   5      25.765  99.476 106.0230  0.00  0.00     0.000 C
ATOM     77  C3  SGN C   5      25.090  98.204 106.5540  0.00  0.00     0.000 C
ATOM     78  C4  SGN C   5      24.377  98.458 107.8750  0.00  0.00     0.000 C
ATOM     79  C5  SGN C   5      23.441  99.649 107.7260  0.00  0.00     0.000 C
ATOM     80  O5  SGN C   5      24.209 100.824 107.3540  0.00  0.00     0.000 O
ATOM     81   O  SGN C   5      26.075  97.187 106.7050  0.00  0.00     0.000 O
ATOM     83  HD  SGN C   5      26.729  97.101 106.1440  0.00  0.00     0.000 HD
BRANCH 76 85
ATOM     83   N  SGN C   5      26.067  99.529 104.5870  0.00  0.00     0.000 N
ATOM     85  HD  SGN C   5      26.581  99.381 103.9060  0.00  0.00     0.000 HD
ATOM     85   S  SGN C   5      27.451  99.888 103.8460  0.00  0.00     0.000 S
ATOM     86   O  SGN C   5      27.305  99.772 102.4370  0.00  0.00     0.000 OA
ATOM     87   O  SGN C   5      27.882 101.143 104.3500  0.00  0.00     0.000 OA
ATOM     88   O  SGN C   5      28.248  98.711 104.4030  0.00  0.00     0.000 OA
ENDBRANCH 76 85
BRANCH 79 89
ATOM     89   C  SGN C   5      22.664  99.967 108.9870  0.00  0.00     0.000 C
ATOM     90   O  SGN C   5      23.461 100.811 109.8540  0.00  0.00     0.000 O
ATOM     91   S  SGN C   5      22.663 101.854 110.7770  0.00  0.00     0.000 S
ATOM     92   O  SGN C   5      21.800 102.598 109.8970  0.00  0.00     0.000 OA
ATOM     93   O  SGN C   5      21.929 101.084 111.7480  0.00  0.00     0.000 OA
ATOM     94   O  SGN C   5      23.711 102.649 111.3580  0.00  0.00     0.000 OA
ENDBRANCH 79 89
BRANCH 75 95
ATOM     95  O4  BDP C   6      23.814 100.384 105.1530  0.00  0.00     0.000 O
BRANCH 95 99
ATOM     96  C1  BDP C   6      22.167 103.358 102.5290  0.00  0.00     0.000 C
ATOM     97  C2  BDP C   6      23.203 103.777 103.5340  0.00  0.00     0.000 C
ATOM     98  C3  BDP C   6      23.997 102.613 104.1470  0.00  0.00     0.000 C
ATOM     99  C4  BDP C   6      23.072 101.503 104.6240  0.00  0.00     0.000 C
ATOM    100  C5  BDP C   6      22.097 101.166 103.4710  0.00  0.00     0.000 C
ATOM    101  O5  BDP C   6      21.404 102.404 103.2440  0.00  0.00     0.000 O
BRANCH 100 102
ATOM    102   C  BDP C   6      21.076 100.127 103.8580  0.00  0.00     0.000 C
ATOM    103   O  BDP C   6      20.298 100.285 104.8100  0.00  0.00     0.000 OA
ATOM    104   O  BDP C   6      21.036  99.099 103.1710  0.00  0.00     0.000 OA
ENDBRANCH 100 102
ENDBRANCH 95 99
ENDBRANCH 75 95
ENDBRANCH 74 78
ENDBRANCH 58 74
ENDBRANCH 57 61
ENDBRANCH 37 57
ENDBRANCH 36 40
ENDBRANCH 23 36
ENDBRANCH 22 26
ENDBRANCH 1 22
TORSDOF 20
ENDMDL
MODEL 53
REMARK VINA RESULT:      -0.2     63.692     71.789
ROOT
ATOM      1  C1  NGY C   1      54.177  52.448  74.7440  0.00  0.00     0.000 C
ATOM      2  C2  NGY C   1      53.638  52.664  73.3360  0.00  0.00     0.000 C
ATOM      3  C3  NGY C   1      52.122  52.835  73.3710  0.00  0.00     0.000 C
ATOM      4  C4  NGY C   1      51.525  51.637  74.0850  0.00  0.00     0.000 C
ATOM      5  C5  NGY C   1      52.083  51.585  75.5040  0.00  0.00     0.000 C
ATOM      6  O5  NGY C   1      53.520  51.398  75.4210  0.00  0.00     0.000 O
ATOM      7   O  NGY C   1      51.636  52.961  72.0420  0.00  0.00     0.000 O
ATOM      9  HD  NGY C   1      51.820  52.632  71.2630  0.00  0.00     0.000 HD
ATOM      9   O  NGY C   1      50.108  51.721  74.1200  0.00  0.00     0.000 O
ATOM     11  HD  NGY C   1      50.292  51.392  73.3400  0.00  0.00     0.000 HD
ENDROOT
BRANCH 2 13
ATOM     11   N  NGY C   1      53.989  53.847  72.5860  0.00  0.00     0.000 N
ATOM     13  HD  NGY C   1      54.492  53.480  71.9840  0.00  0.00     0.000 HD
ATOM     13   C  NGY C   1      54.785  53.786  71.5190  0.00  0.00     0.000 C
ATOM     14   O  NGY C   1      55.366  52.743  71.2170  0.00  0.00     0.000 OA
ATOM     15   C  NGY C   1      54.910  55.035  70.7010  0.00  0.00     0.000 C
ENDBRANCH 2 13
BRANCH 5 16
ATOM     16   C  NGY C   1      51.578  50.455  76.3440  0.00  0.00     0.000 C
ATOM     17   O  NGY C   1      53.680  47.708  77.5660  0.00  0.00     0.000 OA
ATOM     18   O  NGY C   1      52.605  49.467  76.4530  0.00  0.00     0.000 O
ATOM     19   S  NGY C   1      52.441  48.442  77.6330  0.00  0.00     0.000 S
ATOM     20   O  NGY C   1      51.300  47.620  77.3270  0.00  0.00     0.000 OA
ATOM     21   O  NGY C   1      52.261  49.270  78.8140  0.00  0.00     0.000 OA
ENDBRANCH 5 16
BRANCH 1 22
ATOM     22  O4  BDP C   2      54.117  53.617  75.4160  0.00  0.00     0.000 O
BRANCH 22 26
ATOM     23  C1  BDP C   2      55.500  56.177  78.3310  0.00  0.00     0.000 C
ATOM     24  C2  BDP C   2      56.538  55.691  77.3470  0.00  0.00     0.000 C
ATOM     25  C3  BDP C   2      55.855  55.081  76.1510  0.00  0.00     0.000 C
ATOM     26  C4  BDP C   2      54.861  54.014  76.5980  0.00  0.00     0.000 C
ATOM     27  C5  BDP C   2      53.981  54.562  77.7140  0.00  0.00     0.000 C
ATOM     28  O5  BDP C   2      54.747  55.044  78.8470  0.00  0.00     0.000 O
ATOM     29   O  BDP C   2      57.302  56.761  76.7900  0.00  0.00     0.000 O
ATOM     31  HD  BDP C   2      57.537  56.677  75.9600  0.00  0.00     0.000 HD
ATOM     31   O  BDP C   2      56.872  54.497  75.3480  0.00  0.00     0.000 O
ATOM     33  HD  BDP C   2      57.108  54.413  74.5190  0.00  0.00     0.000 HD
BRANCH 27 33
ATOM     33   C  BDP C   2      53.038  53.521  78.2690  0.00  0.00     0.000 C
ATOM     34   O  BDP C   2      51.827  53.767  78.4830  0.00  0.00     0.000 OA
ATOM     35   O  BDP C   2      53.486  52.421  78.5470  0.00  0.00     0.000 OA
ENDBRANCH 27 33
BRANCH 23 36
ATOM     36  O4  SGN C   3      55.984  56.864  79.3920  0.00  0.00     0.000 O
BRANCH 36 40
ATOM     37  C1  SGN C   3      55.414  60.149  81.9060  0.00  0.00     0.000 C
ATOM     38  C2  SGN C   3      54.626  58.866  82.2170  0.00  0.00     0.000 C
ATOM     39  C3  SGN C   3      55.253  57.672  81.5130  0.00  0.00     0.000 C
ATOM     40  C4  SGN C   3      55.322  57.961  80.0290  0.00  0.00     0.000 C
ATOM     41  C5  SGN C   3      56.092  59.247  79.8180  0.00  0.00     0.000 C
ATOM     42  O5  SGN C   3      55.431  60.325  80.4980  0.00  0.00     0.000 O
ATOM     43   O  SGN C   3      54.471  56.512  81.7690  0.00  0.00     0.000 O
ATOM     45  HD  SGN C   3      54.880  56.430  81.0110  0.00  0.00     0.000 HD
BRANCH 38 47
ATOM     45   N  SGN C   3      53.835  59.891  82.9210  0.00  0.00     0.000 N
ATOM     47  HD  SGN C   3      54.132  59.572  82.1720  0.00  0.00     0.000 HD
ATOM     47   S  SGN C   3      53.532  59.482  84.4260  0.00  0.00     0.000 S
ATOM     48   O  SGN C   3      52.680  58.349  84.4940  0.00  0.00     0.000 OA
ATOM     49   O  SGN C   3      54.794  59.375  85.0820  0.00  0.00     0.000 OA
ATOM     50   O  SGN C   3      52.775  60.639  84.9020  0.00  0.00     0.000 OA
ENDBRANCH 38 47
BRANCH 41 51
ATOM     51   C  SGN C   3      56.237  59.647  78.3750  0.00  0.00     0.000 C
ATOM     52   O  SGN C   3      53.556  59.789  75.7920  0.00  0.00     0.000 OA
ATOM     53   O  SGN C   3      55.488  61.177  76.0610  0.00  0.00     0.000 OA
ATOM     54   O  SGN C   3      55.727  58.843  75.5470  0.00  0.00     0.000 OA
ATOM     55   O  SGN C   3      54.968  59.611  77.7620  0.00  0.00     0.000 O
ATOM     56   S  SGN C   3      54.933  59.879  76.1380  0.00  0.00     0.000 S
ENDBRANCH 41 51
BRANCH 37 57
ATOM     57  O4  IDS C   4      56.696  60.146  82.3480  0.00  0.00     0.000 O
BRANCH 57 61
ATOM     58  C1  IDS C   4      59.650  61.493  84.3310  0.00  0.00     0.000 C
ATOM     59  C2  IDS C   4      58.362  61.235  85.0470  0.00  0.00     0.000 C
ATOM     60  C3  IDS C   4      57.136  61.647  84.2270  0.00  0.00     0.000 C
ATOM     61  C4  IDS C   4      57.222  61.434  82.7210  0.00  0.00     0.000 C
ATOM     62  C5  IDS C   4      58.664  61.601  82.2300  0.00  0.00     0.000 C
ATOM     63  O5  IDS C   4      59.585  60.894  83.0480  0.00  0.00     0.000 O
ATOM     64   O  IDS C   4      56.971  63.031  84.4730  0.00  0.00     0.000 O
ATOM     66  HD  IDS C   4      57.125  63.487  83.7530  0.00  0.00     0.000 HD
BRANCH 59 66
ATOM     66   O  IDS C   4      58.193  59.804  85.3610  0.00  0.00     0.000 O
ATOM     67   S  IDS C   4      58.110  59.420  86.9030  0.00  0.00     0.000 S
ATOM     68   O  IDS C   4      56.890  60.057  87.3360  0.00  0.00     0.000 OA
ATOM     69   O  IDS C   4      58.084  57.970  86.9260  0.00  0.00     0.000 OA
ATOM     70   O  IDS C   4      59.277  59.997  87.5530  0.00  0.00     0.000 OA
ENDBRANCH 59 66
BRANCH 62 71
ATOM     71   C  IDS C   4      58.878  61.074  80.8240  0.00  0.00     0.000 C
ATOM     72   O  IDS C   4      59.458  60.020  80.6490  0.00  0.00     0.000 OA
ATOM     73   O  IDS C   4      58.540  61.793  79.8620  0.00  0.00     0.000 OA
ENDBRANCH 62 71
BRANCH 58 74
ATOM     74  O4  SGN C   5      60.129  62.764  84.4490  0.00  0.00     0.000 O
BRANCH 74 78
ATOM     75  C1  SGN C   5      63.505  65.109  85.1860  0.00  0.00     0.000 C
ATOM     76  C2  SGN C   5      63.190  64.825  83.7050  0.00  0.00     0.000 C
ATOM     77  C3  SGN C   5      61.770  64.263  83.5510  0.00  0.00     0.000 C
ATOM     78  C4  SGN C   5      61.505  63.133  84.5360  0.00  0.00     0.000 C
ATOM     79  C5  SGN C   5      61.847  63.596  85.9450  0.00  0.00     0.000 C
ATOM     80  O5  SGN C   5      63.247  63.975  86.0040  0.00  0.00     0.000 O
ATOM     81   O  SGN C   5      61.596  63.811  82.2130  0.00  0.00     0.000 O
ATOM     83  HD  SGN C   5      61.946  64.231  81.5410  0.00  0.00     0.000 HD
BRANCH 76 85
ATOM     83   N  SGN C   5      64.367  65.648  83.4000  0.00  0.00     0.000 N
ATOM     85  HD  SGN C   5      64.742  66.388  83.1520  0.00  0.00     0.000 HD
ATOM     85   S  SGN C   5      64.595  66.704  82.2060  0.00  0.00     0.000 S
ATOM     86   O  SGN C   5      65.875  67.312  82.3170  0.00  0.00     0.000 OA
ATOM     87   O  SGN C   5      64.302  66.032  80.9900  0.00  0.00     0.000 OA
ATOM     88   O  SGN C   5      63.499  67.677  82.6340  0.00  0.00     0.000 OA
ENDBRANCH 76 85
BRANCH 79 89
ATOM     89   C  SGN C   5      61.592  62.544  87.0050  0.00  0.00     0.000 C
ATOM     90   O  SGN C   5      62.759  61.697  87.1440  0.00  0.00     0.000 O
ATOM     91   S  SGN C   5      63.038  61.088  88.6030  0.00  0.00     0.000 S
ATOM     92   O  SGN C   5      63.032  62.201  89.5160  0.00  0.00     0.000 OA
ATOM     93   O  SGN C   5      61.983  60.145  88.8770  0.00  0.00     0.000 OA
ATOM     94   O  SGN C   5      64.328  60.470  88.4610  0.00  0.00     0.000 OA
ENDBRANCH 79 89
BRANCH 75 95
ATOM     95  O4  BDP C   6      62.682  66.136  85.5520  0.00  0.00     0.000 O
BRANCH 95 99
ATOM     96  C1  BDP C   6      63.366  69.352  88.3160  0.00  0.00     0.000 C
ATOM     97  C2  BDP C   6      64.541  68.767  87.5840  0.00  0.00     0.000 C
ATOM     98  C3  BDP C   6      64.166  67.912  86.3640  0.00  0.00     0.000 C
ATOM     99  C4  BDP C   6      63.076  66.907  86.7080  0.00  0.00     0.000 C
ATOM    100  C5  BDP C   6      61.932  67.667  87.4180  0.00  0.00     0.000 C
ATOM    101  O5  BDP C   6      62.566  68.215  88.5860  0.00  0.00     0.000 O
BRANCH 100 102
ATOM    102   C  BDP C   6      60.824  66.754  87.8770  0.00  0.00     0.000 C
ATOM    103   O  BDP C   6      59.711  66.737  87.3310  0.00  0.00     0.000 OA
ATOM    104   O  BDP C   6      61.076  66.002  88.8260  0.00  0.00     0.000 OA
ENDBRANCH 100 102
ENDBRANCH 95 99
ENDBRANCH 75 95
ENDBRANCH 74 78
ENDBRANCH 58 74
ENDBRANCH 57 61
ENDBRANCH 37 57
ENDBRANCH 36 40
ENDBRANCH 23 36
ENDBRANCH 22 26
ENDBRANCH 1 22
TORSDOF 20
ENDMDL
MODEL 54
REMARK VINA RESULT:      -0.2     27.179     34.239
ROOT
ATOM      1  C1  NGY C   1      54.933  27.938  22.0680  0.00  0.00     0.000 C
ATOM      2  C2  NGY C   1      54.741  28.294  20.6000  0.00  0.00     0.000 C
ATOM      3  C3  NGY C   1      53.723  27.357  19.9570  0.00  0.00     0.000 C
ATOM      4  C4  NGY C   1      54.176  25.929  20.1930  0.00  0.00     0.000 C
ATOM      5  C5  NGY C   1      54.248  25.679  21.6970  0.00  0.00     0.000 C
ATOM      6  O5  NGY C   1      55.243  26.574  22.2590  0.00  0.00     0.000 O
ATOM      7   O  NGY C   1      53.616  27.662  18.5740  0.00  0.00     0.000 O
ATOM      9  HD  NGY C   1      54.143  27.914  17.9350  0.00  0.00     0.000 HD
ATOM      9   O  NGY C   1      53.283  25.006  19.5870  0.00  0.00     0.000 O
ATOM     11  HD  NGY C   1      53.810  25.258  18.9470  0.00  0.00     0.000 HD
ENDROOT
BRANCH 2 13
ATOM     11   N  NGY C   1      54.557  29.725  20.6530  0.00  0.00     0.000 N
ATOM     13  HD  NGY C   1      54.859  29.929  19.8680  0.00  0.00     0.000 HD
ATOM     13   C  NGY C   1      54.894  30.511  19.6320  0.00  0.00     0.000 C
ATOM     14   O  NGY C   1      55.506  30.065  18.6600  0.00  0.00     0.000 OA
ATOM     15   C  NGY C   1      54.466  31.944  19.7170  0.00  0.00     0.000 C
ENDBRANCH 2 13
BRANCH 5 16
ATOM     16   C  NGY C   1      54.673  24.302  22.0930  0.00  0.00     0.000 C
ATOM     17   O  NGY C   1      52.350  21.653  23.1160  0.00  0.00     0.000 OA
ATOM     18   O  NGY C   1      53.545  23.609  22.6340  0.00  0.00     0.000 O
ATOM     19   S  NGY C   1      53.669  22.044  22.6870  0.00  0.00     0.000 S
ATOM     20   O  NGY C   1      54.678  21.731  23.6650  0.00  0.00     0.000 OA
ATOM     21   O  NGY C   1      54.033  21.659  21.3330  0.00  0.00     0.000 OA
ENDBRANCH 5 16
BRANCH 1 22
ATOM     22  O4  BDP C   2      53.837  28.323  22.7550  0.00  0.00     0.000 O
BRANCH 22 26
ATOM     23  C1  BDP C   2      52.052  29.778  26.1690  0.00  0.00     0.000 C
ATOM     24  C2  BDP C   2      53.208  30.595  25.6420  0.00  0.00     0.000 C
ATOM     25  C3  BDP C   2      53.521  30.175  24.2300  0.00  0.00     0.000 C
ATOM     26  C4  BDP C   2      53.732  28.666  24.1620  0.00  0.00     0.000 C
ATOM     27  C5  BDP C   2      52.594  27.952  24.8780  0.00  0.00     0.000 C
ATOM     28  O5  BDP C   2      52.442  28.379  26.2560  0.00  0.00     0.000 O
ATOM     29   O  BDP C   2      52.883  31.980  25.5170  0.00  0.00     0.000 O
ATOM     31  HD  BDP C   2      53.232  32.400  24.8450  0.00  0.00     0.000 HD
ATOM     31   O  BDP C   2      54.712  30.853  23.8510  0.00  0.00     0.000 O
ATOM     33  HD  BDP C   2      55.060  31.273  23.1780  0.00  0.00     0.000 HD
BRANCH 27 33
ATOM     33   C  BDP C   2      52.794  26.456  24.9320  0.00  0.00     0.000 C
ATOM     34   O  BDP C   2      51.871  25.651  24.6600  0.00  0.00     0.000 OA
ATOM     35   O  BDP C   2      53.880  26.028  25.2850  0.00  0.00     0.000 OA
ENDBRANCH 27 33
BRANCH 23 36
ATOM     36  O4  SGN C   3      51.588  30.149  27.3850  0.00  0.00     0.000 O
BRANCH 36 40
ATOM     37  C1  SGN C   3      48.210  30.474  29.8180  0.00  0.00     0.000 C
ATOM     38  C2  SGN C   3      48.908  29.106  29.7430  0.00  0.00     0.000 C
ATOM     39  C3  SGN C   3      50.320  29.258  29.1960  0.00  0.00     0.000 C
ATOM     40  C4  SGN C   3      50.250  29.945  27.8490  0.00  0.00     0.000 C
ATOM     41  C5  SGN C   3      49.531  31.266  28.0120  0.00  0.00     0.000 C
ATOM     42  O5  SGN C   3      48.206  31.038  28.5160  0.00  0.00     0.000 O
ATOM     43   O  SGN C   3      50.919  27.973  29.0820  0.00  0.00     0.000 O
ATOM     45  HD  SGN C   3      51.265  28.512  28.5000  0.00  0.00     0.000 HD
BRANCH 38 47
ATOM     45   N  SGN C   3      48.282  27.808  30.0550  0.00  0.00     0.000 N
ATOM     47  HD  SGN C   3      48.814  28.269  29.5510  0.00  0.00     0.000 HD
ATOM     47   S  SGN C   3      47.619  27.798  31.5000  0.00  0.00     0.000 S
ATOM     48   O  SGN C   3      48.599  27.910  32.5210  0.00  0.00     0.000 OA
ATOM     49   O  SGN C   3      46.593  28.788  31.4850  0.00  0.00     0.000 OA
ATOM     50   O  SGN C   3      47.063  26.447  31.5610  0.00  0.00     0.000 OA
ENDBRANCH 38 47
BRANCH 41 51
ATOM     51   C  SGN C   3      49.399  32.056  26.7380  0.00  0.00     0.000 C
ATOM     52   O  SGN C   3      50.951  35.351  25.9570  0.00  0.00     0.000 OA
ATOM     53   O  SGN C   3      50.485  33.504  24.5070  0.00  0.00     0.000 OA
ATOM     54   O  SGN C   3      48.693  34.705  25.5620  0.00  0.00     0.000 OA
ATOM     55   O  SGN C   3      50.187  33.221  26.8410  0.00  0.00     0.000 O
ATOM     56   S  SGN C   3      50.066  34.295  25.6000  0.00  0.00     0.000 S
ENDBRANCH 41 51
BRANCH 37 57
ATOM     57  O4  IDS C   4      48.793  31.360  30.6620  0.00  0.00     0.000 O
BRANCH 57 61
ATOM     58  C1  IDS C   4      47.831  33.510  33.6490  0.00  0.00     0.000 C
ATOM     59  C2  IDS C   4      46.910  32.408  33.2320  0.00  0.00     0.000 C
ATOM     60  C3  IDS C   4      46.787  32.284  31.7110  0.00  0.00     0.000 C
ATOM     61  C4  IDS C   4      48.044  32.568  30.9000  0.00  0.00     0.000 C
ATOM     62  C5  IDS C   4      48.913  33.623  31.5960  0.00  0.00     0.000 C
ATOM     63  O5  IDS C   4      49.070  33.346  32.9800  0.00  0.00     0.000 O
ATOM     64   O  IDS C   4      45.796  33.223  31.3390  0.00  0.00     0.000 O
ATOM     66  HD  IDS C   4      46.145  33.863  30.8710  0.00  0.00     0.000 HD
BRANCH 59 66
ATOM     66   O  IDS C   4      47.376  31.097  33.7220  0.00  0.00     0.000 O
ATOM     67   S  IDS C   4      46.509  30.419  34.8710  0.00  0.00     0.000 S
ATOM     68   O  IDS C   4      45.246  30.162  34.2220  0.00  0.00     0.000 OA
ATOM     69   O  IDS C   4      47.253  29.234  35.2500  0.00  0.00     0.000 OA
ATOM     70   O  IDS C   4      46.374  31.395  35.9410  0.00  0.00     0.000 OA
ENDBRANCH 59 66
BRANCH 62 71
ATOM     71   C  IDS C   4      50.319  33.701  31.0320  0.00  0.00     0.000 C
ATOM     72   O  IDS C   4      51.268  33.358  31.7100  0.00  0.00     0.000 OA
ATOM     73   O  IDS C   4      50.480  34.218  29.9090  0.00  0.00     0.000 OA
ENDBRANCH 62 71
BRANCH 58 74
ATOM     74  O4  SGN C   5      47.261  34.748  33.7000  0.00  0.00     0.000 O
BRANCH 74 78
ATOM     75  C1  SGN C   5      46.997  38.381  35.7430  0.00  0.00     0.000 C
ATOM     76  C2  SGN C   5      48.324  38.114  35.0080  0.00  0.00     0.000 C
ATOM     77  C3  SGN C   5      48.177  36.939  34.0330  0.00  0.00     0.000 C
ATOM     78  C4  SGN C   5      47.508  35.742  34.6950  0.00  0.00     0.000 C
ATOM     79  C5  SGN C   5      46.206  36.183  35.3460  0.00  0.00     0.000 C
ATOM     80  O5  SGN C   5      46.484  37.200  36.3450  0.00  0.00     0.000 O
ATOM     81   O  SGN C   5      49.464  36.583  33.5400  0.00  0.00     0.000 O
ATOM     83  HD  SGN C   5      50.068  37.181  33.3740  0.00  0.00     0.000 HD
BRANCH 76 85
ATOM     83   N  SGN C   5      48.433  39.567  35.1940  0.00  0.00     0.000 N
ATOM     85  HD  SGN C   5      48.638  40.362  34.9190  0.00  0.00     0.000 HD
ATOM     85   S  SGN C   5      49.609  40.570  34.7440  0.00  0.00     0.000 S
ATOM     86   O  SGN C   5      49.280  41.909  35.0890  0.00  0.00     0.000 OA
ATOM     87   O  SGN C   5      50.824  40.050  35.2610  0.00  0.00     0.000 OA
ATOM     88   O  SGN C   5      49.451  40.348  33.2410  0.00  0.00     0.000 OA
ENDBRANCH 76 85
BRANCH 79 89
ATOM     89   C  SGN C   5      45.451  35.052  36.0140  0.00  0.00     0.000 C
ATOM     90   O  SGN C   5      45.873  34.931  37.3950  0.00  0.00     0.000 O
ATOM     91   S  SGN C   5      44.771  34.413  38.4420  0.00  0.00     0.000 S
ATOM     92   O  SGN C   5      43.619  35.259  38.2710  0.00  0.00     0.000 OA
ATOM     93   O  SGN C   5      44.496  33.036  38.1200  0.00  0.00     0.000 OA
ATOM     94   O  SGN C   5      45.421  34.579  39.7130  0.00  0.00     0.000 OA
ENDBRANCH 79 89
BRANCH 75 95
ATOM     95  O4  BDP C   6      46.126  38.826  34.7890  0.00  0.00     0.000 O
BRANCH 95 99
ATOM     96  C1  BDP C   6      42.761  41.488  34.9710  0.00  0.00     0.000 C
ATOM     97  C2  BDP C   6      44.048  41.907  35.6230  0.00  0.00     0.000 C
ATOM     98  C3  BDP C   6      45.274  41.092  35.1870  0.00  0.00     0.000 C
ATOM     99  C4  BDP C   6      44.995  39.597  35.2490  0.00  0.00     0.000 C
ATOM    100  C5  BDP C   6      43.664  39.329  34.5070  0.00  0.00     0.000 C
ATOM    101  O5  BDP C   6      42.705  40.101  35.2470  0.00  0.00     0.000 O
BRANCH 100 102
ATOM    102   C  BDP C   6      43.244  37.882  34.5720  0.00  0.00     0.000 C
ATOM    103   O  BDP C   6      43.294  37.134  33.5850  0.00  0.00     0.000 OA
ATOM    104   O  BDP C   6      42.854  37.462  35.6680  0.00  0.00     0.000 OA
ENDBRANCH 100 102
ENDBRANCH 95 99
ENDBRANCH 75 95
ENDBRANCH 74 78
ENDBRANCH 58 74
ENDBRANCH 57 61
ENDBRANCH 37 57
ENDBRANCH 36 40
ENDBRANCH 23 36
ENDBRANCH 22 26
ENDBRANCH 1 22
TORSDOF 20
ENDMDL
MODEL 55
REMARK VINA RESULT:      -0.2     88.066     92.566
ROOT
ATOM      1  C1  NGY C   1      85.040  71.050  67.6190  0.00  0.00     0.000 C
ATOM      2  C2  NGY C   1      84.563  69.820  68.3810  0.00  0.00     0.000 C
ATOM      3  C3  NGY C   1      83.726  68.927  67.4700  0.00  0.00     0.000 C
ATOM      4  C4  NGY C   1      82.606  69.763  66.8820  0.00  0.00     0.000 C
ATOM      5  C5  NGY C   1      83.218  70.908  66.0800  0.00  0.00     0.000 C
ATOM      6  O5  NGY C   1      83.983  71.742  66.9890  0.00  0.00     0.000 O
ATOM      7   O  NGY C   1      83.233  67.827  68.2210  0.00  0.00     0.000 O
ATOM      9  HD  NGY C   1      82.946  67.681  69.0250  0.00  0.00     0.000 HD
ATOM      9   O  NGY C   1      81.768  68.976  66.0480  0.00  0.00     0.000 O
ATOM     11  HD  NGY C   1      81.481  68.831  66.8520  0.00  0.00     0.000 HD
ENDROOT
BRANCH 2 13
ATOM     11   N  NGY C   1      85.775  69.364  69.0170  0.00  0.00     0.000 N
ATOM     13  HD  NGY C   1      85.427  68.978  69.7100  0.00  0.00     0.000 HD
ATOM     13   C  NGY C   1      85.750  68.691  70.1670  0.00  0.00     0.000 C
ATOM     14   O  NGY C   1      84.704  68.557  70.8030  0.00  0.00     0.000 OA
ATOM     15   C  NGY C   1      87.044  68.089  70.6230  0.00  0.00     0.000 C
ENDBRANCH 2 13
BRANCH 5 16
ATOM     16   C  NGY C   1      82.234  71.823  65.4250  0.00  0.00     0.000 C
ATOM     17   O  NGY C   1      81.301  71.632  61.8820  0.00  0.00     0.000 OA
ATOM     18   O  NGY C   1      82.276  71.608  64.0110  0.00  0.00     0.000 O
ATOM     19   S  NGY C   1      81.032  72.130  63.2070  0.00  0.00     0.000 S
ATOM     20   O  NGY C   1      81.060  73.568  63.2670  0.00  0.00     0.000 OA
ATOM     21   O  NGY C   1      79.886  71.543  63.8810  0.00  0.00     0.000 OA
ENDBRANCH 5 16
BRANCH 1 22
ATOM     22  O4  BDP C   2      86.006  70.676  66.7540  0.00  0.00     0.000 O
BRANCH 22 26
ATOM     23  C1  BDP C   2      89.475  71.446  64.6710  0.00  0.00     0.000 C
ATOM     24  C2  BDP C   2      89.551  71.663  66.1630  0.00  0.00     0.000 C
ATOM     25  C3  BDP C   2      88.369  71.010  66.8310  0.00  0.00     0.000 C
ATOM     26  C4  BDP C   2      87.070  71.487  66.1900  0.00  0.00     0.000 C
ATOM     27  C5  BDP C   2      87.174  71.385  64.6740  0.00  0.00     0.000 C
ATOM     28  O5  BDP C   2      88.302  72.123  64.1380  0.00  0.00     0.000 O
ATOM     29   O  BDP C   2      90.675  71.008  66.7520  0.00  0.00     0.000 O
ATOM     31  HD  BDP C   2      90.559  70.677  67.5440  0.00  0.00     0.000 HD
ATOM     31   O  BDP C   2      88.407  71.389  68.2010  0.00  0.00     0.000 O
ATOM     33  HD  BDP C   2      88.291  71.058  68.9930  0.00  0.00     0.000 HD
BRANCH 27 33
ATOM     33   C  BDP C   2      85.954  71.935  63.9740  0.00  0.00     0.000 C
ATOM     34   O  BDP C   2      85.402  71.329  63.0240  0.00  0.00     0.000 OA
ATOM     35   O  BDP C   2      85.521  73.019  64.3280  0.00  0.00     0.000 OA
ENDBRANCH 27 33
BRANCH 23 36
ATOM     36  O4  SGN C   3      90.549  71.873  63.9670  0.00  0.00     0.000 O
BRANCH 36 40
ATOM     37  C1  SGN C   3      93.317  70.905  60.9960  0.00  0.00     0.000 C
ATOM     38  C2  SGN C   3      91.940  71.420  60.5480  0.00  0.00     0.000 C
ATOM     39  C3  SGN C   3      91.235  72.124  61.6980  0.00  0.00     0.000 C
ATOM     40  C4  SGN C   3      91.142  71.172  62.8710  0.00  0.00     0.000 C
ATOM     41  C5  SGN C   3      92.535  70.700  63.2270  0.00  0.00     0.000 C
ATOM     42  O5  SGN C   3      93.125  70.034  62.1000  0.00  0.00     0.000 O
ATOM     43   O  SGN C   3      89.942  72.537  61.2730  0.00  0.00     0.000 O
ATOM     45  HD  SGN C   3      89.943  72.403  62.1290  0.00  0.00     0.000 HD
BRANCH 38 47
ATOM     45   N  SGN C   3      92.487  70.757  59.3510  0.00  0.00     0.000 N
ATOM     47  HD  SGN C   3      92.241  70.699  60.1790  0.00  0.00     0.000 HD
ATOM     47   S  SGN C   3      92.284  71.631  58.0390  0.00  0.00     0.000 S
ATOM     48   O  SGN C   3      90.909  71.756  57.7080  0.00  0.00     0.000 OA
ATOM     49   O  SGN C   3      93.008  72.843  58.2390  0.00  0.00     0.000 OA
ATOM     50   O  SGN C   3      92.912  70.790  57.0220  0.00  0.00     0.000 OA
ENDBRANCH 38 47
BRANCH 41 51
ATOM     51   C  SGN C   3      92.582  69.745  64.3890  0.00  0.00     0.000 C
ATOM     52   O  SGN C   3      95.293  69.409  66.9220  0.00  0.00     0.000 OA
ATOM     53   O  SGN C   3      92.929  69.126  67.1730  0.00  0.00     0.000 OA
ATOM     54   O  SGN C   3      94.189  67.643  65.7670  0.00  0.00     0.000 OA
ATOM     55   O  SGN C   3      93.761  69.983  65.1270  0.00  0.00     0.000 O
ATOM     56   S  SGN C   3      94.071  68.941  66.3620  0.00  0.00     0.000 S
ENDBRANCH 41 51
BRANCH 37 57
ATOM     57  O4  IDS C   4      94.190  71.873  61.3680  0.00  0.00     0.000 O
BRANCH 57 61
ATOM     58  C1  IDS C   4      97.769  72.745  60.4210  0.00  0.00     0.000 C
ATOM     59  C2  IDS C   4      97.050  71.703  59.6250  0.00  0.00     0.000 C
ATOM     60  C3  IDS C   4      96.194  70.779  60.4960  0.00  0.00     0.000 C
ATOM     61  C4  IDS C   4      95.515  71.416  61.7000  0.00  0.00     0.000 C
ATOM     62  C5  IDS C   4      96.365  72.561  62.2620  0.00  0.00     0.000 C
ATOM     63  O5  IDS C   4      96.830  73.425  61.2350  0.00  0.00     0.000 O
ATOM     64   O  IDS C   4      97.082  69.780  60.9610  0.00  0.00     0.000 O
ATOM     66  HD  IDS C   4      97.192  69.847  61.8180  0.00  0.00     0.000 HD
BRANCH 59 66
ATOM     66   O  IDS C   4      96.137  72.310  58.6370  0.00  0.00     0.000 O
ATOM     67   S  IDS C   4      96.482  72.061  57.1040  0.00  0.00     0.000 S
ATOM     68   O  IDS C   4      96.318  70.634  56.9570  0.00  0.00     0.000 OA
ATOM     69   O  IDS C   4      95.524  72.864  56.3700  0.00  0.00     0.000 OA
ATOM     70   O  IDS C   4      97.865  72.465  56.9030  0.00  0.00     0.000 OA
ENDBRANCH 59 66
BRANCH 62 71
ATOM     71   C  IDS C   4      95.604  73.447  63.2300  0.00  0.00     0.000 C
ATOM     72   O  IDS C   4      95.163  72.984  64.2640  0.00  0.00     0.000 OA
ATOM     73   O  IDS C   4      95.357  74.622  62.8900  0.00  0.00     0.000 OA
ENDBRANCH 62 71
BRANCH 58 74
ATOM     74  O4  SGN C   5      98.952  72.339  60.9650  0.00  0.00     0.000 O
BRANCH 74 78
ATOM     75  C1  SGN C   5     102.865  73.388  61.9770  0.00  0.00     0.000 C
ATOM     76  C2  SGN C   5     101.751  74.063  62.7980  0.00  0.00     0.000 C
ATOM     77  C3  SGN C   5     100.408  73.355  62.5750  0.00  0.00     0.000 C
ATOM     78  C4  SGN C   5     100.129  73.135  61.0950  0.00  0.00     0.000 C
ATOM     79  C5  SGN C   5     101.320  72.438  60.4530  0.00  0.00     0.000 C
ATOM     80  O5  SGN C   5     102.505  73.263  60.6070  0.00  0.00     0.000 O
ATOM     81   O  SGN C   5      99.372  74.132  63.1690  0.00  0.00     0.000 O
ATOM     83  HD  SGN C   5      99.493  74.557  63.9130  0.00  0.00     0.000 HD
BRANCH 76 85
ATOM     83   N  SGN C   5     102.903  74.375  63.6530  0.00  0.00     0.000 N
ATOM     85  HD  SGN C   5     103.299  74.415  64.4220  0.00  0.00     0.000 HD
ATOM     85   S  SGN C   5     102.941  75.060  65.1100  0.00  0.00     0.000 S
ATOM     86   O  SGN C   5     104.277  75.130  65.5920  0.00  0.00     0.000 OA
ATOM     87   O  SGN C   5     102.222  76.280  65.0190  0.00  0.00     0.000 OA
ATOM     88   O  SGN C   5     102.167  73.958  65.8300  0.00  0.00     0.000 OA
ENDBRANCH 76 85
BRANCH 79 89
ATOM     89   C  SGN C   5     101.128  72.152  58.9770  0.00  0.00     0.000 C
ATOM     90   O  SGN C   5     101.597  73.278  58.1950  0.00  0.00     0.000 O
ATOM     91   S  SGN C   5     102.203  72.946  56.7460  0.00  0.00     0.000 S
ATOM     92   O  SGN C   5     103.209  71.936  56.9480  0.00  0.00     0.000 OA
ATOM     93   O  SGN C   5     101.113  72.482  55.9270  0.00  0.00     0.000 OA
ATOM     94   O  SGN C   5     102.739  74.209  56.3150  0.00  0.00     0.000 OA
ENDBRANCH 79 89
BRANCH 75 95
ATOM     95  O4  BDP C   6     103.031  72.147  62.5240  0.00  0.00     0.000 O
BRANCH 95 99
ATOM     96  C1  BDP C   6     106.473  69.603  62.8770  0.00  0.00     0.000 C
ATOM     97  C2  BDP C   6     106.617  71.062  63.2060  0.00  0.00     0.000 C
ATOM     98  C3  BDP C   6     105.286  71.798  63.4220  0.00  0.00     0.000 C
ATOM     99  C4  BDP C   6     104.302  71.501  62.3000  0.00  0.00     0.000 C
ATOM    100  C5  BDP C   6     104.242  69.967  62.1110  0.00  0.00     0.000 C
ATOM    101  O5  BDP C   6     105.593  69.616  61.7690  0.00  0.00     0.000 O
BRANCH 100 102
ATOM    102   C  BDP C   6     103.351  69.557  60.9660  0.00  0.00     0.000 C
ATOM    103   O  BDP C   6     103.582  69.891  59.7950  0.00  0.00     0.000 OA
ATOM    104   O  BDP C   6     102.373  68.852  61.2430  0.00  0.00     0.000 OA
ENDBRANCH 100 102
ENDBRANCH 95 99
ENDBRANCH 75 95
ENDBRANCH 74 78
ENDBRANCH 58 74
ENDBRANCH 57 61
ENDBRANCH 37 57
ENDBRANCH 36 40
ENDBRANCH 23 36
ENDBRANCH 22 26
ENDBRANCH 1 22
TORSDOF 20
ENDMDL
MODEL 56
REMARK VINA RESULT:      -0.2    105.276    112.678
ROOT
ATOM      1  C1  NGY C   1      30.336 100.252 117.0140  0.00  0.00     0.000 C
ATOM      2  C2  NGY C   1      31.523  99.553 117.6610  0.00  0.00     0.000 C
ATOM      3  C3  NGY C   1      31.142  98.133 118.0670  0.00  0.00     0.000 C
ATOM      4  C4  NGY C   1      29.910  98.205 118.9500  0.00  0.00     0.000 C
ATOM      5  C5  NGY C   1      28.777  98.849 118.1570  0.00  0.00     0.000 C
ATOM      6  O5  NGY C   1      29.174 100.202 117.8140  0.00  0.00     0.000 O
ATOM      7   O  NGY C   1      32.241  97.527 118.7330  0.00  0.00     0.000 O
ATOM      9  HD  NGY C   1      32.867  97.770 119.2790  0.00  0.00     0.000 HD
ATOM      9   O  NGY C   1      29.524  96.911 119.3900  0.00  0.00     0.000 O
ATOM     11  HD  NGY C   1      30.151  97.154 119.9360  0.00  0.00     0.000 HD
ENDROOT
BRANCH 2 13
ATOM     11   N  NGY C   1      32.590  99.836 116.7310  0.00  0.00     0.000 N
ATOM     13  HD  NGY C   1      33.258  99.810 117.2810  0.00  0.00     0.000 HD
ATOM     13   C  NGY C   1      33.861  99.906 117.1260  0.00  0.00     0.000 C
ATOM     14   O  NGY C   1      34.158  99.874 118.3210  0.00  0.00     0.000 OA
ATOM     15   C  NGY C   1      34.897  99.997 116.0480  0.00  0.00     0.000 C
ENDBRANCH 2 13
BRANCH 5 16
ATOM     16   C  NGY C   1      27.482  98.982 118.8930  0.00  0.00     0.000 C
ATOM     17   O  NGY C   1      24.653  96.680 118.4990  0.00  0.00     0.000 OA
ATOM     18   O  NGY C   1      26.542  98.056 118.3420  0.00  0.00     0.000 O
ATOM     19   S  NGY C   1      25.299  97.729 119.2460  0.00  0.00     0.000 S
ATOM     20   O  NGY C   1      24.500  98.924 119.3180  0.00  0.00     0.000 OA
ATOM     21   O  NGY C   1      25.870  97.334 120.5230  0.00  0.00     0.000 OA
ENDBRANCH 5 16
BRANCH 1 22
ATOM     22  O4  BDP C   2      30.143  99.732 115.7830  0.00  0.00     0.000 O
BRANCH 22 26
ATOM     23  C1  BDP C   2      29.027 100.124 111.8380  0.00  0.00     0.000 C
ATOM     24  C2  BDP C   2      30.062 101.112 112.3220  0.00  0.00     0.000 C
ATOM     25  C3  BDP C   2      30.639 100.640 113.6310  0.00  0.00     0.000 C
ATOM     26  C4  BDP C   2      29.521 100.357 114.6300  0.00  0.00     0.000 C
ATOM     27  C5  BDP C   2      28.449  99.495 113.9750  0.00  0.00     0.000 C
ATOM     28  O5  BDP C   2      27.909 100.092 112.7690  0.00  0.00     0.000 O
ATOM     29   O  BDP C   2      31.197 101.179 111.4590  0.00  0.00     0.000 O
ATOM     31  HD  BDP C   2      31.965 101.303 111.8380  0.00  0.00     0.000 HD
ATOM     31   O  BDP C   2      31.474 101.684 114.1150  0.00  0.00     0.000 O
ATOM     33  HD  BDP C   2      32.243 101.807 114.4950  0.00  0.00     0.000 HD
BRANCH 27 33
ATOM     33   C  BDP C   2      27.265  99.259 114.8820  0.00  0.00     0.000 C
ATOM     34   O  BDP C   2      26.752  98.123 115.0250  0.00  0.00     0.000 OA
ATOM     35   O  BDP C   2      26.779 100.215 115.4620  0.00  0.00     0.000 OA
ENDBRANCH 27 33
BRANCH 23 36
ATOM     36  O4  SGN C   3      28.526 100.367 110.6050  0.00  0.00     0.000 O
BRANCH 36 40
ATOM     37  C1  SGN C   3      27.004  98.626 107.1290  0.00  0.00     0.000 C
ATOM     38  C2  SGN C   3      26.017  98.927 108.2680  0.00  0.00     0.000 C
ATOM     39  C3  SGN C   3      26.619  99.928 109.2440  0.00  0.00     0.000 C
ATOM     40  C4  SGN C   3      27.937  99.383 109.7510  0.00  0.00     0.000 C
ATOM     41  C5  SGN C   3      28.833  99.094 108.5670  0.00  0.00     0.000 C
ATOM     42  O5  SGN C   3      28.204  98.134 107.7040  0.00  0.00     0.000 O
ATOM     43   O  SGN C   3      25.710 100.142 110.3160  0.00  0.00     0.000 O
ATOM     45  HD  SGN C   3      26.521 100.280 110.5850  0.00  0.00     0.000 HD
BRANCH 38 47
ATOM     45   N  SGN C   3      25.294  97.920 107.4710  0.00  0.00     0.000 N
ATOM     47  HD  SGN C   3      25.979  98.122 107.9600  0.00  0.00     0.000 HD
ATOM     47   S  SGN C   3      23.799  98.363 107.1620  0.00  0.00     0.000 S
ATOM     48   O  SGN C   3      23.020  98.421 108.3480  0.00  0.00     0.000 OA
ATOM     49   O  SGN C   3      23.879  99.560 106.3890  0.00  0.00     0.000 OA
ATOM     50   O  SGN C   3      23.315  97.239 106.3640  0.00  0.00     0.000 OA
ENDBRANCH 38 47
BRANCH 41 51
ATOM     51   C  SGN C   3      30.185  98.549 108.9370  0.00  0.00     0.000 C
ATOM     52   O  SGN C   3      33.412 100.406 109.0540  0.00  0.00     0.000 OA
ATOM     53   O  SGN C   3      32.641  98.604 110.4280  0.00  0.00     0.000 OA
ATOM     54   O  SGN C   3      33.030  98.266 108.0830  0.00  0.00     0.000 OA
ATOM     55   O  SGN C   3      31.126  99.599 108.9010  0.00  0.00     0.000 O
ATOM     56   S  SGN C   3      32.699  99.178 109.1380  0.00  0.00     0.000 S
ENDBRANCH 41 51
BRANCH 37 57
ATOM     57  O4  IDS C   4      27.313  99.693 106.3520  0.00  0.00     0.000 O
BRANCH 57 61
ATOM     58  C1  IDS C   4      27.436 101.605 103.0650  0.00  0.00     0.000 C
ATOM     59  C2  IDS C   4      26.134 101.014 103.5040  0.00  0.00     0.000 C
ATOM     60  C3  IDS C   4      26.294  99.627 104.1310  0.00  0.00     0.000 C
ATOM     61  C4  IDS C   4      27.549  99.396 104.9620  0.00  0.00     0.000 C
ATOM     62  C5  IDS C   4      28.721 100.219 104.4160  0.00  0.00     0.000 C
ATOM     63  O5  IDS C   4      28.344 101.563 104.1530  0.00  0.00     0.000 O
ATOM     64   O  IDS C   4      26.310  98.725 103.0400  0.00  0.00     0.000 O
ATOM     66  HD  IDS C   4      27.090  98.356 102.9630  0.00  0.00     0.000 HD
BRANCH 59 66
ATOM     66   O  IDS C   4      25.471 101.857 104.5180  0.00  0.00     0.000 O
ATOM     67   S  IDS C   4      24.147 102.612 104.0590  0.00  0.00     0.000 S
ATOM     68   O  IDS C   4      23.228 101.532 103.7930  0.00  0.00     0.000 OA
ATOM     69   O  IDS C   4      23.790 103.455 105.1830  0.00  0.00     0.000 OA
ATOM     70   O  IDS C   4      24.472 103.352 102.8490  0.00  0.00     0.000 OA
ENDBRANCH 59 66
BRANCH 62 71
ATOM     71   C  IDS C   4      29.888 100.304 105.3820  0.00  0.00     0.000 C
ATOM     72   O  IDS C   4      30.607  99.339 105.5560  0.00  0.00     0.000 OA
ATOM     73   O  IDS C   4      30.024 101.342 106.0590  0.00  0.00     0.000 OA
ENDBRANCH 62 71
BRANCH 58 74
ATOM     74  O4  SGN C   5      27.858 101.212 101.8290  0.00  0.00     0.000 O
BRANCH 74 78
ATOM     75  C1  SGN C   5      29.551 102.380  98.1950  0.00  0.00     0.000 C
ATOM     76  C2  SGN C   5      30.522 102.257  99.3840  0.00  0.00     0.000 C
ATOM     77  C3  SGN C   5      29.863 101.505 100.5480  0.00  0.00     0.000 C
ATOM     78  C4  SGN C   5      28.474 102.050 100.8510  0.00  0.00     0.000 C
ATOM     79  C5  SGN C   5      27.648 102.077  99.5740  0.00  0.00     0.000 C
ATOM     80  O5  SGN C   5      28.300 102.926  98.5930  0.00  0.00     0.000 O
ATOM     81   O  SGN C   5      30.700 101.603 101.6950  0.00  0.00     0.000 O
ATOM     83  HD  SGN C   5      31.563 101.584 101.6300  0.00  0.00     0.000 HD
BRANCH 76 85
ATOM     83   N  SGN C   5      31.978 102.447  99.4320  0.00  0.00     0.000 N
ATOM     85  HD  SGN C   5      32.734 102.670  99.0740  0.00  0.00     0.000 HD
ATOM     85   S  SGN C   5      33.090 102.105  98.3190  0.00  0.00     0.000 S
ATOM     86   O  SGN C   5      34.381 102.496  98.7690  0.00  0.00     0.000 OA
ATOM     87   O  SGN C   5      32.918 100.743  97.9580  0.00  0.00     0.000 OA
ATOM     88   O  SGN C   5      32.572 103.077  97.2620  0.00  0.00     0.000 OA
ENDBRANCH 76 85
BRANCH 79 89
ATOM     89   C  SGN C   5      26.235 102.583  99.7780  0.00  0.00     0.000 C
ATOM     90   O  SGN C   5      25.695 103.051  98.5180  0.00  0.00     0.000 O
ATOM     91   S  SGN C   5      24.112 102.895  98.3090  0.00  0.00     0.000 S
ATOM     92   O  SGN C   5      23.800 101.517  98.5850  0.00  0.00     0.000 OA
ATOM     93   O  SGN C   5      23.472 103.799  99.2300  0.00  0.00     0.000 OA
ATOM     94   O  SGN C   5      23.922 103.260  96.9320  0.00  0.00     0.000 OA
ENDBRANCH 79 89
BRANCH 75 95
ATOM     95  O4  BDP C   6      29.370 101.109  97.7300  0.00  0.00     0.000 O
BRANCH 95 99
ATOM     96  C1  BDP C   6      29.048  99.929  93.6120  0.00  0.00     0.000 C
ATOM     97  C2  BDP C   6      29.527 101.318  93.9300  0.00  0.00     0.000 C
ATOM     98  C3  BDP C   6      29.971 101.517  95.3870  0.00  0.00     0.000 C
ATOM     99  C4  BDP C   6      28.935 100.972  96.3590  0.00  0.00     0.000 C
ATOM    100  C5  BDP C   6      28.576  99.534  95.9180  0.00  0.00     0.000 C
ATOM    101  O5  BDP C   6      28.051  99.710  94.5930  0.00  0.00     0.000 O
BRANCH 100 102
ATOM    102   C  BDP C   6      27.494  98.918  96.7690  0.00  0.00     0.000 C
ATOM    103   O  BDP C   6      26.491  99.552  97.1260  0.00  0.00     0.000 OA
ATOM    104   O  BDP C   6      27.643  97.733  97.0910  0.00  0.00     0.000 OA
ENDBRANCH 100 102
ENDBRANCH 95 99
ENDBRANCH 75 95
ENDBRANCH 74 78
ENDBRANCH 58 74
ENDBRANCH 57 61
ENDBRANCH 37 57
ENDBRANCH 36 40
ENDBRANCH 23 36
ENDBRANCH 22 26
ENDBRANCH 1 22
TORSDOF 20
ENDMDL
MODEL 57
REMARK VINA RESULT:      -0.2     41.482     46.856
ROOT
ATOM      1  C1  NGY C   1      29.879   8.333  82.6160  0.00  0.00     0.000 C
ATOM      2  C2  NGY C   1      30.136   6.843  82.4370  0.00  0.00     0.000 C
ATOM      3  C3  NGY C   1      29.940   6.445  80.9780  0.00  0.00     0.000 C
ATOM      4  C4  NGY C   1      28.556   6.889  80.5450  0.00  0.00     0.000 C
ATOM      5  C5  NGY C   1      28.459   8.405  80.6970  0.00  0.00     0.000 C
ATOM      6  O5  NGY C   1      28.628   8.733  82.1000  0.00  0.00     0.000 O
ATOM      7   O  NGY C   1      30.114   5.041  80.8500  0.00  0.00     0.000 O
ATOM      9  HD  NGY C   1      29.937   4.332  81.3150  0.00  0.00     0.000 HD
ATOM      9   O  NGY C   1      28.299   6.516  79.2000  0.00  0.00     0.000 O
ATOM     11  HD  NGY C   1      28.123   5.807  79.6650  0.00  0.00     0.000 HD
ENDROOT
BRANCH 2 13
ATOM     11   N  NGY C   1      31.398   6.656  83.1140  0.00  0.00     0.000 N
ATOM     13  HD  NGY C   1      31.295   5.834  83.3660  0.00  0.00     0.000 HD
ATOM     13   C  NGY C   1      31.714   5.500  83.6950  0.00  0.00     0.000 C
ATOM     14   O  NGY C   1      30.887   4.593  83.8010  0.00  0.00     0.000 OA
ATOM     15   C  NGY C   1      33.124   5.355  84.1800  0.00  0.00     0.000 C
ENDBRANCH 2 13
BRANCH 5 16
ATOM     16   C  NGY C   1      27.147   9.001  80.2970  0.00  0.00     0.000 C
ATOM     17   O  NGY C   1      26.648  11.026  77.2800  0.00  0.00     0.000 OA
ATOM     18   O  NGY C   1      27.362   9.896  79.2030  0.00  0.00     0.000 O
ATOM     19   S  NGY C   1      26.085  10.266  78.3660  0.00  0.00     0.000 S
ATOM     20   O  NGY C   1      25.239  11.066  79.2130  0.00  0.00     0.000 OA
ATOM     21   O  NGY C   1      25.500   8.986  78.0040  0.00  0.00     0.000 OA
ENDBRANCH 5 16
BRANCH 1 22
ATOM     22  O4  BDP C   2      30.908   9.019  82.0760  0.00  0.00     0.000 O
BRANCH 22 26
ATOM     23  C1  BDP C   2      33.523  12.201  82.1320  0.00  0.00     0.000 C
ATOM     24  C2  BDP C   2      33.360  11.470  83.4440  0.00  0.00     0.000 C
ATOM     25  C3  BDP C   2      32.687  10.144  83.2040  0.00  0.00     0.000 C
ATOM     26  C4  BDP C   2      31.389  10.343  82.4280  0.00  0.00     0.000 C
ATOM     27  C5  BDP C   2      31.640  11.238  81.2220  0.00  0.00     0.000 C
ATOM     28  O5  BDP C   2      32.212  12.521  81.5850  0.00  0.00     0.000 O
ATOM     29   O  BDP C   2      34.613  11.112  84.0260  0.00  0.00     0.000 O
ATOM     31  HD  BDP C   2      34.642  10.356  84.4480  0.00  0.00     0.000 HD
ATOM     31   O  BDP C   2      32.411   9.584  84.4820  0.00  0.00     0.000 O
ATOM     33  HD  BDP C   2      32.440   8.828  84.9040  0.00  0.00     0.000 HD
BRANCH 27 33
ATOM     33   C  BDP C   2      30.373  11.555  80.4640  0.00  0.00     0.000 C
ATOM     34   O  BDP C   2      29.328  11.935  81.0440  0.00  0.00     0.000 OA
ATOM     35   O  BDP C   2      30.367  11.400  79.2540  0.00  0.00     0.000 OA
ENDBRANCH 27 33
BRANCH 23 36
ATOM     36  O4  SGN C   3      34.233  13.351  82.1940  0.00  0.00     0.000 O
BRANCH 36 40
ATOM     37  C1  SGN C   3      37.049  15.747  80.2550  0.00  0.00     0.000 C
ATOM     38  C2  SGN C   3      35.574  15.915  79.8570  0.00  0.00     0.000 C
ATOM     39  C3  SGN C   3      34.664  15.321  80.9230  0.00  0.00     0.000 C
ATOM     40  C4  SGN C   3      35.043  13.872  81.1370  0.00  0.00     0.000 C
ATOM     41  C5  SGN C   3      36.510  13.800  81.5010  0.00  0.00     0.000 C
ATOM     42  O5  SGN C   3      37.300  14.363  80.4420  0.00  0.00     0.000 O
ATOM     43   O  SGN C   3      33.311  15.437  80.5010  0.00  0.00     0.000 O
ATOM     45  HD  SGN C   3      33.397  14.758  81.0310  0.00  0.00     0.000 HD
BRANCH 38 47
ATOM     45   N  SGN C   3      36.228  16.451  78.6500  0.00  0.00     0.000 N
ATOM     47  HD  SGN C   3      36.053  15.769  79.1540  0.00  0.00     0.000 HD
ATOM     47   S  SGN C   3      35.710  17.910  78.2880  0.00  0.00     0.000 S
ATOM     48   O  SGN C   3      34.343  17.893  77.9040  0.00  0.00     0.000 OA
ATOM     49   O  SGN C   3      36.056  18.751  79.3870  0.00  0.00     0.000 OA
ATOM     50   O  SGN C   3      36.503  18.221  77.1010  0.00  0.00     0.000 OA
ENDBRANCH 38 47
BRANCH 41 51
ATOM     51   C  SGN C   3      37.016  12.404  81.7460  0.00  0.00     0.000 C
ATOM     52   O  SGN C   3      38.740  11.134  84.7940  0.00  0.00     0.000 OA
ATOM     53   O  SGN C   3      37.235  10.006  83.3130  0.00  0.00     0.000 OA
ATOM     54   O  SGN C   3      39.377  10.758  82.5300  0.00  0.00     0.000 OA
ATOM     55   O  SGN C   3      37.558  12.338  83.0460  0.00  0.00     0.000 O
ATOM     56   S  SGN C   3      38.297  10.927  83.4570  0.00  0.00     0.000 S
ENDBRANCH 41 51
BRANCH 37 57
ATOM     57  O4  IDS C   4      37.407  16.400  81.3890  0.00  0.00     0.000 O
BRANCH 57 61
ATOM     58  C1  IDS C   4      40.214  18.626  82.6660  0.00  0.00     0.000 C
ATOM     59  C2  IDS C   4      40.072  18.425  81.1910  0.00  0.00     0.000 C
ATOM     60  C3  IDS C   4      39.712  16.983  80.8220  0.00  0.00     0.000 C
ATOM     61  C4  IDS C   4      38.785  16.247  81.7790  0.00  0.00     0.000 C
ATOM     62  C5  IDS C   4      39.002  16.723  83.2200  0.00  0.00     0.000 C
ATOM     63  O5  IDS C   4      39.046  18.140  83.3060  0.00  0.00     0.000 O
ATOM     64   O  IDS C   4      40.946  16.291  80.7760  0.00  0.00     0.000 O
ATOM     66  HD  IDS C   4      40.990  15.708  81.4150  0.00  0.00     0.000 HD
BRANCH 59 66
ATOM     66   O  IDS C   4      39.009  19.279  80.6270  0.00  0.00     0.000 O
ATOM     67   S  IDS C   4      39.445  20.288  79.4760  0.00  0.00     0.000 S
ATOM     68   O  IDS C   4      39.846  19.410  78.4030  0.00  0.00     0.000 OA
ATOM     69   O  IDS C   4      38.261  21.080  79.2070  0.00  0.00     0.000 OA
ATOM     70   O  IDS C   4      40.567  21.061  79.9840  0.00  0.00     0.000 OA
ENDBRANCH 59 66
BRANCH 62 71
ATOM     71   C  IDS C   4      37.894  16.291  84.1630  0.00  0.00     0.000 C
ATOM     72   O  IDS C   4      36.959  17.036  84.3870  0.00  0.00     0.000 OA
ATOM     73   O  IDS C   4      38.021  15.211  84.7730  0.00  0.00     0.000 OA
ENDBRANCH 62 71
BRANCH 58 74
ATOM     74  O4  SGN C   5      41.436  18.302  83.1760  0.00  0.00     0.000 O
BRANCH 74 78
ATOM     75  C1  SGN C   5      44.260  19.006  86.1720  0.00  0.00     0.000 C
ATOM     76  C2  SGN C   5      42.994  18.240  86.6030  0.00  0.00     0.000 C
ATOM     77  C3  SGN C   5      42.214  17.750  85.3760  0.00  0.00     0.000 C
ATOM     78  C4  SGN C   5      42.026  18.860  84.3500  0.00  0.00     0.000 C
ATOM     79  C5  SGN C   5      43.375  19.484  84.0270  0.00  0.00     0.000 C
ATOM     80  O5  SGN C   5      43.958  20.034  85.2380  0.00  0.00     0.000 O
ATOM     81   O  SGN C   5      40.952  17.246  85.8030  0.00  0.00     0.000 O
ATOM     83  HD  SGN C   5      40.865  16.810  86.5460  0.00  0.00     0.000 HD
BRANCH 76 85
ATOM     83   N  SGN C   5      43.584  17.173  87.4210  0.00  0.00     0.000 N
ATOM     85  HD  SGN C   5      43.568  16.618  88.0850  0.00  0.00     0.000 HD
ATOM     85   S  SGN C   5      43.587  16.995  89.0210  0.00  0.00     0.000 S
ATOM     86   O  SGN C   5      44.239  15.785  89.3850  0.00  0.00     0.000 OA
ATOM     87   O  SGN C   5      44.099  18.196  89.5760  0.00  0.00     0.000 OA
ATOM     88   O  SGN C   5      42.074  16.858  89.1750  0.00  0.00     0.000 OA
ENDBRANCH 76 85
BRANCH 79 89
ATOM     89   C  SGN C   5      43.297  20.588  82.9920  0.00  0.00     0.000 C
ATOM     90   O  SGN C   5      43.550  21.868  83.6210  0.00  0.00     0.000 O
ATOM     91   S  SGN C   5      44.261  22.988  82.7170  0.00  0.00     0.000 S
ATOM     92   O  SGN C   5      45.445  22.379  82.1710  0.00  0.00     0.000 OA
ATOM     93   O  SGN C   5      43.318  23.369  81.6970  0.00  0.00     0.000 OA
ATOM     94   O  SGN C   5      44.539  24.042  83.6550  0.00  0.00     0.000 OA
ENDBRANCH 79 89
BRANCH 75 95
ATOM     95  O4  BDP C   6      45.075  18.079  85.5880  0.00  0.00     0.000 O
BRANCH 95 99
ATOM     96  C1  BDP C   6      49.360  17.822  85.4570  0.00  0.00     0.000 C
ATOM     97  C2  BDP C   6      48.708  18.387  86.6880  0.00  0.00     0.000 C
ATOM     98  C3  BDP C   6      47.206  18.089  86.8030  0.00  0.00     0.000 C
ATOM     99  C4  BDP C   6      46.479  18.406  85.5040  0.00  0.00     0.000 C
ATOM    100  C5  BDP C   6      47.250  17.728  84.3470  0.00  0.00     0.000 C
ATOM    101  O5  BDP C   6      48.552  18.331  84.4120  0.00  0.00     0.000 O
BRANCH 100 102
ATOM    102   C  BDP C   6      46.661  18.041  82.9950  0.00  0.00     0.000 C
ATOM    103   O  BDP C   6      46.288  17.153  82.2140  0.00  0.00     0.000 OA
ATOM    104   O  BDP C   6      46.552  19.236  82.6950  0.00  0.00     0.000 OA
ENDBRANCH 100 102
ENDBRANCH 95 99
ENDBRANCH 75 95
ENDBRANCH 74 78
ENDBRANCH 58 74
ENDBRANCH 57 61
ENDBRANCH 37 57
ENDBRANCH 36 40
ENDBRANCH 23 36
ENDBRANCH 22 26
ENDBRANCH 1 22
TORSDOF 20
ENDMDL
MODEL 58
REMARK VINA RESULT:      -0.1     45.302     53.290
ROOT
ATOM      1  C1  NGY C   1      71.972  23.035  18.2550  0.00  0.00     0.000 C
ATOM      2  C2  NGY C   1      72.846  21.869  17.8180  0.00  0.00     0.000 C
ATOM      3  C3  NGY C   1      71.985  20.753  17.2350  0.00  0.00     0.000 C
ATOM      4  C4  NGY C   1      70.928  20.383  18.2580  0.00  0.00     0.000 C
ATOM      5  C5  NGY C   1      70.073  21.614  18.5450  0.00  0.00     0.000 C
ATOM      6  O5  NGY C   1      70.928  22.638  19.1190  0.00  0.00     0.000 O
ATOM      7   O  NGY C   1      72.815  19.649  16.9020  0.00  0.00     0.000 O
ATOM      9  HD  NGY C   1      73.519  19.261  17.2230  0.00  0.00     0.000 HD
ATOM      9   O  NGY C   1      70.112  19.322  17.7850  0.00  0.00     0.000 O
ATOM     11  HD  NGY C   1      70.817  18.934  18.1070  0.00  0.00     0.000 HD
ENDROOT
BRANCH 2 13
ATOM     11   N  NGY C   1      73.882  22.528  17.0580  0.00  0.00     0.000 N
ATOM     13  HD  NGY C   1      74.524  21.962  17.1860  0.00  0.00     0.000 HD
ATOM     13   C  NGY C   1      75.107  22.016  16.9570  0.00  0.00     0.000 C
ATOM     14   O  NGY C   1      75.445  21.037  17.6230  0.00  0.00     0.000 OA
ATOM     15   C  NGY C   1      76.032  22.674  15.9780  0.00  0.00     0.000 C
ENDBRANCH 2 13
BRANCH 5 16
ATOM     16   C  NGY C   1      68.972  21.406  19.5350  0.00  0.00     0.000 C
ATOM     17   O  NGY C   1      69.294  22.071  23.1290  0.00  0.00     0.000 OA
ATOM     18   O  NGY C   1      69.506  21.554  20.8540  0.00  0.00     0.000 O
ATOM     19   S  NGY C   1      68.451  21.815  21.9890  0.00  0.00     0.000 S
ATOM     20   O  NGY C   1      67.679  20.609  22.1380  0.00  0.00     0.000 OA
ATOM     21   O  NGY C   1      67.673  22.947  21.5120  0.00  0.00     0.000 OA
ENDBRANCH 5 16
BRANCH 1 22
ATOM     22  O4  BDP C   2      71.521  23.677  17.1570  0.00  0.00     0.000 O
BRANCH 22 26
ATOM     23  C1  BDP C   2      70.293  27.091  15.2080  0.00  0.00     0.000 C
ATOM     24  C2  BDP C   2      71.707  27.118  15.7380  0.00  0.00     0.000 C
ATOM     25  C3  BDP C   2      72.143  25.720  16.0880  0.00  0.00     0.000 C
ATOM     26  C4  BDP C   2      71.131  25.069  17.0240  0.00  0.00     0.000 C
ATOM     27  C5  BDP C   2      69.723  25.255  16.4740  0.00  0.00     0.000 C
ATOM     28  O5  BDP C   2      69.386  26.650  16.2570  0.00  0.00     0.000 O
ATOM     29   O  BDP C   2      72.652  27.528  14.7490  0.00  0.00     0.000 O
ATOM     31  HD  BDP C   2      73.428  27.147  14.7740  0.00  0.00     0.000 HD
ATOM     31   O  BDP C   2      73.406  25.829  16.7320  0.00  0.00     0.000 O
ATOM     33  HD  BDP C   2      74.183  25.447  16.7570  0.00  0.00     0.000 HD
BRANCH 27 33
ATOM     33   C  BDP C   2      68.663  24.718  17.4060  0.00  0.00     0.000 C
ATOM     34   O  BDP C   2      67.760  23.943  17.0100  0.00  0.00     0.000 OA
ATOM     35   O  BDP C   2      68.675  25.083  18.5700  0.00  0.00     0.000 OA
ENDBRANCH 27 33
BRANCH 23 36
ATOM     36  O4  SGN C   3      69.829  28.271  14.7350  0.00  0.00     0.000 O
BRANCH 36 40
ATOM     37  C1  SGN C   3      67.562  30.119  11.7560  0.00  0.00     0.000 C
ATOM     38  C2  SGN C   3      66.814  29.545  12.9700  0.00  0.00     0.000 C
ATOM     39  C3  SGN C   3      67.774  29.316  14.1270  0.00  0.00     0.000 C
ATOM     40  C4  SGN C   3      68.895  28.413  13.6600  0.00  0.00     0.000 C
ATOM     41  C5  SGN C   3      69.558  29.042  12.4540  0.00  0.00     0.000 C
ATOM     42  O5  SGN C   3      68.594  29.210  11.4040  0.00  0.00     0.000 O
ATOM     43   O  SGN C   3      67.068  28.731  15.2140  0.00  0.00     0.000 O
ATOM     45  HD  SGN C   3      67.901  28.498  15.2450  0.00  0.00     0.000 HD
BRANCH 38 47
ATOM     45   N  SGN C   3      65.699  29.523  12.0050  0.00  0.00     0.000 N
ATOM     47  HD  SGN C   3      66.455  29.192  12.2690  0.00  0.00     0.000 HD
ATOM     47   S  SGN C   3      64.448  30.357  12.5200  0.00  0.00     0.000 S
ATOM     48   O  SGN C   3      63.862  29.758  13.6660  0.00  0.00     0.000 OA
ATOM     49   O  SGN C   3      64.885  31.708  12.6560  0.00  0.00     0.000 OA
ATOM     50   O  SGN C   3      63.511  30.203  11.4080  0.00  0.00     0.000 OA
ENDBRANCH 38 47
BRANCH 41 51
ATOM     51   C  SGN C   3      70.700  28.240  11.8920  0.00  0.00     0.000 C
ATOM     52   O  SGN C   3      74.169  29.422  11.2190  0.00  0.00     0.000 OA
ATOM     53   O  SGN C   3      73.404  27.269  11.9360  0.00  0.00     0.000 OA
ATOM     54   O  SGN C   3      72.797  28.118   9.7730  0.00  0.00     0.000 OA
ATOM     55   O  SGN C   3      71.850  29.055  11.8450  0.00  0.00     0.000 O
ATOM     56   S  SGN C   3      73.178  28.404  11.1250  0.00  0.00     0.000 S
ENDBRANCH 41 51
BRANCH 37 57
ATOM     57  O4  IDS C   4      68.122  31.337  11.9600  0.00  0.00     0.000 O
BRANCH 57 61
ATOM     58  C1  IDS C   4      68.229  34.579   9.9720  0.00  0.00     0.000 C
ATOM     59  C2  IDS C   4      67.320  33.483   9.5110  0.00  0.00     0.000 C
ATOM     60  C3  IDS C   4      67.953  32.096   9.6420  0.00  0.00     0.000 C
ATOM     61  C4  IDS C   4      68.860  31.871  10.8440  0.00  0.00     0.000 C
ATOM     62  C5  IDS C   4      69.578  33.169  11.2330  0.00  0.00     0.000 C
ATOM     63  O5  IDS C   4      68.684  34.272  11.2790  0.00  0.00     0.000 O
ATOM     64   O  IDS C   4      68.721  31.924   8.4660  0.00  0.00     0.000 O
ATOM     66  HD  IDS C   4      69.566  31.902   8.6560  0.00  0.00     0.000 HD
BRANCH 59 66
ATOM     66   O  IDS C   4      66.071  33.449  10.2950  0.00  0.00     0.000 O
ATOM     67   S  IDS C   4      64.723  33.729   9.4970  0.00  0.00     0.000 S
ATOM     68   O  IDS C   4      64.641  32.611   8.5880  0.00  0.00     0.000 OA
ATOM     69   O  IDS C   4      63.689  33.769  10.5120  0.00  0.00     0.000 OA
ATOM     70   O  IDS C   4      64.898  34.986   8.7860  0.00  0.00     0.000 OA
ENDBRANCH 59 66
BRANCH 62 71
ATOM     71   C  IDS C   4      70.220  33.105  12.6060  0.00  0.00     0.000 C
ATOM     72   O  IDS C   4      71.124  32.322  12.8210  0.00  0.00     0.000 OA
ATOM     73   O  IDS C   4      69.729  33.794  13.5230  0.00  0.00     0.000 OA
ENDBRANCH 62 71
BRANCH 58 74
ATOM     74  O4  SGN C   5      69.123  35.015   9.0400  0.00  0.00     0.000 O
BRANCH 74 78
ATOM     75  C1  SGN C   5      71.000  38.325   7.3180  0.00  0.00     0.000 C
ATOM     76  C2  SGN C   5      71.644  37.777   8.6060  0.00  0.00     0.000 C
ATOM     77  C3  SGN C   5      71.086  36.387   8.9430  0.00  0.00     0.000 C
ATOM     78  C4  SGN C   5      69.566  36.362   8.8730  0.00  0.00     0.000 C
ATOM     79  C5  SGN C   5      69.110  36.912   7.5300  0.00  0.00     0.000 C
ATOM     80  O5  SGN C   5      69.581  38.277   7.3800  0.00  0.00     0.000 O
ATOM     81   O  SGN C   5      71.534  36.012  10.2410  0.00  0.00     0.000 O
ATOM     83  HD  SGN C   5      72.326  36.217  10.5260  0.00  0.00     0.000 HD
BRANCH 76 85
ATOM     83   N  SGN C   5      72.845  38.243   9.3100  0.00  0.00     0.000 N
ATOM     85  HD  SGN C   5      73.512  38.786   9.4130  0.00  0.00     0.000 HD
ATOM     85   S  SGN C   5      74.235  38.791   8.7090  0.00  0.00     0.000 S
ATOM     86   O  SGN C   5      75.112  39.178   9.7590  0.00  0.00     0.000 OA
ATOM     87   O  SGN C   5      74.711  37.814   7.7970  0.00  0.00     0.000 OA
ATOM     88   O  SGN C   5      73.645  40.019   8.0210  0.00  0.00     0.000 OA
ENDBRANCH 76 85
BRANCH 79 89
ATOM     89   C  SGN C   5      67.605  36.905   7.3540  0.00  0.00     0.000 C
ATOM     90   O  SGN C   5      67.272  37.194   5.9740  0.00  0.00     0.000 O
ATOM     91   S  SGN C   5      65.936  36.517   5.3970  0.00  0.00     0.000 S
ATOM     92   O  SGN C   5      66.043  35.108   5.6730  0.00  0.00     0.000 OA
ATOM     93   O  SGN C   5      64.823  37.127   6.0790  0.00  0.00     0.000 OA
ATOM     94   O  SGN C   5      65.984  36.831   3.9950  0.00  0.00     0.000 OA
ENDBRANCH 79 89
BRANCH 75 95
ATOM     95  O4  BDP C   6      71.443  37.517   6.3090  0.00  0.00     0.000 O
BRANCH 95 99
ATOM     96  C1  BDP C   6      71.186  38.093   2.0600  0.00  0.00     0.000 C
ATOM     97  C2  BDP C   6      71.200  39.302   2.9530  0.00  0.00     0.000 C
ATOM     98  C3  BDP C   6      71.673  39.025   4.3880  0.00  0.00     0.000 C
ATOM     99  C4  BDP C   6      70.964  37.815   4.9790  0.00  0.00     0.000 C
ATOM    100  C5  BDP C   6      71.069  36.655   3.9620  0.00  0.00     0.000 C
ATOM    101  O5  BDP C   6      70.406  37.169   2.7960  0.00  0.00     0.000 O
BRANCH 100 102
ATOM    102   C  BDP C   6      70.331  35.420   4.4100  0.00  0.00     0.000 C
ATOM    103   O  BDP C   6      70.881  34.519   5.0590  0.00  0.00     0.000 OA
ATOM    104   O  BDP C   6      69.133  35.345   4.1110  0.00  0.00     0.000 OA
ENDBRANCH 100 102
ENDBRANCH 95 99
ENDBRANCH 75 95
ENDBRANCH 74 78
ENDBRANCH 58 74
ENDBRANCH 57 61
ENDBRANCH 37 57
ENDBRANCH 36 40
ENDBRANCH 23 36
ENDBRANCH 22 26
ENDBRANCH 1 22
TORSDOF 20
ENDMDL
MODEL 59
REMARK VINA RESULT:      -0.1    119.827    126.074
ROOT
ATOM      1  C1  NGY C   1      95.662 100.926 111.1780  0.00  0.00     0.000 C
ATOM      2  C2  NGY C   1      95.082 102.314 110.9410  0.00  0.00     0.000 C
ATOM      3  C3  NGY C   1      96.197 103.304 110.6170  0.00  0.00     0.000 C
ATOM      4  C4  NGY C   1      97.223 103.245 111.7320  0.00  0.00     0.000 C
ATOM      5  C5  NGY C   1      97.783 101.828 111.8090  0.00  0.00     0.000 C
ATOM      6  O5  NGY C   1      96.695 100.927 112.1410  0.00  0.00     0.000 O
ATOM      7   O  NGY C   1      95.639 104.602 110.4720  0.00  0.00     0.000 O
ATOM      9  HD  NGY C   1      95.006 105.068 110.8350  0.00  0.00     0.000 HD
ATOM      9   O  NGY C   1      98.274 104.174 111.5050  0.00  0.00     0.000 O
ATOM     11  HD  NGY C   1      97.641 104.639 111.8680  0.00  0.00     0.000 HD
ENDROOT
BRANCH 2 13
ATOM     11   N  NGY C   1      93.997 102.041 110.0280  0.00  0.00     0.000 N
ATOM     13  HD  NGY C   1      93.476 102.700 110.2390  0.00  0.00     0.000 HD
ATOM     13   C  NGY C   1      92.914 102.815 109.9810  0.00  0.00     0.000 C
ATOM     14   O  NGY C   1      92.732 103.707 110.8110  0.00  0.00     0.000 OA
ATOM     15   C  NGY C   1      91.954 102.561 108.8590  0.00  0.00     0.000 C
ENDBRANCH 2 13
BRANCH 5 16
ATOM     16   C  NGY C   1      98.822 101.611 112.8620  0.00  0.00     0.000 C
ATOM     17   O  NGY C   1     102.430 101.562 112.2020  0.00  0.00     0.000 OA
ATOM     18   O  NGY C   1     100.092 101.438 112.2260  0.00  0.00     0.000 O
ATOM     19   S  NGY C   1     101.347 101.644 113.1480  0.00  0.00     0.000 S
ATOM     20   O  NGY C   1     101.363 100.560 114.0950  0.00  0.00     0.000 OA
ATOM     21   O  NGY C   1     101.142 102.947 113.7600  0.00  0.00     0.000 OA
ENDBRANCH 5 16
BRANCH 1 22
ATOM     22  O4  BDP C   2      96.057 100.412 109.9940  0.00  0.00     0.000 O
BRANCH 22 26
ATOM     23  C1  BDP C   2      96.608  97.214 107.4570  0.00  0.00     0.000 C
ATOM     24  C2  BDP C   2      95.222  97.347 108.0440  0.00  0.00     0.000 C
ATOM     25  C3  BDP C   2      95.054  98.721 108.6380  0.00  0.00     0.000 C
ATOM     26  C4  BDP C   2      96.185  99.015 109.6180  0.00  0.00     0.000 C
ATOM     27  C5  BDP C   2      97.525  98.680 108.9770  0.00  0.00     0.000 C
ATOM     28  O5  BDP C   2      97.599  97.305 108.5190  0.00  0.00     0.000 O
ATOM     29   O  BDP C   2      94.201  97.283 107.0490  0.00  0.00     0.000 O
ATOM     31  HD  BDP C   2      93.507  97.786 107.1730  0.00  0.00     0.000 HD
ATOM     31   O  BDP C   2      93.805  98.728 109.3160  0.00  0.00     0.000 O
ATOM     33  HD  BDP C   2      93.111  99.231 109.4400  0.00  0.00     0.000 HD
BRANCH 27 33
ATOM     33   C  BDP C   2      98.682  98.856 109.9310  0.00  0.00     0.000 C
ATOM     34   O  BDP C   2      98.667  98.380 111.0910  0.00  0.00     0.000 OA
ATOM     35   O  BDP C   2      99.642  99.514 109.5640  0.00  0.00     0.000 OA
ENDBRANCH 27 33
BRANCH 23 36
ATOM     36  O4  SGN C   3      96.841  96.068 106.7770  0.00  0.00     0.000 O
BRANCH 36 40
ATOM     37  C1  SGN C   3      98.700  94.367 103.4480  0.00  0.00     0.000 C
ATOM     38  C2  SGN C   3      99.563  94.624 104.6940  0.00  0.00     0.000 C
ATOM     39  C3  SGN C   3      98.683  94.821 105.9190  0.00  0.00     0.000 C
ATOM     40  C4  SGN C   3      97.710  95.948 105.6470  0.00  0.00     0.000 C
ATOM     41  C5  SGN C   3      96.923  95.622 104.3970  0.00  0.00     0.000 C
ATOM     42  O5  SGN C   3      97.820  95.468 103.2860  0.00  0.00     0.000 O
ATOM     43   O  SGN C   3      99.503  95.116 107.0430  0.00  0.00     0.000 O
ATOM     45  HD  SGN C   3      98.719  95.468 107.1500  0.00  0.00     0.000 HD
BRANCH 38 47
ATOM     45   N  SGN C   3     100.575  94.527 103.6270  0.00  0.00     0.000 N
ATOM     47  HD  SGN C   3      99.896  94.945 103.9650  0.00  0.00     0.000 HD
ATOM     47   S  SGN C   3     101.754  93.532 104.0110  0.00  0.00     0.000 S
ATOM     48   O  SGN C   3     102.516  94.029 105.1010  0.00  0.00     0.000 OA
ATOM     49   O  SGN C   3     101.164  92.244 104.1750  0.00  0.00     0.000 OA
ATOM     50   O  SGN C   3     102.594  93.591 102.8160  0.00  0.00     0.000 OA
ENDBRANCH 38 47
BRANCH 41 51
ATOM     51   C  SGN C   3      95.911  96.669 104.0170  0.00  0.00     0.000 C
ATOM     52   O  SGN C   3      95.480  98.285 100.6880  0.00  0.00     0.000 OA
ATOM     53   O  SGN C   3      93.835  97.720 102.3330  0.00  0.00     0.000 OA
ATOM     54   O  SGN C   3      95.516  99.367 102.8090  0.00  0.00     0.000 OA
ATOM     55   O  SGN C   3      96.060  96.970 102.6470  0.00  0.00     0.000 O
ATOM     56   S  SGN C   3      95.136  98.202 102.0660  0.00  0.00     0.000 S
ENDBRANCH 41 51
BRANCH 37 57
ATOM     57  O4  IDS C   4      97.956  93.234 103.4990  0.00  0.00     0.000 O
BRANCH 57 61
ATOM     58  C1  IDS C   4      96.895  89.807 102.2350  0.00  0.00     0.000 C
ATOM     59  C2  IDS C   4      98.355  90.099 102.3780  0.00  0.00     0.000 C
ATOM     60  C3  IDS C   4      98.720  91.518 101.9350  0.00  0.00     0.000 C
ATOM     61  C4  IDS C   4      97.698  92.608 102.2280  0.00  0.00     0.000 C
ATOM     62  C5  IDS C   4      96.273  92.045 102.1730  0.00  0.00     0.000 C
ATOM     63  O5  IDS C   4      96.160  90.825 102.8930  0.00  0.00     0.000 O
ATOM     64   O  IDS C   4      98.896  91.437 100.5330  0.00  0.00     0.000 O
ATOM     66  HD  IDS C   4      98.278  91.884 100.1240  0.00  0.00     0.000 HD
BRANCH 59 66
ATOM     66   O  IDS C   4      98.799  89.971 103.7790  0.00  0.00     0.000 O
ATOM     67   S  IDS C   4      99.750  88.740 104.1130  0.00  0.00     0.000 S
ATOM     68   O  IDS C   4     100.943  89.031 103.3550  0.00  0.00     0.000 OA
ATOM     69   O  IDS C   4      99.918  88.777 105.5530  0.00  0.00     0.000 OA
ATOM     70   O  IDS C   4      99.087  87.539 103.6290  0.00  0.00     0.000 OA
ENDBRANCH 59 66
BRANCH 62 71
ATOM     71   C  IDS C   4      95.242  92.976 102.7830  0.00  0.00     0.000 C
ATOM     72   O  IDS C   4      94.771  92.732 103.8770  0.00  0.00     0.000 OA
ATOM     73   O  IDS C   4      94.821  93.927 102.0940  0.00  0.00     0.000 OA
ENDBRANCH 62 71
BRANCH 58 74
ATOM     74  O4  SGN C   5      96.508  89.405 100.9910  0.00  0.00     0.000 O
BRANCH 74 78
ATOM     75  C1  SGN C   5      94.133  86.796  98.7560  0.00  0.00     0.000 C
ATOM     76  C2  SGN C   5      93.393  87.953  99.4540  0.00  0.00     0.000 C
ATOM     77  C3  SGN C   5      94.387  89.015  99.9440  0.00  0.00     0.000 C
ATOM     78  C4  SGN C   5      95.548  88.388 100.7020  0.00  0.00     0.000 C
ATOM     79  C5  SGN C   5      96.172  87.288  99.8560  0.00  0.00     0.000 C
ATOM     80  O5  SGN C   5      95.175  86.273  99.5690  0.00  0.00     0.000 O
ATOM     81   O  SGN C   5      93.696  89.948 100.7680  0.00  0.00     0.000 O
ATOM     83  HD  SGN C   5      92.884  90.194 100.5940  0.00  0.00     0.000 HD
BRANCH 76 85
ATOM     83   N  SGN C   5      91.966  88.298  99.4260  0.00  0.00     0.000 N
ATOM     85  HD  SGN C   5      91.145  88.148  99.1940  0.00  0.00     0.000 HD
ATOM     85   S  SGN C   5      90.912  88.192  98.2130  0.00  0.00     0.000 S
ATOM     86   O  SGN C   5      89.617  88.593  98.6430  0.00  0.00     0.000 OA
ATOM     87   O  SGN C   5      91.471  88.888  97.1100  0.00  0.00     0.000 OA
ATOM     88   O  SGN C   5      90.983  86.674  98.0640  0.00  0.00     0.000 OA
ENDBRANCH 76 85
BRANCH 79 89
ATOM     89   C  SGN C   5      97.358  86.616 100.5190  0.00  0.00     0.000 C
ATOM     90   O  SGN C   5      97.239  85.178 100.3950  0.00  0.00     0.000 O
ATOM     91   S  SGN C   5      98.608  84.347 100.2950  0.00  0.00     0.000 S
ATOM     92   O  SGN C   5      99.372  84.947  99.2330  0.00  0.00     0.000 OA
ATOM     93   O  SGN C   5      99.263  84.455 101.5740  0.00  0.00     0.000 OA
ATOM     94   O  SGN C   5      98.164  83.012  99.9970  0.00  0.00     0.000 OA
ENDBRANCH 79 89
BRANCH 75 95
ATOM     95  O4  BDP C   6      94.664  87.329  97.6150  0.00  0.00     0.000 O
BRANCH 95 99
ATOM     96  C1  BDP C   6      95.223  85.553  93.7440  0.00  0.00     0.000 C
ATOM     97  C2  BDP C   6      94.068  85.094  94.5890  0.00  0.00     0.000 C
ATOM     98  C3  BDP C   6      93.726  86.030  95.7580  0.00  0.00     0.000 C
ATOM     99  C4  BDP C   6      94.971  86.407  96.5470  0.00  0.00     0.000 C
ATOM    100  C5  BDP C   6      96.045  86.889  95.5430  0.00  0.00     0.000 C
ATOM    101  O5  BDP C   6      96.251  85.747  94.6970  0.00  0.00     0.000 O
BRANCH 100 102
ATOM    102   C  BDP C   6      97.357  87.218  96.2090  0.00  0.00     0.000 C
ATOM    103   O  BDP C   6      97.728  88.385  96.4010  0.00  0.00     0.000 OA
ATOM    104   O  BDP C   6      98.054  86.263  96.5720  0.00  0.00     0.000 OA
ENDBRANCH 100 102
ENDBRANCH 95 99
ENDBRANCH 75 95
ENDBRANCH 74 78
ENDBRANCH 58 74
ENDBRANCH 57 61
ENDBRANCH 37 57
ENDBRANCH 36 40
ENDBRANCH 23 36
ENDBRANCH 22 26
ENDBRANCH 1 22
TORSDOF 20
ENDMDL
MODEL 60
REMARK VINA RESULT:      -0.1     96.927    101.077
ROOT
ATOM      1  C1  NGY C   1      79.216  90.688  75.7430  0.00  0.00     0.000 C
ATOM      2  C2  NGY C   1      80.077  91.499  74.7840  0.00  0.00     0.000 C
ATOM      3  C3  NGY C   1      80.506  92.809  75.4370  0.00  0.00     0.000 C
ATOM      4  C4  NGY C   1      79.261  93.533  75.9140  0.00  0.00     0.000 C
ATOM      5  C5  NGY C   1      78.538  92.649  76.9260  0.00  0.00     0.000 C
ATOM      6  O5  NGY C   1      78.129  91.429  76.2550  0.00  0.00     0.000 O
ATOM      7   O  NGY C   1      81.245  93.578  74.5000  0.00  0.00     0.000 O
ATOM      9  HD  NGY C   1      81.228  93.733  73.6480  0.00  0.00     0.000 HD
ATOM      9   O  NGY C   1      79.593  94.781  76.5040  0.00  0.00     0.000 O
ATOM     11  HD  NGY C   1      79.576  94.936  75.6520  0.00  0.00     0.000 HD
ENDROOT
BRANCH 2 13
ATOM     11   N  NGY C   1      80.961  91.650  73.6520  0.00  0.00     0.000 N
ATOM     13  HD  NGY C   1      81.194  90.822  73.5520  0.00  0.00     0.000 HD
ATOM     13   C  NGY C   1      81.591  90.607  73.1140  0.00  0.00     0.000 C
ATOM     14   O  NGY C   1      81.556  89.497  73.6480  0.00  0.00     0.000 OA
ATOM     15   C  NGY C   1      82.313  90.850  71.8240  0.00  0.00     0.000 C
ENDBRANCH 2 13
BRANCH 5 16
ATOM     16   C  NGY C   1      77.286  93.233  77.4990  0.00  0.00     0.000 C
ATOM     17   O  NGY C   1      76.975  94.421  80.9560  0.00  0.00     0.000 OA
ATOM     18   O  NGY C   1      77.454  93.384  78.9120  0.00  0.00     0.000 O
ATOM     19   S  NGY C   1      76.454  94.372  79.6140  0.00  0.00     0.000 S
ATOM     20   O  NGY C   1      75.148  93.769  79.5540  0.00  0.00     0.000 OA
ATOM     21   O  NGY C   1      76.560  95.604  78.8500  0.00  0.00     0.000 OA
ENDBRANCH 5 16
BRANCH 1 22
ATOM     22  O4  BDP C   2      80.005  90.184  76.7140  0.00  0.00     0.000 O
BRANCH 22 26
ATOM     23  C1  BDP C   2      80.992  87.149  79.3190  0.00  0.00     0.000 C
ATOM     24  C2  BDP C   2      80.704  86.720  77.9000  0.00  0.00     0.000 C
ATOM     25  C3  BDP C   2      80.723  87.923  76.9940  0.00  0.00     0.000 C
ATOM     26  C4  BDP C   2      79.786  89.001  77.5280  0.00  0.00     0.000 C
ATOM     27  C5  BDP C   2      80.050  89.227  79.0110  0.00  0.00     0.000 C
ATOM     28  O5  BDP C   2      79.921  88.013  79.7940  0.00  0.00     0.000 O
ATOM     29   O  BDP C   2      81.729  85.881  77.3660  0.00  0.00     0.000 O
ATOM     31  HD  BDP C   2      81.910  85.978  76.5250  0.00  0.00     0.000 HD
ATOM     31   O  BDP C   2      80.283  87.484  75.7140  0.00  0.00     0.000 O
ATOM     33  HD  BDP C   2      80.464  87.580  74.8730  0.00  0.00     0.000 HD
BRANCH 27 33
ATOM     33   C  BDP C   2      79.088  90.215  79.6250  0.00  0.00     0.000 C
ATOM     34   O  BDP C   2      77.864  89.967  79.7430  0.00  0.00     0.000 OA
ATOM     35   O  BDP C   2      79.519  91.299  79.9830  0.00  0.00     0.000 OA
ENDBRANCH 27 33
BRANCH 23 36
ATOM     36  O4  SGN C   3      81.133  86.142  80.2120  0.00  0.00     0.000 O
BRANCH 36 40
ATOM     37  C1  SGN C   3      83.246  84.777  83.5440  0.00  0.00     0.000 C
ATOM     38  C2  SGN C   3      82.082  85.752  83.7860  0.00  0.00     0.000 C
ATOM     39  C3  SGN C   3      81.168  85.803  82.5710  0.00  0.00     0.000 C
ATOM     40  C4  SGN C   3      81.990  86.175  81.3560  0.00  0.00     0.000 C
ATOM     41  C5  SGN C   3      83.120  85.180  81.2080  0.00  0.00     0.000 C
ATOM     42  O5  SGN C   3      83.944  85.204  82.3840  0.00  0.00     0.000 O
ATOM     43   O  SGN C   3      80.137  86.755  82.8000  0.00  0.00     0.000 O
ATOM     45  HD  SGN C   3      80.289  86.683  81.9500  0.00  0.00     0.000 HD
BRANCH 38 47
ATOM     45   N  SGN C   3      82.875  85.861  85.0240  0.00  0.00     0.000 N
ATOM     47  HD  SGN C   3      82.830  85.961  84.1650  0.00  0.00     0.000 HD
ATOM     47   S  SGN C   3      81.967  85.762  86.3250  0.00  0.00     0.000 S
ATOM     48   O  SGN C   3      81.092  86.875  86.4320  0.00  0.00     0.000 OA
ATOM     49   O  SGN C   3      81.362  84.470  86.3030  0.00  0.00     0.000 OA
ATOM     50   O  SGN C   3      82.962  85.872  87.3900  0.00  0.00     0.000 OA
ENDBRANCH 38 47
BRANCH 41 51
ATOM     51   C  SGN C   3      84.016  85.437  80.0270  0.00  0.00     0.000 C
ATOM     52   O  SGN C   3      87.724  85.788  80.0420  0.00  0.00     0.000 OA
ATOM     53   O  SGN C   3      86.289  84.852  78.3700  0.00  0.00     0.000 OA
ATOM     54   O  SGN C   3      86.161  87.187  78.9150  0.00  0.00     0.000 OA
ATOM     55   O  SGN C   3      85.356  85.449  80.4650  0.00  0.00     0.000 O
ATOM     56   S  SGN C   3      86.487  85.859  79.3420  0.00  0.00     0.000 S
ENDBRANCH 41 51
BRANCH 37 57
ATOM     57  O4  IDS C   4      82.873  83.486  83.3630  0.00  0.00     0.000 O
BRANCH 57 61
ATOM     58  C1  IDS C   4      82.785  79.798  84.2910  0.00  0.00     0.000 C
ATOM     59  C2  IDS C   4      82.470  80.811  85.3450  0.00  0.00     0.000 C
ATOM     60  C3  IDS C   4      83.376  82.043  85.2710  0.00  0.00     0.000 C
ATOM     61  C4  IDS C   4      83.789  82.502  83.8800  0.00  0.00     0.000 C
ATOM     62  C5  IDS C   4      83.905  81.307  82.9260  0.00  0.00     0.000 C
ATOM     63  O5  IDS C   4      82.785  80.441  83.0270  0.00  0.00     0.000 O
ATOM     64   O  IDS C   4      84.543  81.690  85.9890  0.00  0.00     0.000 O
ATOM     66  HD  IDS C   4      85.223  81.637  85.4550  0.00  0.00     0.000 HD
BRANCH 59 66
ATOM     66   O  IDS C   4      81.084  81.304  85.2270  0.00  0.00     0.000 O
ATOM     67   S  IDS C   4      80.057  80.808  86.3370  0.00  0.00     0.000 S
ATOM     68   O  IDS C   4      80.575  81.396  87.5500  0.00  0.00     0.000 OA
ATOM     69   O  IDS C   4      78.770  81.321  85.9110  0.00  0.00     0.000 OA
ATOM     70   O  IDS C   4      80.129  79.356  86.3720  0.00  0.00     0.000 OA
ENDBRANCH 59 66
BRANCH 62 71
ATOM     71   C  IDS C   4      83.975  81.716  81.4660  0.00  0.00     0.000 C
ATOM     72   O  IDS C   4      84.993  82.206  81.0180  0.00  0.00     0.000 OA
ATOM     73   O  IDS C   4      82.939  81.634  80.7770  0.00  0.00     0.000 OA
ENDBRANCH 62 71
BRANCH 58 74
ATOM     74  O4  SGN C   5      83.798  78.940  84.6020  0.00  0.00     0.000 O
BRANCH 74 78
ATOM     75  C1  SGN C   5      85.186  75.005  84.4370  0.00  0.00     0.000 C
ATOM     76  C2  SGN C   5      85.425  75.859  83.1770  0.00  0.00     0.000 C
ATOM     77  C3  SGN C   5      85.191  77.345  83.4780  0.00  0.00     0.000 C
ATOM     78  C4  SGN C   5      83.879  77.568  84.2170  0.00  0.00     0.000 C
ATOM     79  C5  SGN C   5      83.827  76.665  85.4400  0.00  0.00     0.000 C
ATOM     80  O5  SGN C   5      83.921  75.277  85.0240  0.00  0.00     0.000 O
ATOM     81   O  SGN C   5      85.204  78.071  82.2530  0.00  0.00     0.000 O
ATOM     83  HD  SGN C   5      85.742  77.863  81.6070  0.00  0.00     0.000 HD
BRANCH 76 85
ATOM     83   N  SGN C   5      86.190  74.680  82.7510  0.00  0.00     0.000 N
ATOM     85  HD  SGN C   5      86.928  74.282  82.5350  0.00  0.00     0.000 HD
ATOM     85   S  SGN C   5      87.398  74.573  81.6910  0.00  0.00     0.000 S
ATOM     86   O  SGN C   5      87.878  73.237  81.6180  0.00  0.00     0.000 OA
ATOM     87   O  SGN C   5      86.948  75.165  80.4820  0.00  0.00     0.000 OA
ATOM     88   O  SGN C   5      88.376  75.454  82.4650  0.00  0.00     0.000 OA
ENDBRANCH 76 85
BRANCH 79 89
ATOM     89   C  SGN C   5      82.563  76.832  86.2600  0.00  0.00     0.000 C
ATOM     90   O  SGN C   5      82.744  76.232  87.5660  0.00  0.00     0.000 O
ATOM     91   S  SGN C   5      81.948  76.908  88.7860  0.00  0.00     0.000 S
ATOM     92   O  SGN C   5      82.272  78.311  88.7540  0.00  0.00     0.000 OA
ATOM     93   O  SGN C   5      80.546  76.661  88.5660  0.00  0.00     0.000 OA
ATOM     94   O  SGN C   5      82.470  76.226  89.9390  0.00  0.00     0.000 OA
ENDBRANCH 79 89
BRANCH 75 95
ATOM     95  O4  BDP C   6      86.180  75.345  85.3110  0.00  0.00     0.000 O
BRANCH 95 99
ATOM     96  C1  BDP C   6      87.876  72.953  88.4500  0.00  0.00     0.000 C
ATOM     97  C2  BDP C   6      87.147  72.264  87.3310  0.00  0.00     0.000 C
ATOM     98  C3  BDP C   6      86.918  73.139  86.0890  0.00  0.00     0.000 C
ATOM     99  C4  BDP C   6      86.348  74.498  86.4680  0.00  0.00     0.000 C
ATOM    100  C5  BDP C   6      87.225  75.086  87.5980  0.00  0.00     0.000 C
ATOM    101  O5  BDP C   6      87.103  74.121  88.6560  0.00  0.00     0.000 O
BRANCH 100 102
ATOM    102   C  BDP C   6      86.705  76.405  88.1110  0.00  0.00     0.000 C
ATOM    103   O  BDP C   6      85.806  76.477  88.9620  0.00  0.00     0.000 OA
ATOM    104   O  BDP C   6      87.227  77.428  87.6520  0.00  0.00     0.000 OA
ENDBRANCH 100 102
ENDBRANCH 95 99
ENDBRANCH 75 95
ENDBRANCH 74 78
ENDBRANCH 58 74
ENDBRANCH 57 61
ENDBRANCH 37 57
ENDBRANCH 36 40
ENDBRANCH 23 36
ENDBRANCH 22 26
ENDBRANCH 1 22
TORSDOF 20
ENDMDL
MODEL 61
REMARK VINA RESULT:      -0.1     98.168    102.978
ROOT
ATOM      1  C1  NGY C   1      97.641  69.752  67.4200  0.00  0.00     0.000 C
ATOM      2  C2  NGY C   1      96.234  69.478  67.9330  0.00  0.00     0.000 C
ATOM      3  C3  NGY C   1      95.839  68.033  67.6460  0.00  0.00     0.000 C
ATOM      4  C4  NGY C   1      96.017  67.776  66.1620  0.00  0.00     0.000 C
ATOM      5  C5  NGY C   1      97.481  68.006  65.7970  0.00  0.00     0.000 C
ATOM      6  O5  NGY C   1      97.804  69.395  66.0640  0.00  0.00     0.000 O
ATOM      7   O  NGY C   1      94.499  67.823  68.0670  0.00  0.00     0.000 O
ATOM      9  HD  NGY C   1      93.759  68.272  68.0840  0.00  0.00     0.000 HD
ATOM      9   O  NGY C   1      95.632  66.452  65.8250  0.00  0.00     0.000 O
ATOM     11  HD  NGY C   1      94.892  66.901  65.8420  0.00  0.00     0.000 HD
ENDROOT
BRANCH 2 13
ATOM     11   N  NGY C   1      96.297  70.149  69.2100  0.00  0.00     0.000 N
ATOM     13  HD  NGY C   1      95.448  70.223  69.3640  0.00  0.00     0.000 HD
ATOM     13   C  NGY C   1      95.194  70.492  69.8730  0.00  0.00     0.000 C
ATOM     14   O  NGY C   1      94.080  70.379  69.3590  0.00  0.00     0.000 OA
ATOM     15   C  NGY C   1      95.379  70.989  71.2740  0.00  0.00     0.000 C
ENDBRANCH 2 13
BRANCH 5 16
ATOM     16   C  NGY C   1      97.820  67.781  64.3590  0.00  0.00     0.000 C
ATOM     17   O  NGY C   1      96.668  69.934  61.6210  0.00  0.00     0.000 OA
ATOM     18   O  NGY C   1      97.036  68.669  63.5570  0.00  0.00     0.000 O
ATOM     19   S  NGY C   1      97.556  68.902  62.0930  0.00  0.00     0.000 S
ATOM     20   O  NGY C   1      97.386  67.664  61.3790  0.00  0.00     0.000 OA
ATOM     21   O  NGY C   1      98.947  69.292  62.2560  0.00  0.00     0.000 OA
ENDBRANCH 5 16
BRANCH 1 22
ATOM     22  O4  BDP C   2      98.527  69.133  68.2290  0.00  0.00     0.000 O
BRANCH 22 26
ATOM     23  C1  BDP C   2     102.222  68.877  70.0310  0.00  0.00     0.000 C
ATOM     24  C2  BDP C   2     101.400  70.089  70.4020  0.00  0.00     0.000 C
ATOM     25  C3  BDP C   2      99.970  69.879  69.9800  0.00  0.00     0.000 C
ATOM     26  C4  BDP C   2      99.904  69.501  68.5040  0.00  0.00     0.000 C
ATOM     27  C5  BDP C   2     100.900  68.386  68.2110  0.00  0.00     0.000 C
ATOM     28  O5  BDP C   2     102.258  68.736  68.5830  0.00  0.00     0.000 O
ATOM     29   O  BDP C   2     101.311  70.274  71.8150  0.00  0.00     0.000 O
ATOM     31  HD  BDP C   2     100.560  70.580  72.1180  0.00  0.00     0.000 HD
ATOM     31   O  BDP C   2      99.289  71.107  70.2010  0.00  0.00     0.000 O
ATOM     33  HD  BDP C   2      98.538  71.414  70.5040  0.00  0.00     0.000 HD
BRANCH 27 33
ATOM     33   C  BDP C   2     100.955  68.032  66.7440  0.00  0.00     0.000 C
ATOM     34   O  BDP C   2     100.875  66.846  66.3430  0.00  0.00     0.000 OA
ATOM     35   O  BDP C   2     101.117  68.930  65.9360  0.00  0.00     0.000 OA
ENDBRANCH 27 33
BRANCH 23 36
ATOM     36  O4  SGN C   3     103.501  68.886  70.4730  0.00  0.00     0.000 O
BRANCH 36 40
ATOM     37  C1  SGN C   3     106.580  66.596  72.1170  0.00  0.00     0.000 C
ATOM     38  C2  SGN C   3     106.390  66.548  70.5930  0.00  0.00     0.000 C
ATOM     39  C3  SGN C   3     105.556  67.730  70.1220  0.00  0.00     0.000 C
ATOM     40  C4  SGN C   3     104.239  67.727  70.8690  0.00  0.00     0.000 C
ATOM     41  C5  SGN C   3     104.521  67.752  72.3550  0.00  0.00     0.000 C
ATOM     42  O5  SGN C   3     105.296  66.600  72.7210  0.00  0.00     0.000 O
ATOM     43   O  SGN C   3     105.346  67.628  68.7190  0.00  0.00     0.000 O
ATOM     45  HD  SGN C   3     104.693  68.065  69.0840  0.00  0.00     0.000 HD
BRANCH 38 47
ATOM     45   N  SGN C   3     107.239  65.395  70.9430  0.00  0.00     0.000 N
ATOM     47  HD  SGN C   3     106.502  65.833  71.0640  0.00  0.00     0.000 HD
ATOM     47   S  SGN C   3     108.406  65.170  69.8870  0.00  0.00     0.000 S
ATOM     48   O  SGN C   3     107.892  64.788  68.6200  0.00  0.00     0.000 OA
ATOM     49   O  SGN C   3     109.219  66.341  69.9220  0.00  0.00     0.000 OA
ATOM     50   O  SGN C   3     109.100  64.015  70.4530  0.00  0.00     0.000 OA
ENDBRANCH 38 47
BRANCH 41 51
ATOM     51   C  SGN C   3     103.287  67.756  73.2150  0.00  0.00     0.000 C
ATOM     52   O  SGN C   3     102.439  70.160  75.9320  0.00  0.00     0.000 OA
ATOM     53   O  SGN C   3     100.996  69.032  74.3890  0.00  0.00     0.000 OA
ATOM     54   O  SGN C   3     102.252  67.787  76.0130  0.00  0.00     0.000 OA
ATOM     55   O  SGN C   3     103.340  68.866  74.0840  0.00  0.00     0.000 O
ATOM     56   S  SGN C   3     102.145  68.969  75.2100  0.00  0.00     0.000 S
ENDBRANCH 41 51
BRANCH 37 57
ATOM     57  O4  IDS C   4     107.264  67.676  72.5680  0.00  0.00     0.000 O
BRANCH 57 61
ATOM     58  C1  IDS C   4     110.288  68.212  74.8120  0.00  0.00     0.000 C
ATOM     59  C2  IDS C   4     109.969  66.823  74.3560  0.00  0.00     0.000 C
ATOM     60  C3  IDS C   4     108.467  66.530  74.3610  0.00  0.00     0.000 C
ATOM     61  C4  IDS C   4     107.547  67.681  73.9810  0.00  0.00     0.000 C
ATOM     62  C5  IDS C   4     108.148  69.023  74.4140  0.00  0.00     0.000 C
ATOM     63  O5  IDS C   4     109.518  69.128  74.0530  0.00  0.00     0.000 O
ATOM     64   O  IDS C   4     108.168  66.139  75.6880  0.00  0.00     0.000 O
ATOM     66  HD  IDS C   4     107.661  66.729  76.0700  0.00  0.00     0.000 HD
BRANCH 59 66
ATOM     66   O  IDS C   4     110.438  66.584  72.9780  0.00  0.00     0.000 O
ATOM     67   S  IDS C   4     111.564  65.474  72.7930  0.00  0.00     0.000 S
ATOM     68   O  IDS C   4     110.895  64.258  73.1910  0.00  0.00     0.000 OA
ATOM     69   O  IDS C   4     111.927  65.541  71.3920  0.00  0.00     0.000 OA
ATOM     70   O  IDS C   4     112.651  65.809  73.6990  0.00  0.00     0.000 OA
ENDBRANCH 59 66
BRANCH 62 71
ATOM     71   C  IDS C   4     107.464  70.216  73.7740  0.00  0.00     0.000 C
ATOM     72   O  IDS C   4     108.078  70.932  73.0070  0.00  0.00     0.000 OA
ATOM     73   O  IDS C   4     106.303  70.498  74.1320  0.00  0.00     0.000 OA
ENDBRANCH 62 71
BRANCH 58 74
ATOM     74  O4  SGN C   5     110.369  68.369  76.1640  0.00  0.00     0.000 O
BRANCH 74 78
ATOM     75  C1  SGN C   5     112.317  70.258  79.3400  0.00  0.00     0.000 C
ATOM     76  C2  SGN C   5     111.313  71.122  78.5520  0.00  0.00     0.000 C
ATOM     77  C3  SGN C   5     110.429  70.245  77.6560  0.00  0.00     0.000 C
ATOM     78  C4  SGN C   5     111.256  69.252  76.8520  0.00  0.00     0.000 C
ATOM     79  C5  SGN C   5     112.166  68.472  77.7890  0.00  0.00     0.000 C
ATOM     80  O5  SGN C   5     113.050  69.393  78.4820  0.00  0.00     0.000 O
ATOM     81   O  SGN C   5     109.673  71.085  76.7890  0.00  0.00     0.000 O
ATOM     83  HD  SGN C   5     109.361  71.848  77.0550  0.00  0.00     0.000 HD
BRANCH 76 85
ATOM     83   N  SGN C   5     111.602  72.429  79.1560  0.00  0.00     0.000 N
ATOM     85  HD  SGN C   5     111.595  72.985  79.8190  0.00  0.00     0.000 HD
ATOM     85   S  SGN C   5     110.703  73.314  80.1560  0.00  0.00     0.000 S
ATOM     86   O  SGN C   5     111.395  74.499  80.5300  0.00  0.00     0.000 OA
ATOM     87   O  SGN C   5     109.432  73.475  79.5460  0.00  0.00     0.000 OA
ATOM     88   O  SGN C   5     110.695  72.310  81.3060  0.00  0.00     0.000 OA
ENDBRANCH 76 85
BRANCH 79 89
ATOM     89   C  SGN C   5     113.017  67.437  77.0820  0.00  0.00     0.000 C
ATOM     90   O  SGN C   5     114.319  67.995  76.7810  0.00  0.00     0.000 O
ATOM     91   S  SGN C   5     115.557  66.973  76.7730  0.00  0.00     0.000 S
ATOM     92   O  SGN C   5     115.515  66.274  78.0310  0.00  0.00     0.000 OA
ATOM     93   O  SGN C   5     115.372  66.093  75.6480  0.00  0.00     0.000 OA
ATOM     94   O  SGN C   5     116.698  67.838  76.6360  0.00  0.00     0.000 OA
ENDBRANCH 79 89
BRANCH 75 95
ATOM     95  O4  BDP C   6     111.568  69.516  80.2080  0.00  0.00     0.000 O
BRANCH 95 99
ATOM     96  C1  BDP C   6     112.914  67.985  83.9880  0.00  0.00     0.000 C
ATOM     97  C2  BDP C   6     113.789  68.959  83.2510  0.00  0.00     0.000 C
ATOM     98  C3  BDP C   6     113.076  69.730  82.1310  0.00  0.00     0.000 C
ATOM     99  C4  BDP C   6     112.284  68.792  81.2320  0.00  0.00     0.000 C
ATOM    100  C5  BDP C   6     111.413  67.886  82.1350  0.00  0.00     0.000 C
ATOM    101  O5  BDP C   6     112.377  67.193  82.9450  0.00  0.00     0.000 O
BRANCH 100 102
ATOM    102   C  BDP C   6     110.638  66.857  81.3520  0.00  0.00     0.000 C
ATOM    103   O  BDP C   6     111.157  66.182  80.4520  0.00  0.00     0.000 OA
ATOM    104   O  BDP C   6     109.450  66.702  81.6570  0.00  0.00     0.000 OA
ENDBRANCH 100 102
ENDBRANCH 95 99
ENDBRANCH 75 95
ENDBRANCH 74 78
ENDBRANCH 58 74
ENDBRANCH 57 61
ENDBRANCH 37 57
ENDBRANCH 36 40
ENDBRANCH 23 36
ENDBRANCH 22 26
ENDBRANCH 1 22
TORSDOF 20
ENDMDL
MODEL 62
REMARK VINA RESULT:      -0.1     42.397     47.192
ROOT
ATOM      1  C1  NGY C   1      28.367   8.803  85.5960  0.00  0.00     0.000 C
ATOM      2  C2  NGY C   1      28.687   7.329  85.8080  0.00  0.00     0.000 C
ATOM      3  C3  NGY C   1      28.547   6.565  84.4960  0.00  0.00     0.000 C
ATOM      4  C4  NGY C   1      27.159   6.823  83.9400  0.00  0.00     0.000 C
ATOM      5  C5  NGY C   1      27.000   8.321  83.6980  0.00  0.00     0.000 C
ATOM      6  O5  NGY C   1      27.116   9.003  84.9740  0.00  0.00     0.000 O
ATOM      7   O  NGY C   1      28.779   5.184  84.7330  0.00  0.00     0.000 O
ATOM      9  HD  NGY C   1      28.617   4.609  85.3610  0.00  0.00     0.000 HD
ATOM      9   O  NGY C   1      26.955   6.108  82.7300  0.00  0.00     0.000 O
ATOM     11  HD  NGY C   1      26.793   5.533  83.3580  0.00  0.00     0.000 HD
ENDROOT
BRANCH 2 13
ATOM     11   N  NGY C   1      29.725   6.399  86.1820  0.00  0.00     0.000 N
ATOM     13  HD  NGY C   1      29.860   6.668  86.9950  0.00  0.00     0.000 HD
ATOM     13   C  NGY C   1      30.280   6.422  87.3930  0.00  0.00     0.000 C
ATOM     14   O  NGY C   1      30.031   7.328  88.1910  0.00  0.00     0.000 OA
ATOM     15   C  NGY C   1      31.192   5.284  87.7380  0.00  0.00     0.000 C
ENDBRANCH 2 13
BRANCH 5 16
ATOM     16   C  NGY C   1      25.677   8.736  83.1370  0.00  0.00     0.000 C
ATOM     17   O  NGY C   1      25.086   9.440  79.5860  0.00  0.00     0.000 OA
ATOM     18   O  NGY C   1      25.859   9.133  81.7750  0.00  0.00     0.000 O
ATOM     19   S  NGY C   1      24.556   9.171  80.8980  0.00  0.00     0.000 S
ATOM     20   O  NGY C   1      23.741  10.250  81.3930  0.00  0.00     0.000 OA
ATOM     21   O  NGY C   1      23.955   7.859  81.0790  0.00  0.00     0.000 OA
ENDBRANCH 5 16
BRANCH 1 22
ATOM     22  O4  BDP C   2      29.383   9.374  84.9160  0.00  0.00     0.000 O
BRANCH 22 26
ATOM     23  C1  BDP C   2      31.808  12.602  84.0960  0.00  0.00     0.000 C
ATOM     24  C2  BDP C   2      31.718  12.209  85.5520  0.00  0.00     0.000 C
ATOM     25  C3  BDP C   2      31.119  10.832  85.6690  0.00  0.00     0.000 C
ATOM     26  C4  BDP C   2      29.794  10.767  84.9160  0.00  0.00     0.000 C
ATOM     27  C5  BDP C   2      29.964  11.350  83.5190  0.00  0.00     0.000 C
ATOM     28  O5  BDP C   2      30.468  12.710  83.5370  0.00  0.00     0.000 O
ATOM     29   O  BDP C   2      33.004  12.069  86.1580  0.00  0.00     0.000 O
ATOM     31  HD  BDP C   2      33.086  11.443  86.7500  0.00  0.00     0.000 HD
ATOM     31   O  BDP C   2      30.907  10.590  87.0540  0.00  0.00     0.000 O
ATOM     33  HD  BDP C   2      30.989   9.964  87.6470  0.00  0.00     0.000 HD
BRANCH 27 33
ATOM     33   C  BDP C   2      28.663  11.405  82.7540  0.00  0.00     0.000 C
ATOM     34   O  BDP C   2      28.579  11.040  81.5570  0.00  0.00     0.000 OA
ATOM     35   O  BDP C   2      27.678  11.851  83.3170  0.00  0.00     0.000 OA
ENDBRANCH 27 33
BRANCH 23 36
ATOM     36  O4  SGN C   3      32.450  13.767  83.8490  0.00  0.00     0.000 O
BRANCH 36 40
ATOM     37  C1  SGN C   3      35.126  15.751  81.3320  0.00  0.00     0.000 C
ATOM     38  C2  SGN C   3      33.665  15.630  80.8690  0.00  0.00     0.000 C
ATOM     39  C3  SGN C   3      32.760  15.293  82.0440  0.00  0.00     0.000 C
ATOM     40  C4  SGN C   3      33.263  14.026  82.7010  0.00  0.00     0.000 C
ATOM     41  C5  SGN C   3      34.708  14.226  83.1020  0.00  0.00     0.000 C
ATOM     42  O5  SGN C   3      35.497  14.524  81.9400  0.00  0.00     0.000 O
ATOM     43   O  SGN C   3      31.426  15.130  81.5770  0.00  0.00     0.000 O
ATOM     45  HD  SGN C   3      31.548  14.657  82.2930  0.00  0.00     0.000 HD
BRANCH 38 47
ATOM     45   N  SGN C   3      33.365  15.650  79.4260  0.00  0.00     0.000 N
ATOM     47  HD  SGN C   3      33.277  15.258  80.1930  0.00  0.00     0.000 HD
ATOM     47   S  SGN C   3      33.695  17.058  78.7670  0.00  0.00     0.000 S
ATOM     48   O  SGN C   3      32.839  18.077  79.2640  0.00  0.00     0.000 OA
ATOM     49   O  SGN C   3      35.097  17.266  78.9260  0.00  0.00     0.000 OA
ATOM     50   O  SGN C   3      33.341  16.822  77.3680  0.00  0.00     0.000 OA
ENDBRANCH 38 47
BRANCH 41 51
ATOM     51   C  SGN C   3      35.331  13.033  83.7750  0.00  0.00     0.000 C
ATOM     52   O  SGN C   3      35.156   9.478  82.6760  0.00  0.00     0.000 OA
ATOM     53   O  SGN C   3      36.932  10.648  83.7750  0.00  0.00     0.000 OA
ATOM     54   O  SGN C   3      34.829  10.309  84.8830  0.00  0.00     0.000 OA
ATOM     55   O  SGN C   3      35.063  11.883  83.0030  0.00  0.00     0.000 O
ATOM     56   S  SGN C   3      35.540  10.445  83.6460  0.00  0.00     0.000 S
ENDBRANCH 41 51
BRANCH 37 57
ATOM     57  O4  IDS C   4      35.358  16.750  82.2180  0.00  0.00     0.000 O
BRANCH 57 61
ATOM     58  C1  IDS C   4      37.044  20.104  82.8300  0.00  0.00     0.000 C
ATOM     59  C2  IDS C   4      36.627  19.754  81.4370  0.00  0.00     0.000 C
ATOM     60  C3  IDS C   4      36.890  18.286  81.0920  0.00  0.00     0.000 C
ATOM     61  C4  IDS C   4      36.698  17.277  82.2160  0.00  0.00     0.000 C
ATOM     62  C5  IDS C   4      37.043  17.903  83.5720  0.00  0.00     0.000 C
ATOM     63  O5  IDS C   4      36.449  19.184  83.7280  0.00  0.00     0.000 O
ATOM     64   O  IDS C   4      38.242  18.238  80.6760  0.00  0.00     0.000 O
ATOM     66  HD  IDS C   4      38.718  17.789  81.2420  0.00  0.00     0.000 HD
BRANCH 59 66
ATOM     66   O  IDS C   4      35.183  19.980  81.2300  0.00  0.00     0.000 O
ATOM     67   S  IDS C   4      34.777  21.294  80.4300  0.00  0.00     0.000 S
ATOM     68   O  IDS C   4      35.324  21.061  79.1150  0.00  0.00     0.000 OA
ATOM     69   O  IDS C   4      33.329  21.336  80.4910  0.00  0.00     0.000 OA
ATOM     70   O  IDS C   4      35.426  22.417  81.0900  0.00  0.00     0.000 OA
ENDBRANCH 59 66
BRANCH 62 71
ATOM     71   C  IDS C   4      36.554  17.080  84.7480  0.00  0.00     0.000 C
ATOM     72   O  IDS C   4      35.694  17.520  85.4860  0.00  0.00     0.000 OA
ATOM     73   O  IDS C   4      37.126  15.999  84.9950  0.00  0.00     0.000 OA
ENDBRANCH 62 71
BRANCH 58 74
ATOM     74  O4  SGN C   5      38.363  20.417  82.9730  0.00  0.00     0.000 O
BRANCH 74 78
ATOM     75  C1  SGN C   5      41.187  22.778  84.9480  0.00  0.00     0.000 C
ATOM     76  C2  SGN C   5      40.399  21.788  85.8280  0.00  0.00     0.000 C
ATOM     77  C3  SGN C   5      39.661  20.760  84.9600  0.00  0.00     0.000 C
ATOM     78  C4  SGN C   5      38.894  21.430  83.8280  0.00  0.00     0.000 C
ATOM     79  C5  SGN C   5      39.829  22.347  83.0540  0.00  0.00     0.000 C
ATOM     80  O5  SGN C   5      40.362  23.361  83.9470  0.00  0.00     0.000 O
ATOM     81   O  SGN C   5      38.778  20.008  85.7860  0.00  0.00     0.000 O
ATOM     83  HD  SGN C   5      38.992  19.784  86.5950  0.00  0.00     0.000 HD
BRANCH 76 85
ATOM     83   N  SGN C   5      40.983  22.289  87.0780  0.00  0.00     0.000 N
ATOM     85  HD  SGN C   5      41.618  22.331  87.6650  0.00  0.00     0.000 HD
ATOM     85   S  SGN C   5      41.829  21.501  88.2000  0.00  0.00     0.000 S
ATOM     86   O  SGN C   5      42.240  22.392  89.2290  0.00  0.00     0.000 OA
ATOM     87   O  SGN C   5      41.059  20.375  88.5900  0.00  0.00     0.000 OA
ATOM     88   O  SGN C   5      43.007  21.142  87.2980  0.00  0.00     0.000 OA
ENDBRANCH 76 85
BRANCH 79 89
ATOM     89   C  SGN C   5      39.161  23.045  81.8870  0.00  0.00     0.000 C
ATOM     90   O  SGN C   5      38.234  24.043  82.3780  0.00  0.00     0.000 O
ATOM     91   S  SGN C   5      38.025  25.345  81.4630  0.00  0.00     0.000 S
ATOM     92   O  SGN C   5      39.338  25.871  81.1980  0.00  0.00     0.000 OA
ATOM     93   O  SGN C   5      37.351  24.916  80.2640  0.00  0.00     0.000 OA
ATOM     94   O  SGN C   5      37.220  26.204  82.2890  0.00  0.00     0.000 OA
ENDBRANCH 79 89
BRANCH 75 95
ATOM     95  O4  BDP C   6      42.177  22.045  84.3570  0.00  0.00     0.000 O
BRANCH 95 99
ATOM     96  C1  BDP C   6      46.014  23.286  82.8820  0.00  0.00     0.000 C
ATOM     97  C2  BDP C   6      45.412  24.029  84.0410  0.00  0.00     0.000 C
ATOM     98  C3  BDP C   6      44.254  23.294  84.7320  0.00  0.00     0.000 C
ATOM     99  C4  BDP C   6      43.241  22.782  83.7180  0.00  0.00     0.000 C
ATOM    100  C5  BDP C   6      44.011  22.015  82.6180  0.00  0.00     0.000 C
ATOM    101  O5  BDP C   6      44.890  23.009  82.0680  0.00  0.00     0.000 O
BRANCH 100 102
ATOM    102   C  BDP C   6      43.112  21.526  81.5120  0.00  0.00     0.000 C
ATOM    103   O  BDP C   6      42.630  22.291  80.6640  0.00  0.00     0.000 OA
ATOM    104   O  BDP C   6      42.880  20.312  81.4760  0.00  0.00     0.000 OA
ENDBRANCH 100 102
ENDBRANCH 95 99
ENDBRANCH 75 95
ENDBRANCH 74 78
ENDBRANCH 58 74
ENDBRANCH 57 61
ENDBRANCH 37 57
ENDBRANCH 36 40
ENDBRANCH 23 36
ENDBRANCH 22 26
ENDBRANCH 1 22
TORSDOF 20
ENDMDL
MODEL 63
REMARK VINA RESULT:      -0.1     90.033     95.831
ROOT
ATOM      1  C1  NGY C   1      73.885  75.224  83.5960  0.00  0.00     0.000 C
ATOM      2  C2  NGY C   1      73.477  73.772  83.3900  0.00  0.00     0.000 C
ATOM      3  C3  NGY C   1      72.330  73.683  82.3890  0.00  0.00     0.000 C
ATOM      4  C4  NGY C   1      71.205  74.578  82.8730  0.00  0.00     0.000 C
ATOM      5  C5  NGY C   1      71.722  76.012  82.9570  0.00  0.00     0.000 C
ATOM      6  O5  NGY C   1      72.793  76.052  83.9350  0.00  0.00     0.000 O
ATOM      7   O  NGY C   1      71.920  72.328  82.2690  0.00  0.00     0.000 O
ATOM      9  HD  NGY C   1      71.836  71.639  82.7870  0.00  0.00     0.000 HD
ATOM      9   O  NGY C   1      70.090  74.512  81.9960  0.00  0.00     0.000 O
ATOM     11  HD  NGY C   1      70.006  73.823  82.5150  0.00  0.00     0.000 HD
ENDROOT
BRANCH 2 13
ATOM     11   N  NGY C   1      74.780  73.166  83.5270  0.00  0.00     0.000 N
ATOM     13  HD  NGY C   1      74.549  72.334  83.4610  0.00  0.00     0.000 HD
ATOM     13   C  NGY C   1      74.943  71.844  83.4910  0.00  0.00     0.000 C
ATOM     14   O  NGY C   1      73.973  71.083  83.4840  0.00  0.00     0.000 OA
ATOM     15   C  NGY C   1      76.353  71.341  83.4330  0.00  0.00     0.000 C
ENDBRANCH 2 13
BRANCH 5 16
ATOM     16   C  NGY C   1      70.720  77.023  83.4130  0.00  0.00     0.000 C
ATOM     17   O  NGY C   1      71.582  80.084  85.2410  0.00  0.00     0.000 OA
ATOM     18   O  NGY C   1      71.372  77.963  84.2710  0.00  0.00     0.000 O
ATOM     19   S  NGY C   1      70.618  79.324  84.4860  0.00  0.00     0.000 S
ATOM     20   O  NGY C   1      69.430  79.037  85.2450  0.00  0.00     0.000 OA
ATOM     21   O  NGY C   1      70.346  79.808  83.1420  0.00  0.00     0.000 OA
ENDBRANCH 5 16
BRANCH 1 22
ATOM     22  O4  BDP C   2      74.539  75.652  82.4960  0.00  0.00     0.000 O
BRANCH 22 26
ATOM     23  C1  BDP C   2      77.376  78.005  80.6570  0.00  0.00     0.000 C
ATOM     24  C2  BDP C   2      77.906  77.025  81.6770  0.00  0.00     0.000 C
ATOM     25  C3  BDP C   2      76.848  76.001  81.9920  0.00  0.00     0.000 C
ATOM     26  C4  BDP C   2      75.549  76.691  82.3970  0.00  0.00     0.000 C
ATOM     27  C5  BDP C   2      75.205  77.778  81.3870  0.00  0.00     0.000 C
ATOM     28  O5  BDP C   2      76.267  78.754  81.2300  0.00  0.00     0.000 O
ATOM     29   O  BDP C   2      78.989  76.244  81.1700  0.00  0.00     0.000 O
ATOM     31  HD  BDP C   2      79.031  75.422  81.4360  0.00  0.00     0.000 HD
ATOM     31   O  BDP C   2      77.340  75.215  83.0700  0.00  0.00     0.000 O
ATOM     33  HD  BDP C   2      77.383  74.392  83.3370  0.00  0.00     0.000 HD
BRANCH 27 33
ATOM     33   C  BDP C   2      73.980  78.567  81.7830  0.00  0.00     0.000 C
ATOM     34   O  BDP C   2      72.970  78.644  81.0430  0.00  0.00     0.000 OA
ATOM     35   O  BDP C   2      73.996  79.171  82.8430  0.00  0.00     0.000 OA
ENDBRANCH 27 33
BRANCH 23 36
ATOM     36  O4  SGN C   3      78.277  78.901  80.1920  0.00  0.00     0.000 O
BRANCH 36 40
ATOM     37  C1  SGN C   3      79.504  81.125  76.8780  0.00  0.00     0.000 C
ATOM     38  C2  SGN C   3      78.382  81.707  77.7530  0.00  0.00     0.000 C
ATOM     39  C3  SGN C   3      78.360  81.026  79.1140  0.00  0.00     0.000 C
ATOM     40  C4  SGN C   3      78.218  79.533  78.9100  0.00  0.00     0.000 C
ATOM     41  C5  SGN C   3      79.344  79.052  78.0220  0.00  0.00     0.000 C
ATOM     42  O5  SGN C   3      79.287  79.728  76.7570  0.00  0.00     0.000 O
ATOM     43   O  SGN C   3      77.278  81.541  79.8790  0.00  0.00     0.000 O
ATOM     45  HD  SGN C   3      77.459  80.732  80.1310  0.00  0.00     0.000 HD
BRANCH 38 47
ATOM     45   N  SGN C   3      78.742  83.132  77.8640  0.00  0.00     0.000 N
ATOM     47  HD  SGN C   3      78.891  82.312  78.1000  0.00  0.00     0.000 HD
ATOM     47   S  SGN C   3      78.084  84.005  76.7100  0.00  0.00     0.000 S
ATOM     48   O  SGN C   3      78.610  83.662  75.4370  0.00  0.00     0.000 OA
ATOM     49   O  SGN C   3      76.671  83.896  76.8700  0.00  0.00     0.000 OA
ATOM     50   O  SGN C   3      78.561  85.346  77.0430  0.00  0.00     0.000 OA
ENDBRANCH 38 47
BRANCH 41 51
ATOM     51   C  SGN C   3      79.320  77.573  77.7440  0.00  0.00     0.000 C
ATOM     52   O  SGN C   3      81.797  75.027  78.8670  0.00  0.00     0.000 OA
ATOM     53   O  SGN C   3      79.432  74.820  78.5570  0.00  0.00     0.000 OA
ATOM     54   O  SGN C   3      80.871  75.255  76.6850  0.00  0.00     0.000 OA
ATOM     55   O  SGN C   3      80.416  76.969  78.3950  0.00  0.00     0.000 O
ATOM     56   S  SGN C   3      80.650  75.368  78.0960  0.00  0.00     0.000 S
ENDBRANCH 41 51
BRANCH 37 57
ATOM     57  O4  IDS C   4      80.756  81.319  77.3590  0.00  0.00     0.000 O
BRANCH 57 61
ATOM     58  C1  IDS C   4      84.230  82.865  77.2360  0.00  0.00     0.000 C
ATOM     59  C2  IDS C   4      83.043  83.746  77.0060  0.00  0.00     0.000 C
ATOM     60  C3  IDS C   4      81.962  83.073  76.1560  0.00  0.00     0.000 C
ATOM     61  C4  IDS C   4      81.765  81.577  76.3650  0.00  0.00     0.000 C
ATOM     62  C5  IDS C   4      83.090  80.902  76.7400  0.00  0.00     0.000 C
ATOM     63  O5  IDS C   4      83.780  81.623  77.7510  0.00  0.00     0.000 O
ATOM     64   O  IDS C   4      82.356  83.288  74.8140  0.00  0.00     0.000 O
ATOM     66  HD  IDS C   4      82.573  82.538  74.4380  0.00  0.00     0.000 HD
BRANCH 59 66
ATOM     66   O  IDS C   4      82.398  84.130  78.2760  0.00  0.00     0.000 O
ATOM     67   S  IDS C   4      82.436  85.676  78.6520  0.00  0.00     0.000 S
ATOM     68   O  IDS C   4      81.641  86.287  77.6140  0.00  0.00     0.000 OA
ATOM     69   O  IDS C   4      81.864  85.750  79.9830  0.00  0.00     0.000 OA
ATOM     70   O  IDS C   4      83.825  86.102  78.5850  0.00  0.00     0.000 OA
ENDBRANCH 59 66
BRANCH 62 71
ATOM     71   C  IDS C   4      82.907  79.500  77.2900  0.00  0.00     0.000 C
ATOM     72   O  IDS C   4      83.186  79.258  78.4480  0.00  0.00     0.000 OA
ATOM     73   O  IDS C   4      82.569  78.593  76.5030  0.00  0.00     0.000 OA
ENDBRANCH 62 71
BRANCH 58 74
ATOM     74  O4  SGN C   5      85.157  82.876  76.2370  0.00  0.00     0.000 O
BRANCH 74 78
ATOM     75  C1  SGN C   5      89.201  82.557  75.2410  0.00  0.00     0.000 C
ATOM     76  C2  SGN C   5      88.463  81.230  75.5050  0.00  0.00     0.000 C
ATOM     77  C3  SGN C   5      86.944  81.448  75.5190  0.00  0.00     0.000 C
ATOM     78  C4  SGN C   5      86.555  82.633  76.3920  0.00  0.00     0.000 C
ATOM     79  C5  SGN C   5      87.360  83.855  75.9760  0.00  0.00     0.000 C
ATOM     80  O5  SGN C   5      88.777  83.580  76.1330  0.00  0.00     0.000 O
ATOM     81   O  SGN C   5      86.311  80.258  75.9800  0.00  0.00     0.000 O
ATOM     83  HD  SGN C   5      86.612  79.474  75.7710  0.00  0.00     0.000 HD
BRANCH 76 85
ATOM     83   N  SGN C   5      89.214  80.600  74.4120  0.00  0.00     0.000 N
ATOM     85  HD  SGN C   5      89.457  79.912  73.9460  0.00  0.00     0.000 HD
ATOM     85   S  SGN C   5      90.019  79.205  74.3960  0.00  0.00     0.000 S
ATOM     86   O  SGN C   5      90.563  78.960  73.1050  0.00  0.00     0.000 OA
ATOM     87   O  SGN C   5      90.929  79.234  75.4850  0.00  0.00     0.000 OA
ATOM     88   O  SGN C   5      88.808  78.311  74.6480  0.00  0.00     0.000 OA
ENDBRANCH 76 85
BRANCH 79 89
ATOM     89   C  SGN C   5      87.026  85.099  76.7750  0.00  0.00     0.000 C
ATOM     90   O  SGN C   5      87.707  85.058  78.0530  0.00  0.00     0.000 O
ATOM     91   S  SGN C   5      88.136  86.469  78.6860  0.00  0.00     0.000 S
ATOM     92   O  SGN C   5      88.881  87.162  77.6670  0.00  0.00     0.000 OA
ATOM     93   O  SGN C   5      86.924  87.158  79.0460  0.00  0.00     0.000 OA
ATOM     94   O  SGN C   5      88.934  86.093  79.8210  0.00  0.00     0.000 OA
ENDBRANCH 79 89
BRANCH 75 95
ATOM     95  O4  BDP C   6      88.887  82.908  73.9590  0.00  0.00     0.000 O
BRANCH 95 99
ATOM     96  C1  BDP C   6      91.776  84.824  71.4240  0.00  0.00     0.000 C
ATOM     97  C2  BDP C   6      92.111  84.622  72.8750  0.00  0.00     0.000 C
ATOM     98  C3  BDP C   6      91.209  83.610  73.5980  0.00  0.00     0.000 C
ATOM     99  C4  BDP C   6      89.738  83.887  73.3250  0.00  0.00     0.000 C
ATOM    100  C5  BDP C   6      89.555  84.033  71.7960  0.00  0.00     0.000 C
ATOM    101  O5  BDP C   6      90.399  85.147  71.4610  0.00  0.00     0.000 O
BRANCH 100 102
ATOM    102   C  BDP C   6      88.142  84.389  71.4110  0.00  0.00     0.000 C
ATOM    103   O  BDP C   6      87.584  83.901  70.4170  0.00  0.00     0.000 OA
ATOM    104   O  BDP C   6      87.547  85.189  72.1430  0.00  0.00     0.000 OA
ENDBRANCH 100 102
ENDBRANCH 95 99
ENDBRANCH 75 95
ENDBRANCH 74 78
ENDBRANCH 58 74
ENDBRANCH 57 61
ENDBRANCH 37 57
ENDBRANCH 36 40
ENDBRANCH 23 36
ENDBRANCH 22 26
ENDBRANCH 1 22
TORSDOF 20
ENDMDL
MODEL 64
REMARK VINA RESULT:      -0.0     43.925     52.186
ROOT
ATOM      1  C1  NGY C   1      70.026  28.610  28.7280  0.00  0.00     0.000 C
ATOM      2  C2  NGY C   1      70.702  27.595  27.8170  0.00  0.00     0.000 C
ATOM      3  C3  NGY C   1      69.683  26.984  26.8600  0.00  0.00     0.000 C
ATOM      4  C4  NGY C   1      68.542  26.415  27.6800  0.00  0.00     0.000 C
ATOM      5  C5  NGY C   1      67.902  27.546  28.4800  0.00  0.00     0.000 C
ATOM      6  O5  NGY C   1      68.898  28.079  29.3910  0.00  0.00     0.000 O
ATOM      7   O  NGY C   1      70.322  25.990  26.0720  0.00  0.00     0.000 O
ATOM      9  HD  NGY C   1      70.936  25.389  26.1790  0.00  0.00     0.000 HD
ATOM      9   O  NGY C   1      67.572  25.799  26.8440  0.00  0.00     0.000 O
ATOM     11  HD  NGY C   1      68.187  25.199  26.9520  0.00  0.00     0.000 HD
ENDROOT
BRANCH 2 13
ATOM     11   N  NGY C   1      71.848  28.315  27.3150  0.00  0.00     0.000 N
ATOM     13  HD  NGY C   1      72.393  27.649  27.2180  0.00  0.00     0.000 HD
ATOM     13   C  NGY C   1      72.985  27.692  27.0080  0.00  0.00     0.000 C
ATOM     14   O  NGY C   1      73.150  26.500  27.2750  0.00  0.00     0.000 OA
ATOM     15   C  NGY C   1      74.028  28.504  26.3030  0.00  0.00     0.000 C
ENDBRANCH 2 13
BRANCH 5 16
ATOM     16   C  NGY C   1      66.746  27.143  29.3380  0.00  0.00     0.000 C
ATOM     17   O  NGY C   1      63.234  27.723  28.4510  0.00  0.00     0.000 OA
ATOM     18   O  NGY C   1      65.550  27.711  28.7960  0.00  0.00     0.000 O
ATOM     19   S  NGY C   1      64.207  27.053  29.2760  0.00  0.00     0.000 S
ATOM     20   O  NGY C   1      64.053  27.369  30.6720  0.00  0.00     0.000 OA
ATOM     21   O  NGY C   1      64.382  25.633  29.0180  0.00  0.00     0.000 OA
ENDBRANCH 5 16
BRANCH 1 22
ATOM     22  O4  BDP C   2      69.734  29.714  28.0080  0.00  0.00     0.000 O
BRANCH 22 26
ATOM     23  C1  BDP C   2      69.453  33.813  27.7310  0.00  0.00     0.000 C
ATOM     24  C2  BDP C   2      70.651  33.294  28.4900  0.00  0.00     0.000 C
ATOM     25  C3  BDP C   2      70.831  31.826  28.2070  0.00  0.00     0.000 C
ATOM     26  C4  BDP C   2      69.535  31.071  28.4830  0.00  0.00     0.000 C
ATOM     27  C5  BDP C   2      68.369  31.785  27.8110  0.00  0.00     0.000 C
ATOM     28  O5  BDP C   2      68.245  33.169  28.2260  0.00  0.00     0.000 O
ATOM     29   O  BDP C   2      71.874  33.876  28.0400  0.00  0.00     0.000 O
ATOM     31  HD  BDP C   2      72.571  33.361  28.0390  0.00  0.00     0.000 HD
ATOM     31   O  BDP C   2      71.861  31.361  29.0710  0.00  0.00     0.000 O
ATOM     33  HD  BDP C   2      72.557  30.846  29.0700  0.00  0.00     0.000 HD
BRANCH 27 33
ATOM     33   C  BDP C   2      67.039  31.142  28.1270  0.00  0.00     0.000 C
ATOM     34   O  BDP C   2      66.126  31.047  27.2730  0.00  0.00     0.000 OA
ATOM     35   O  BDP C   2      66.846  30.737  29.2620  0.00  0.00     0.000 OA
ENDBRANCH 27 33
BRANCH 23 36
ATOM     36  O4  SGN C   3      69.260  35.151  27.7980  0.00  0.00     0.000 O
BRANCH 36 40
ATOM     37  C1  SGN C   3      67.804  38.489  25.7570  0.00  0.00     0.000 C
ATOM     38  C2  SGN C   3      66.826  37.723  26.6630  0.00  0.00     0.000 C
ATOM     39  C3  SGN C   3      67.586  36.842  27.6420  0.00  0.00     0.000 C
ATOM     40  C4  SGN C   3      68.496  35.917  26.8630  0.00  0.00     0.000 C
ATOM     41  C5  SGN C   3      69.404  36.752  25.9860  0.00  0.00     0.000 C
ATOM     42  O5  SGN C   3      68.614  37.540  25.0820  0.00  0.00     0.000 O
ATOM     43   O  SGN C   3      66.658  36.101  28.4250  0.00  0.00     0.000 O
ATOM     45  HD  SGN C   3      67.404  35.666  28.3620  0.00  0.00     0.000 HD
BRANCH 38 47
ATOM     45   N  SGN C   3      65.800  38.300  25.7750  0.00  0.00     0.000 N
ATOM     47  HD  SGN C   3      66.428  37.716  25.8970  0.00  0.00     0.000 HD
ATOM     47   S  SGN C   3      64.780  39.227  26.5640  0.00  0.00     0.000 S
ATOM     48   O  SGN C   3      63.995  38.474  27.4770  0.00  0.00     0.000 OA
ATOM     49   O  SGN C   3      65.542  40.302  27.1100  0.00  0.00     0.000 OA
ATOM     50   O  SGN C   3      63.900  39.683  25.4900  0.00  0.00     0.000 OA
ENDBRANCH 38 47
BRANCH 41 51
ATOM     51   C  SGN C   3      70.368  35.947  25.1560  0.00  0.00     0.000 C
ATOM     52   O  SGN C   3      74.085  35.922  25.4100  0.00  0.00     0.000 OA
ATOM     53   O  SGN C   3      72.583  34.144  24.8470  0.00  0.00     0.000 OA
ATOM     54   O  SGN C   3      72.789  36.062  23.4170  0.00  0.00     0.000 OA
ATOM     55   O  SGN C   3      71.679  36.197  25.6120  0.00  0.00     0.000 O
ATOM     56   S  SGN C   3      72.897  35.518  24.7380  0.00  0.00     0.000 S
ENDBRANCH 41 51
BRANCH 37 57
ATOM     57  O4  IDS C   4      68.618  39.355  26.4090  0.00  0.00     0.000 O
BRANCH 57 61
ATOM     58  C1  IDS C   4      70.182  42.816  26.1920  0.00  0.00     0.000 C
ATOM     59  C2  IDS C   4      68.941  42.538  25.4050  0.00  0.00     0.000 C
ATOM     60  C3  IDS C   4      68.941  41.143  24.7740  0.00  0.00     0.000 C
ATOM     61  C4  IDS C   4      69.588  40.029  25.5850  0.00  0.00     0.000 C
ATOM     62  C5  IDS C   4      70.743  40.574  26.4320  0.00  0.00     0.000 C
ATOM     63  O5  IDS C   4      70.378  41.762  27.1200  0.00  0.00     0.000 O
ATOM     64   O  IDS C   4      69.654  41.283  23.5600  0.00  0.00     0.000 O
ATOM     66  HD  IDS C   4      70.400  40.845  23.5940  0.00  0.00     0.000 HD
BRANCH 59 66
ATOM     66   O  IDS C   4      67.734  42.616  26.2490  0.00  0.00     0.000 O
ATOM     67   S  IDS C   4      66.607  43.639  25.7850  0.00  0.00     0.000 S
ATOM     68   O  IDS C   4      66.163  43.090  24.5260  0.00  0.00     0.000 OA
ATOM     69   O  IDS C   4      65.618  43.611  26.8450  0.00  0.00     0.000 OA
ATOM     70   O  IDS C   4      67.246  44.933  25.6110  0.00  0.00     0.000 OA
ENDBRANCH 59 66
BRANCH 62 71
ATOM     71   C  IDS C   4      71.203  39.605  27.5050  0.00  0.00     0.000 C
ATOM     72   O  IDS C   4      70.594  39.523  28.5540  0.00  0.00     0.000 OA
ATOM     73   O  IDS C   4      72.268  38.982  27.3250  0.00  0.00     0.000 OA
ENDBRANCH 62 71
BRANCH 58 74
ATOM     74  O4  SGN C   5      71.241  43.263  25.4590  0.00  0.00     0.000 O
BRANCH 74 78
ATOM     75  C1  SGN C   5      74.497  45.872  25.2720  0.00  0.00     0.000 C
ATOM     76  C2  SGN C   5      74.642  44.678  26.2350  0.00  0.00     0.000 C
ATOM     77  C3  SGN C   5      73.556  43.628  25.9650  0.00  0.00     0.000 C
ATOM     78  C4  SGN C   5      72.176  44.263  25.8640  0.00  0.00     0.000 C
ATOM     79  C5  SGN C   5      72.213  45.401  24.8550  0.00  0.00     0.000 C
ATOM     80  O5  SGN C   5      73.176  46.399  25.2850  0.00  0.00     0.000 O
ATOM     81   O  SGN C   5      73.585  42.656  27.0050  0.00  0.00     0.000 O
ATOM     83  HD  SGN C   5      74.329  42.394  27.3610  0.00  0.00     0.000 HD
BRANCH 76 85
ATOM     83   N  SGN C   5      76.067  44.907  25.9630  0.00  0.00     0.000 N
ATOM     85  HD  SGN C   5      76.892  44.647  25.9250  0.00  0.00     0.000 HD
ATOM     85   S  SGN C   5      77.358  44.412  26.7880  0.00  0.00     0.000 S
ATOM     86   O  SGN C   5      78.552  44.825  26.1380  0.00  0.00     0.000 OA
ATOM     87   O  SGN C   5      77.179  44.825  28.1340  0.00  0.00     0.000 OA
ATOM     88   O  SGN C   5      77.123  42.917  26.5820  0.00  0.00     0.000 OA
ENDBRANCH 76 85
BRANCH 79 89
ATOM     89   C  SGN C   5      70.873  46.084  24.6660  0.00  0.00     0.000 C
ATOM     90   O  SGN C   5      70.840  47.317  25.4250  0.00  0.00     0.000 O
ATOM     91   S  SGN C   5      69.954  48.511  24.8220  0.00  0.00     0.000 S
ATOM     92   O  SGN C   5      70.389  48.693  23.4620  0.00  0.00     0.000 OA
ATOM     93   O  SGN C   5      68.576  48.102  24.9090  0.00  0.00     0.000 OA
ATOM     94   O  SGN C   5      70.271  49.622  25.6780  0.00  0.00     0.000 OA
ENDBRANCH 79 89
BRANCH 75 95
ATOM     95  O4  BDP C   6      74.785  45.384  24.0290  0.00  0.00     0.000 O
BRANCH 95 99
ATOM     96  C1  BDP C   6      76.536  47.242  20.5750  0.00  0.00     0.000 C
ATOM     97  C2  BDP C   6      77.120  47.538  21.9280  0.00  0.00     0.000 C
ATOM     98  C3  BDP C   6      76.694  46.557  23.0300  0.00  0.00     0.000 C
ATOM     99  C4  BDP C   6      75.187  46.346  23.0290  0.00  0.00     0.000 C
ATOM    100  C5  BDP C   6      74.751  46.018  21.5820  0.00  0.00     0.000 C
ATOM    101  O5  BDP C   6      75.147  47.183  20.8390  0.00  0.00     0.000 O
BRANCH 100 102
ATOM    102   C  BDP C   6      73.258  45.864  21.4440  0.00  0.00     0.000 C
ATOM    103   O  BDP C   6      72.501  46.838  21.3230  0.00  0.00     0.000 OA
ATOM    104   O  BDP C   6      72.813  44.710  21.4450  0.00  0.00     0.000 OA
ENDBRANCH 100 102
ENDBRANCH 95 99
ENDBRANCH 75 95
ENDBRANCH 74 78
ENDBRANCH 58 74
ENDBRANCH 57 61
ENDBRANCH 37 57
ENDBRANCH 36 40
ENDBRANCH 23 36
ENDBRANCH 22 26
ENDBRANCH 1 22
TORSDOF 20
ENDMDL
MODEL 65
REMARK VINA RESULT:       0.0     55.528     62.480
ROOT
ATOM      1  C1  NGY C   1      47.892  50.051  74.0690  0.00  0.00     0.000 C
ATOM      2  C2  NGY C   1      46.408  50.155  73.7440  0.00  0.00     0.000 C
ATOM      3  C3  NGY C   1      45.675  50.901  74.8550  0.00  0.00     0.000 C
ATOM      4  C4  NGY C   1      45.974  50.208  76.1710  0.00  0.00     0.000 C
ATOM      5  C5  NGY C   1      47.480  50.246  76.4140  0.00  0.00     0.000 C
ATOM      6  O5  NGY C   1      48.131  49.506  75.3490  0.00  0.00     0.000 O
ATOM      7   O  NGY C   1      44.285  50.921  74.5650  0.00  0.00     0.000 O
ATOM      9  HD  NGY C   1      43.700  50.390  74.2110  0.00  0.00     0.000 HD
ATOM      9   O  NGY C   1      45.290  50.839  77.2440  0.00  0.00     0.000 O
ATOM     11  HD  NGY C   1      44.705  50.307  76.8890  0.00  0.00     0.000 HD
ENDROOT
BRANCH 2 13
ATOM     11   N  NGY C   1      46.424  50.618  72.3770  0.00  0.00     0.000 N
ATOM     13  HD  NGY C   1      45.672  50.281  72.1120  0.00  0.00     0.000 HD
ATOM     13   C  NGY C   1      45.434  50.335  71.5320  0.00  0.00     0.000 C
ATOM     14   O  NGY C   1      44.538  49.548  71.8420  0.00  0.00     0.000 OA
ATOM     15   C  NGY C   1      45.456  51.039  70.2090  0.00  0.00     0.000 C
ENDBRANCH 2 13
BRANCH 5 16
ATOM     16   C  NGY C   1      47.934  49.606  77.6860  0.00  0.00     0.000 C
ATOM     17   O  NGY C   1      51.135  47.855  78.0720  0.00  0.00     0.000 OA
ATOM     18   O  NGY C   1      49.111  48.838  77.4210  0.00  0.00     0.000 O
ATOM     19   S  NGY C   1      49.978  48.466  78.6770  0.00  0.00     0.000 S
ATOM     20   O  NGY C   1      49.213  47.533  79.4610  0.00  0.00     0.000 OA
ATOM     21   O  NGY C   1      50.213  49.734  79.3480  0.00  0.00     0.000 OA
ENDBRANCH 5 16
BRANCH 1 22
ATOM     22  O4  BDP C   2      48.458  51.266  73.9080  0.00  0.00     0.000 O
BRANCH 22 26
ATOM     23  C1  BDP C   2      51.689  53.674  73.0540  0.00  0.00     0.000 C
ATOM     24  C2  BDP C   2      51.177  52.840  71.9030  0.00  0.00     0.000 C
ATOM     25  C3  BDP C   2      49.809  52.305  72.2350  0.00  0.00     0.000 C
ATOM     26  C4  BDP C   2      49.836  51.579  73.5760  0.00  0.00     0.000 C
ATOM     27  C5  BDP C   2      50.530  52.446  74.6190  0.00  0.00     0.000 C
ATOM     28  O5  BDP C   2      51.873  52.829  74.2250  0.00  0.00     0.000 O
ATOM     29   O  BDP C   2      50.959  53.616  70.7250  0.00  0.00     0.000 O
ATOM     31  HD  BDP C   2      50.284  53.389  70.2320  0.00  0.00     0.000 HD
ATOM     31   O  BDP C   2      49.456  51.400  71.1960  0.00  0.00     0.000 O
ATOM     33  HD  BDP C   2      48.781  51.174  70.7040  0.00  0.00     0.000 HD
BRANCH 27 33
ATOM     33   C  BDP C   2      50.678  51.743  75.9470  0.00  0.00     0.000 C
ATOM     34   O  BDP C   2      50.271  52.253  77.0190  0.00  0.00     0.000 OA
ATOM     35   O  BDP C   2      51.242  50.662  75.9730  0.00  0.00     0.000 OA
ENDBRANCH 27 33
BRANCH 23 36
ATOM     36  O4  SGN C   3      52.856  54.320  72.8280  0.00  0.00     0.000 O
BRANCH 36 40
ATOM     37  C1  SGN C   3      54.938  57.910  73.2820  0.00  0.00     0.000 C
ATOM     38  C2  SGN C   3      54.905  56.948  74.4800  0.00  0.00     0.000 C
ATOM     39  C3  SGN C   3      54.508  55.550  74.0290  0.00  0.00     0.000 C
ATOM     40  C4  SGN C   3      53.177  55.627  73.3130  0.00  0.00     0.000 C
ATOM     41  C5  SGN C   3      53.295  56.609  72.1690  0.00  0.00     0.000 C
ATOM     42  O5  SGN C   3      53.655  57.904  72.6760  0.00  0.00     0.000 O
ATOM     43   O  SGN C   3      54.427  54.696  75.1640  0.00  0.00     0.000 O
ATOM     45  HD  SGN C   3      53.896  54.411  74.5420  0.00  0.00     0.000 HD
BRANCH 38 47
ATOM     45   N  SGN C   3      55.174  58.201  75.2070  0.00  0.00     0.000 N
ATOM     47  HD  SGN C   3      54.619  57.715  74.7540  0.00  0.00     0.000 HD
ATOM     47   S  SGN C   3      56.492  58.109  76.0900  0.00  0.00     0.000 S
ATOM     48   O  SGN C   3      56.340  57.176  77.1500  0.00  0.00     0.000 OA
ATOM     49   O  SGN C   3      57.573  57.883  75.1880  0.00  0.00     0.000 OA
ATOM     50   O  SGN C   3      56.550  59.446  76.6780  0.00  0.00     0.000 OA
ENDBRANCH 38 47
BRANCH 41 51
ATOM     51   C  SGN C   3      52.032  56.776  71.3680  0.00  0.00     0.000 C
ATOM     52   O  SGN C   3      48.559  57.108  72.6760  0.00  0.00     0.000 OA
ATOM     53   O  SGN C   3      49.561  58.101  70.7420  0.00  0.00     0.000 OA
ATOM     54   O  SGN C   3      49.284  55.720  70.8810  0.00  0.00     0.000 OA
ATOM     55   O  SGN C   3      50.944  56.914  72.2550  0.00  0.00     0.000 O
ATOM     56   S  SGN C   3      49.448  56.964  71.5730  0.00  0.00     0.000 S
ENDBRANCH 41 51
BRANCH 37 57
ATOM     57  O4  IDS C   4      55.856  57.601  72.3340  0.00  0.00     0.000 O
BRANCH 57 61
ATOM     58  C1  IDS C   4      58.271  59.665  70.2400  0.00  0.00     0.000 C
ATOM     59  C2  IDS C   4      57.523  60.339  71.3470  0.00  0.00     0.000 C
ATOM     60  C3  IDS C   4      56.069  59.870  71.4490  0.00  0.00     0.000 C
ATOM     61  C4  IDS C   4      55.803  58.404  71.1390  0.00  0.00     0.000 C
ATOM     62  C5  IDS C   4      56.787  57.884  70.0850  0.00  0.00     0.000 C
ATOM     63  O5  IDS C   4      58.124  58.263  70.3800  0.00  0.00     0.000 O
ATOM     64   O  IDS C   4      55.356  60.660  70.5150  0.00  0.00     0.000 O
ATOM     66  HD  IDS C   4      55.063  60.169  69.8650  0.00  0.00     0.000 HD
BRANCH 59 66
ATOM     66   O  IDS C   4      58.141  60.074  72.6600  0.00  0.00     0.000 O
ATOM     67   S  IDS C   4      58.928  61.283  73.3310  0.00  0.00     0.000 S
ATOM     68   O  IDS C   4      57.889  62.253  73.5820  0.00  0.00     0.000 OA
ATOM     69   O  IDS C   4      59.536  60.718  74.5200  0.00  0.00     0.000 OA
ATOM     70   O  IDS C   4      59.889  61.767  72.3530  0.00  0.00     0.000 OA
ENDBRANCH 59 66
BRANCH 62 71
ATOM     71   C  IDS C   4      56.804  56.371  69.9820  0.00  0.00     0.000 C
ATOM     72   O  IDS C   4      55.810  55.773  69.6170  0.00  0.00     0.000 OA
ATOM     73   O  IDS C   4      57.817  55.760  70.3770  0.00  0.00     0.000 OA
ENDBRANCH 62 71
BRANCH 58 74
ATOM     74  O4  SGN C   5      58.112  60.232  69.0100  0.00  0.00     0.000 O
BRANCH 74 78
ATOM     75  C1  SGN C   5      59.785  60.855  65.2340  0.00  0.00     0.000 C
ATOM     76  C2  SGN C   5      59.047  59.518  65.4340  0.00  0.00     0.000 C
ATOM     77  C3  SGN C   5      58.199  59.552  66.7130  0.00  0.00     0.000 C
ATOM     78  C4  SGN C   5      58.995  60.078  67.8990  0.00  0.00     0.000 C
ATOM     79  C5  SGN C   5      59.631  61.411  67.5330  0.00  0.00     0.000 C
ATOM     80  O5  SGN C   5      60.516  61.230  66.3950  0.00  0.00     0.000 O
ATOM     81   O  SGN C   5      57.712  58.241  66.9800  0.00  0.00     0.000 O
ATOM     83  HD  SGN C   5      57.472  57.707  66.3420  0.00  0.00     0.000 HD
BRANCH 76 85
ATOM     83   N  SGN C   5      59.396  59.205  64.0430  0.00  0.00     0.000 N
ATOM     85  HD  SGN C   5      59.212  59.160  63.1980  0.00  0.00     0.000 HD
ATOM     85   S  SGN C   5      58.504  58.507  62.8970  0.00  0.00     0.000 S
ATOM     86   O  SGN C   5      59.229  58.441  61.6750  0.00  0.00     0.000 OA
ATOM     87   O  SGN C   5      58.022  57.283  63.4290  0.00  0.00     0.000 OA
ATOM     88   O  SGN C   5      57.437  59.596  62.8310  0.00  0.00     0.000 OA
ENDBRANCH 76 85
BRANCH 79 89
ATOM     89   C  SGN C   5      60.429  62.030  68.6620  0.00  0.00     0.000 C
ATOM     90   O  SGN C   5      60.781  63.394  68.3230  0.00  0.00     0.000 O
ATOM     91   S  SGN C   5      60.903  64.432  69.5410  0.00  0.00     0.000 S
ATOM     92   O  SGN C   5      59.675  64.330  70.2860  0.00  0.00     0.000 OA
ATOM     93   O  SGN C   5      62.052  64.040  70.3170  0.00  0.00     0.000 OA
ATOM     94   O  SGN C   5      61.068  65.698  68.8810  0.00  0.00     0.000 OA
ENDBRANCH 79 89
BRANCH 75 95
ATOM     95  O4  BDP C   6      58.814  61.782  64.9840  0.00  0.00     0.000 O
BRANCH 95 99
ATOM     96  C1  BDP C   6      59.544  65.063  62.3100  0.00  0.00     0.000 C
ATOM     97  C2  BDP C   6      60.696  64.182  62.7030  0.00  0.00     0.000 C
ATOM     98  C3  BDP C   6      60.284  62.843  63.3320  0.00  0.00     0.000 C
ATOM     99  C4  BDP C   6      59.245  63.042  64.4250  0.00  0.00     0.000 C
ATOM    100  C5  BDP C   6      58.117  63.934  63.8550  0.00  0.00     0.000 C
ATOM    101  O5  BDP C   6      58.795  65.152  63.5080  0.00  0.00     0.000 O
BRANCH 100 102
ATOM    102   C  BDP C   6      57.063  64.265  64.8800  0.00  0.00     0.000 C
ATOM    103   O  BDP C   6      56.102  65.006  64.6270  0.00  0.00     0.000 OA
ATOM    104   O  BDP C   6      57.189  63.750  65.9970  0.00  0.00     0.000 OA
ENDBRANCH 100 102
ENDBRANCH 95 99
ENDBRANCH 75 95
ENDBRANCH 74 78
ENDBRANCH 58 74
ENDBRANCH 57 61
ENDBRANCH 37 57
ENDBRANCH 36 40
ENDBRANCH 23 36
ENDBRANCH 22 26
ENDBRANCH 1 22
TORSDOF 20
ENDMDL
MODEL 66
REMARK VINA RESULT:       0.0     76.635     81.733
ROOT
ATOM      1  C1  NGY C   1      89.325  54.825  49.5030  0.00  0.00     0.000 C
ATOM      2  C2  NGY C   1      90.117  54.625  48.2180  0.00  0.00     0.000 C
ATOM      3  C3  NGY C   1      90.503  55.974  47.6200  0.00  0.00     0.000 C
ATOM      4  C4  NGY C   1      89.241  56.796  47.4460  0.00  0.00     0.000 C
ATOM      5  C5  NGY C   1      88.591  56.991  48.8130  0.00  0.00     0.000 C
ATOM      6  O5  NGY C   1      88.220  55.687  49.3300  0.00  0.00     0.000 O
ATOM      7   O  NGY C   1      91.177  55.762  46.3870  0.00  0.00     0.000 O
ATOM      9  HD  NGY C   1      91.127  55.212  45.7200  0.00  0.00     0.000 HD
ATOM      9   O  NGY C   1      89.532  58.056  46.8590  0.00  0.00     0.000 O
ATOM     11  HD  NGY C   1      89.481  57.506  46.1910  0.00  0.00     0.000 HD
ENDROOT
BRANCH 2 13
ATOM     11   N  NGY C   1      91.369  54.094  47.7330  0.00  0.00     0.000 N
ATOM     13  HD  NGY C   1      91.218  53.252  47.8630  0.00  0.00     0.000 HD
ATOM     13   C  NGY C   1      91.620  52.786  47.7340  0.00  0.00     0.000 C
ATOM     14   O  NGY C   1      90.853  51.991  48.2790  0.00  0.00     0.000 OA
ATOM     15   C  NGY C   1      92.859  52.339  47.0190  0.00  0.00     0.000 C
ENDBRANCH 2 13
BRANCH 5 16
ATOM     16   C  NGY C   1      87.331  57.797  48.8080  0.00  0.00     0.000 C
ATOM     17   O  NGY C   1      84.017  56.424  49.5780  0.00  0.00     0.000 OA
ATOM     18   O  NGY C   1      86.217  56.909  48.9360  0.00  0.00     0.000 O
ATOM     19   S  NGY C   1      84.869  57.572  49.3950  0.00  0.00     0.000 S
ATOM     20   O  NGY C   1      84.424  58.419  48.3200  0.00  0.00     0.000 OA
ATOM     21   O  NGY C   1      85.213  58.302  50.6050  0.00  0.00     0.000 OA
ENDBRANCH 5 16
BRANCH 1 22
ATOM     22  O4  BDP C   2      90.166  55.246  50.4710  0.00  0.00     0.000 O
BRANCH 22 26
ATOM     23  C1  BDP C   2      91.341  55.365  54.4160  0.00  0.00     0.000 C
ATOM     24  C2  BDP C   2      91.095  53.985  53.8530  0.00  0.00     0.000 C
ATOM     25  C3  BDP C   2      91.037  54.056  52.3490  0.00  0.00     0.000 C
ATOM     26  C4  BDP C   2      90.023  55.107  51.9090  0.00  0.00     0.000 C
ATOM     27  C5  BDP C   2      90.259  56.404  52.6710  0.00  0.00     0.000 C
ATOM     28  O5  BDP C   2      90.209  56.227  54.1100  0.00  0.00     0.000 O
ATOM     29   O  BDP C   2      92.181  53.093  54.1060  0.00  0.00     0.000 O
ATOM     31  HD  BDP C   2      92.361  52.516  53.4850  0.00  0.00     0.000 HD
ATOM     31   O  BDP C   2      90.639  52.770  51.8900  0.00  0.00     0.000 O
ATOM     33  HD  BDP C   2      90.819  52.194  51.2700  0.00  0.00     0.000 HD
BRANCH 27 33
ATOM     33   C  BDP C   2      89.225  57.458  52.3520  0.00  0.00     0.000 C
ATOM     34   O  BDP C   2      89.539  58.649  52.1180  0.00  0.00     0.000 OA
ATOM     35   O  BDP C   2      88.049  57.136  52.3580  0.00  0.00     0.000 OA
ENDBRANCH 27 33
BRANCH 23 36
ATOM     36  O4  SGN C   3      91.545  55.417  55.7530  0.00  0.00     0.000 O
BRANCH 36 40
ATOM     37  C1  SGN C   3      93.791  57.144  58.8200  0.00  0.00     0.000 C
ATOM     38  C2  SGN C   3      92.590  57.938  58.2800  0.00  0.00     0.000 C
ATOM     39  C3  SGN C   3      91.648  57.021  57.5130  0.00  0.00     0.000 C
ATOM     40  C4  SGN C   3      92.425  56.331  56.4130  0.00  0.00     0.000 C
ATOM     41  C5  SGN C   3      93.596  55.597  57.0300  0.00  0.00     0.000 C
ATOM     42  O5  SGN C   3      94.443  56.529  57.7190  0.00  0.00     0.000 O
ATOM     43   O  SGN C   3      90.580  57.792  56.9760  0.00  0.00     0.000 O
ATOM     45  HD  SGN C   3      90.716  57.092  56.4830  0.00  0.00     0.000 HD
BRANCH 38 47
ATOM     45   N  SGN C   3      93.402  58.981  58.9320  0.00  0.00     0.000 N
ATOM     47  HD  SGN C   3      93.331  58.380  58.3130  0.00  0.00     0.000 HD
ATOM     47   S  SGN C   3      92.531  59.901  59.8920  0.00  0.00     0.000 S
ATOM     48   O  SGN C   3      91.589  60.670  59.1590  0.00  0.00     0.000 OA
ATOM     49   O  SGN C   3      92.009  59.050  60.9110  0.00  0.00     0.000 OA
ATOM     50   O  SGN C   3      93.540  60.817  60.4210  0.00  0.00     0.000 OA
ENDBRANCH 38 47
BRANCH 41 51
ATOM     51   C  SGN C   3      94.452  54.860  56.0370  0.00  0.00     0.000 C
ATOM     52   O  SGN C   3      95.685  51.353  56.2880  0.00  0.00     0.000 OA
ATOM     53   O  SGN C   3      95.047  52.610  54.3520  0.00  0.00     0.000 OA
ATOM     54   O  SGN C   3      96.949  53.271  55.6600  0.00  0.00     0.000 OA
ATOM     55   O  SGN C   3      94.646  53.540  56.4940  0.00  0.00     0.000 O
ATOM     56   S  SGN C   3      95.680  52.608  55.6160  0.00  0.00     0.000 S
ENDBRANCH 41 51
BRANCH 37 57
ATOM     57  O4  IDS C   4      93.474  56.179  59.7170  0.00  0.00     0.000 O
BRANCH 57 61
ATOM     58  C1  IDS C   4      93.588  54.570  63.1620  0.00  0.00     0.000 C
ATOM     59  C2  IDS C   4      93.286  56.032  63.0620  0.00  0.00     0.000 C
ATOM     60  C3  IDS C   4      94.134  56.740  62.0030  0.00  0.00     0.000 C
ATOM     61  C4  IDS C   4      94.456  55.945  60.7450  0.00  0.00     0.000 C
ATOM     62  C5  IDS C   4      94.573  54.450  61.0620  0.00  0.00     0.000 C
ATOM     63  O5  IDS C   4      93.496  53.997  61.8700  0.00  0.00     0.000 O
ATOM     64   O  IDS C   4      95.351  57.058  62.6520  0.00  0.00     0.000 O
ATOM     66  HD  IDS C   4      96.004  56.601  62.3130  0.00  0.00     0.000 HD
BRANCH 59 66
ATOM     66   O  IDS C   4      91.876  56.270  62.6970  0.00  0.00     0.000 O
ATOM     67   S  IDS C   4      90.938  56.865  63.8360  0.00  0.00     0.000 S
ATOM     68   O  IDS C   4      91.502  58.172  64.0770  0.00  0.00     0.000 OA
ATOM     69   O  IDS C   4      89.608  56.870  63.2600  0.00  0.00     0.000 OA
ATOM     70   O  IDS C   4      91.072  56.001  64.9990  0.00  0.00     0.000 OA
ENDBRANCH 59 66
BRANCH 62 71
ATOM     71   C  IDS C   4      94.550  53.576  59.8220  0.00  0.00     0.000 C
ATOM     72   O  IDS C   4      95.527  53.513  59.1020  0.00  0.00     0.000 OA
ATOM     73   O  IDS C   4      93.480  53.015  59.5110  0.00  0.00     0.000 OA
ENDBRANCH 62 71
BRANCH 58 74
ATOM     74  O4  SGN C   5      94.651  54.256  63.9560  0.00  0.00     0.000 O
BRANCH 74 78
ATOM     75  C1  SGN C   5      96.320  51.494  66.6070  0.00  0.00     0.000 C
ATOM     76  C2  SGN C   5      96.098  50.998  65.1660  0.00  0.00     0.000 C
ATOM     77  C3  SGN C   5      95.813  52.176  64.2250  0.00  0.00     0.000 C
ATOM     78  C4  SGN C   5      94.755  53.108  64.7990  0.00  0.00     0.000 C
ATOM     79  C5  SGN C   5      95.149  53.515  66.2110  0.00  0.00     0.000 C
ATOM     80  O5  SGN C   5      95.257  52.330  67.0440  0.00  0.00     0.000 O
ATOM     81   O  SGN C   5      95.399  51.667  62.9610  0.00  0.00     0.000 O
ATOM     83  HD  SGN C   5      95.745  50.948  62.6250  0.00  0.00     0.000 HD
BRANCH 76 85
ATOM     83   N  SGN C   5      96.633  49.870  64.3930  0.00  0.00     0.000 N
ATOM     85  HD  SGN C   5      96.876  49.042  64.3120  0.00  0.00     0.000 HD
ATOM     85   S  SGN C   5      97.676  48.727  64.8400  0.00  0.00     0.000 S
ATOM     86   O  SGN C   5      97.881  47.800  63.7820  0.00  0.00     0.000 OA
ATOM     87   O  SGN C   5      98.823  49.384  65.3550  0.00  0.00     0.000 OA
ATOM     88   O  SGN C   5      96.795  48.115  65.9270  0.00  0.00     0.000 OA
ENDBRANCH 76 85
BRANCH 79 89
ATOM     89   C  SGN C   5      94.166  54.466  66.8620  0.00  0.00     0.000 C
ATOM     90   O  SGN C   5      92.995  53.736  67.3020  0.00  0.00     0.000 O
ATOM     91   S  SGN C   5      92.246  54.293  68.6080  0.00  0.00     0.000 S
ATOM     92   O  SGN C   5      93.252  54.423  69.6290  0.00  0.00     0.000 OA
ATOM     93   O  SGN C   5      91.658  55.559  68.2510  0.00  0.00     0.000 OA
ATOM     94   O  SGN C   5      91.272  53.274  68.8910  0.00  0.00     0.000 OA
ENDBRANCH 79 89
BRANCH 75 95
ATOM     95  O4  BDP C   6      97.485  52.208  66.5800  0.00  0.00     0.000 O
BRANCH 95 99
ATOM     96  C1  BDP C   6     100.359  52.701  69.7330  0.00  0.00     0.000 C
ATOM     97  C2  BDP C   6      99.410  51.538  69.7970  0.00  0.00     0.000 C
ATOM     98  C3  BDP C   6      98.698  51.226  68.4720  0.00  0.00     0.000 C
ATOM     99  C4  BDP C   6      98.109  52.485  67.8520  0.00  0.00     0.000 C
ATOM    100  C5  BDP C   6      99.214  53.567  67.8260  0.00  0.00     0.000 C
ATOM    101  O5  BDP C   6      99.549  53.739  69.2130  0.00  0.00     0.000 O
BRANCH 100 102
ATOM    102   C  BDP C   6      98.718  54.891  67.3010  0.00  0.00     0.000 C
ATOM    103   O  BDP C   6      99.274  55.480  66.3630  0.00  0.00     0.000 OA
ATOM    104   O  BDP C   6      97.714  55.366  67.8420  0.00  0.00     0.000 OA
ENDBRANCH 100 102
ENDBRANCH 95 99
ENDBRANCH 75 95
ENDBRANCH 74 78
ENDBRANCH 58 74
ENDBRANCH 57 61
ENDBRANCH 37 57
ENDBRANCH 36 40
ENDBRANCH 23 36
ENDBRANCH 22 26
ENDBRANCH 1 22
TORSDOF 20
ENDMDL
MODEL 67
REMARK VINA RESULT:       0.0     45.412     53.585
ROOT
ATOM      1  C1  NGY C   1      68.067  33.464  25.0380  0.00  0.00     0.000 C
ATOM      2  C2  NGY C   1      68.771  32.625  23.9810  0.00  0.00     0.000 C
ATOM      3  C3  NGY C   1      67.798  32.255  22.8660  0.00  0.00     0.000 C
ATOM      4  C4  NGY C   1      66.593  31.578  23.4910  0.00  0.00     0.000 C
ATOM      5  C5  NGY C   1      65.935  32.551  24.4650  0.00  0.00     0.000 C
ATOM      6  O5  NGY C   1      66.887  32.855  25.5180  0.00  0.00     0.000 O
ATOM      7   O  NGY C   1      68.458  31.414  21.9310  0.00  0.00     0.000 O
ATOM      9  HD  NGY C   1      69.049  30.781  21.9490  0.00  0.00     0.000 HD
ATOM      9   O  NGY C   1      65.662  31.178  22.4970  0.00  0.00     0.000 O
ATOM     11  HD  NGY C   1      66.253  30.545  22.5150  0.00  0.00     0.000 HD
ENDROOT
BRANCH 2 13
ATOM     11   N  NGY C   1      69.976  33.382  23.7390  0.00  0.00     0.000 N
ATOM     13  HD  NGY C   1      70.497  32.734  23.4970  0.00  0.00     0.000 HD
ATOM     13   C  NGY C   1      71.101  32.794  23.3340  0.00  0.00     0.000 C
ATOM     14   O  NGY C   1      71.197  31.567  23.2890  0.00  0.00     0.000 OA
ATOM     15   C  NGY C   1      72.220  33.699  22.9160  0.00  0.00     0.000 C
ENDBRANCH 2 13
BRANCH 5 16
ATOM     16   C  NGY C   1      64.718  32.029  25.1600  0.00  0.00     0.000 C
ATOM     17   O  NGY C   1      63.463  33.332  28.3510  0.00  0.00     0.000 OA
ATOM     18   O  NGY C   1      64.649  32.610  26.4650  0.00  0.00     0.000 O
ATOM     19   S  NGY C   1      63.244  32.544  27.1650  0.00  0.00     0.000 S
ATOM     20   O  NGY C   1      62.983  31.161  27.4650  0.00  0.00     0.000 OA
ATOM     21   O  NGY C   1      62.323  33.111  26.1920  0.00  0.00     0.000 OA
ENDBRANCH 5 16
BRANCH 1 22
ATOM     22  O4  BDP C   2      67.848  34.699  24.5390  0.00  0.00     0.000 O
BRANCH 22 26
ATOM     23  C1  BDP C   2      67.429  38.769  25.0060  0.00  0.00     0.000 C
ATOM     24  C2  BDP C   2      68.761  38.200  25.4320  0.00  0.00     0.000 C
ATOM     25  C3  BDP C   2      68.916  36.807  24.8800  0.00  0.00     0.000 C
ATOM     26  C4  BDP C   2      67.714  35.951  25.2620  0.00  0.00     0.000 C
ATOM     27  C5  BDP C   2      66.425  36.698  24.9460  0.00  0.00     0.000 C
ATOM     28  O5  BDP C   2      66.352  37.991  25.6010  0.00  0.00     0.000 O
ATOM     29   O  BDP C   2      69.863  38.911  24.8670  0.00  0.00     0.000 O
ATOM     31  HD  BDP C   2      70.557  38.441  24.6510  0.00  0.00     0.000 HD
ATOM     31   O  BDP C   2      70.102  36.266  25.4490  0.00  0.00     0.000 O
ATOM     33  HD  BDP C   2      70.797  35.797  25.2330  0.00  0.00     0.000 HD
BRANCH 27 33
ATOM     33   C  BDP C   2      65.195  35.944  25.3910  0.00  0.00     0.000 C
ATOM     34   O  BDP C   2      64.224  35.741  24.6240  0.00  0.00     0.000 OA
ATOM     35   O  BDP C   2      65.141  35.553  26.5460  0.00  0.00     0.000 OA
ENDBRANCH 27 33
BRANCH 23 36
ATOM     36  O4  SGN C   3      67.223  40.067  25.3300  0.00  0.00     0.000 O
BRANCH 36 40
ATOM     37  C1  SGN C   3      65.710  43.733  24.0260  0.00  0.00     0.000 C
ATOM     38  C2  SGN C   3      64.714  42.714  24.6030  0.00  0.00     0.000 C
ATOM     39  C3  SGN C   3      65.446  41.654  25.4130  0.00  0.00     0.000 C
ATOM     40  C4  SGN C   3      66.493  41.004  24.5340  0.00  0.00     0.000 C
ATOM     41  C5  SGN C   3      67.411  42.078  23.9930  0.00  0.00     0.000 C
ATOM     42  O5  SGN C   3      66.650  43.028  23.2310  0.00  0.00     0.000 O
ATOM     43   O  SGN C   3      64.509  40.693  25.8840  0.00  0.00     0.000 O
ATOM     45  HD  SGN C   3      65.288  40.327  25.7970  0.00  0.00     0.000 HD
BRANCH 38 47
ATOM     45   N  SGN C   3      63.281  42.720  24.2570  0.00  0.00     0.000 N
ATOM     47  HD  SGN C   3      64.011  42.269  24.3710  0.00  0.00     0.000 HD
ATOM     47   S  SGN C   3      62.576  44.087  24.6550  0.00  0.00     0.000 S
ATOM     48   O  SGN C   3      62.543  44.262  26.0640  0.00  0.00     0.000 OA
ATOM     49   O  SGN C   3      63.215  45.113  23.8970  0.00  0.00     0.000 OA
ATOM     50   O  SGN C   3      61.205  43.858  24.2020  0.00  0.00     0.000 OA
ENDBRANCH 38 47
BRANCH 41 51
ATOM     51   C  SGN C   3      68.506  41.560  23.1020  0.00  0.00     0.000 C
ATOM     52   O  SGN C   3      68.164  39.174  20.2610  0.00  0.00     0.000 OA
ATOM     53   O  SGN C   3      69.664  41.021  20.5280  0.00  0.00     0.000 OA
ATOM     54   O  SGN C   3      69.805  39.117  21.9860  0.00  0.00     0.000 OA
ATOM     55   O  SGN C   3      67.938  40.719  22.1230  0.00  0.00     0.000 O
ATOM     56   S  SGN C   3      68.993  39.934  21.1330  0.00  0.00     0.000 S
ENDBRANCH 41 51
BRANCH 37 57
ATOM     57  O4  IDS C   4      66.391  44.447  24.9560  0.00  0.00     0.000 O
BRANCH 57 61
ATOM     58  C1  IDS C   4      67.077  47.932  26.3170  0.00  0.00     0.000 C
ATOM     59  C2  IDS C   4      65.783  47.679  25.6110  0.00  0.00     0.000 C
ATOM     60  C3  IDS C   4      65.945  46.781  24.3820  0.00  0.00     0.000 C
ATOM     61  C4  IDS C   4      66.983  45.671  24.4810  0.00  0.00     0.000 C
ATOM     62  C5  IDS C   4      68.151  46.099  25.3770  0.00  0.00     0.000 C
ATOM     63  O5  IDS C   4      67.698  46.687  26.5880  0.00  0.00     0.000 O
ATOM     64   O  IDS C   4      66.322  47.651  23.3320  0.00  0.00     0.000 O
ATOM     66  HD  IDS C   4      67.134  47.487  23.0790  0.00  0.00     0.000 HD
BRANCH 59 66
ATOM     66   O  IDS C   4      64.807  47.010  26.4920  0.00  0.00     0.000 O
ATOM     67   S  IDS C   4      63.519  47.853  26.8970  0.00  0.00     0.000 S
ATOM     68   O  IDS C   4      62.840  48.040  25.6370  0.00  0.00     0.000 OA
ATOM     69   O  IDS C   4      62.815  47.024  27.8540  0.00  0.00     0.000 OA
ATOM     70   O  IDS C   4      63.988  49.116  27.4460  0.00  0.00     0.000 OA
ENDBRANCH 59 66
BRANCH 62 71
ATOM     71   C  IDS C   4      69.037  44.939  25.7920  0.00  0.00     0.000 C
ATOM     72   O  IDS C   4      69.063  44.576  26.9520  0.00  0.00     0.000 OA
ATOM     73   O  IDS C   4      69.806  44.446  24.9430  0.00  0.00     0.000 OA
ENDBRANCH 62 71
BRANCH 58 74
ATOM     74  O4  SGN C   5      67.823  48.951  25.8020  0.00  0.00     0.000 O
BRANCH 74 78
ATOM     75  C1  SGN C   5      71.386  51.117  26.0430  0.00  0.00     0.000 C
ATOM     76  C2  SGN C   5      71.466  49.764  25.3100  0.00  0.00     0.000 C
ATOM     77  C3  SGN C   5      70.060  49.237  24.9900  0.00  0.00     0.000 C
ATOM     78  C4  SGN C   5      69.146  49.304  26.2050  0.00  0.00     0.000 C
ATOM     79  C5  SGN C   5      69.171  50.712  26.7820  0.00  0.00     0.000 C
ATOM     80  O5  SGN C   5      70.528  51.051  27.1750  0.00  0.00     0.000 O
ATOM     81   O  SGN C   5      70.166  47.898  24.5170  0.00  0.00     0.000 O
ATOM     83  HD  SGN C   5      70.824  47.644  24.0140  0.00  0.00     0.000 HD
BRANCH 76 85
ATOM     83   N  SGN C   5      72.828  50.221  25.0080  0.00  0.00     0.000 N
ATOM     85  HD  SGN C   5      73.448  50.475  24.4590  0.00  0.00     0.000 HD
ATOM     85   S  SGN C   5      73.803  49.801  23.7980  0.00  0.00     0.000 S
ATOM     86   O  SGN C   5      75.023  50.528  23.8670  0.00  0.00     0.000 OA
ATOM     87   O  SGN C   5      73.894  48.385  23.8060  0.00  0.00     0.000 OA
ATOM     88   O  SGN C   5      72.918  50.341  22.6770  0.00  0.00     0.000 OA
ENDBRANCH 76 85
BRANCH 79 89
ATOM     89   C  SGN C   5      68.269  50.887  27.9870  0.00  0.00     0.000 C
ATOM     90   O  SGN C   5      67.832  52.265  28.0750  0.00  0.00     0.000 O
ATOM     91   S  SGN C   5      66.379  52.522  28.7070  0.00  0.00     0.000 S
ATOM     92   O  SGN C   5      65.465  51.681  27.9780  0.00  0.00     0.000 OA
ATOM     93   O  SGN C   5      66.456  52.171  30.1020  0.00  0.00     0.000 OA
ATOM     94   O  SGN C   5      66.165  53.926  28.4850  0.00  0.00     0.000 OA
ENDBRANCH 79 89
BRANCH 75 95
ATOM     95  O4  BDP C   6      70.880  52.003  25.1350  0.00  0.00     0.000 O
BRANCH 95 99
ATOM     96  C1  BDP C   6      71.495  56.243  24.8390  0.00  0.00     0.000 C
ATOM     97  C2  BDP C   6      72.564  55.402  25.4790  0.00  0.00     0.000 C
ATOM     98  C3  BDP C   6      72.437  53.897  25.1990  0.00  0.00     0.000 C
ATOM     99  C4  BDP C   6      71.018  53.406  25.4460  0.00  0.00     0.000 C
ATOM    100  C5  BDP C   6      70.049  54.350  24.6970  0.00  0.00     0.000 C
ATOM    101  O5  BDP C   6      70.301  55.633  25.2930  0.00  0.00     0.000 O
BRANCH 100 102
ATOM    102   C  BDP C   6      68.601  54.004  24.9360  0.00  0.00     0.000 C
ATOM    103   O  BDP C   6      68.029  53.091  24.3230  0.00  0.00     0.000 OA
ATOM    104   O  BDP C   6      68.000  54.669  25.7880  0.00  0.00     0.000 OA
ENDBRANCH 100 102
ENDBRANCH 95 99
ENDBRANCH 75 95
ENDBRANCH 74 78
ENDBRANCH 58 74
ENDBRANCH 57 61
ENDBRANCH 37 57
ENDBRANCH 36 40
ENDBRANCH 23 36
ENDBRANCH 22 26
ENDBRANCH 1 22
TORSDOF 20
ENDMDL
MODEL 68
REMARK VINA RESULT:       0.0     48.839     58.240
ROOT
ATOM      1  C1  NGY C   1      91.637  17.501  30.3450  0.00  0.00     0.000 C
ATOM      2  C2  NGY C   1      91.766  19.017  30.3910  0.00  0.00     0.000 C
ATOM      3  C3  NGY C   1      90.944  19.652  29.2740  0.00  0.00     0.000 C
ATOM      4  C4  NGY C   1      91.374  19.034  27.9570  0.00  0.00     0.000 C
ATOM      5  C5  NGY C   1      91.116  17.531  28.0140  0.00  0.00     0.000 C
ATOM      6  O5  NGY C   1      91.935  16.969  29.0720  0.00  0.00     0.000 O
ATOM      7   O  NGY C   1      91.139  21.059  29.2920  0.00  0.00     0.000 O
ATOM      9  HD  NGY C   1      91.787  21.610  29.4520  0.00  0.00     0.000 HD
ATOM      9   O  NGY C   1      90.665  19.611  26.8700  0.00  0.00     0.000 O
ATOM     11  HD  NGY C   1      91.313  20.162  27.0290  0.00  0.00     0.000 HD
ENDROOT
BRANCH 2 13
ATOM     11   N  NGY C   1      91.257  19.834  31.4670  0.00  0.00     0.000 N
ATOM     13  HD  NGY C   1      92.006  20.019  31.8610  0.00  0.00     0.000 HD
ATOM     13   C  NGY C   1      92.067  20.371  32.3800  0.00  0.00     0.000 C
ATOM     14   O  NGY C   1      93.262  20.074  32.4230  0.00  0.00     0.000 OA
ATOM     15   C  NGY C   1      91.455  21.364  33.3200  0.00  0.00     0.000 C
ENDBRANCH 2 13
BRANCH 5 16
ATOM     16   C  NGY C   1      91.482  16.777  26.7760  0.00  0.00     0.000 C
ATOM     17   O  NGY C   1      89.066  15.742  24.2160  0.00  0.00     0.000 OA
ATOM     18   O  NGY C   1      90.282  16.356  26.1220  0.00  0.00     0.000 O
ATOM     19   S  NGY C   1      90.436  15.953  24.6110  0.00  0.00     0.000 S
ATOM     20   O  NGY C   1      91.211  14.740  24.5710  0.00  0.00     0.000 OA
ATOM     21   O  NGY C   1      91.103  17.089  23.9960  0.00  0.00     0.000 OA
ENDBRANCH 5 16
BRANCH 1 22
ATOM     22  O4  BDP C   2      90.405  17.157  30.7760  0.00  0.00     0.000 O
BRANCH 22 26
ATOM     23  C1  BDP C   2      87.862  14.576  32.7340  0.00  0.00     0.000 C
ATOM     24  C2  BDP C   2      89.079  15.008  33.5170  0.00  0.00     0.000 C
ATOM     25  C3  BDP C   2      89.710  16.203  32.8520  0.00  0.00     0.000 C
ATOM     26  C4  BDP C   2      89.980  15.907  31.3810  0.00  0.00     0.000 C
ATOM     27  C5  BDP C   2      88.734  15.314  30.7360  0.00  0.00     0.000 C
ATOM     28  O5  BDP C   2      88.267  14.119  31.4130  0.00  0.00     0.000 O
ATOM     29   O  BDP C   2      88.746  15.485  34.8210  0.00  0.00     0.000 O
ATOM     31  HD  BDP C   2      89.222  16.141  35.1260  0.00  0.00     0.000 HD
ATOM     31   O  BDP C   2      90.934  16.456  33.5320  0.00  0.00     0.000 O
ATOM     33  HD  BDP C   2      91.409  17.112  33.8370  0.00  0.00     0.000 HD
BRANCH 27 33
ATOM     33   C  BDP C   2      88.965  14.908  29.3000  0.00  0.00     0.000 C
ATOM     34   O  BDP C   2      88.150  15.190  28.3890  0.00  0.00     0.000 OA
ATOM     35   O  BDP C   2      89.960  14.254  29.0350  0.00  0.00     0.000 OA
ENDBRANCH 27 33
BRANCH 23 36
ATOM     36  O4  SGN C   3      87.128  13.590  33.3010  0.00  0.00     0.000 O
BRANCH 36 40
ATOM     37  C1  SGN C   3      83.304  11.957  33.6760  0.00  0.00     0.000 C
ATOM     38  C2  SGN C   3      84.165  11.494  32.4890  0.00  0.00     0.000 C
ATOM     39  C3  SGN C   3      85.630  11.824  32.7340  0.00  0.00     0.000 C
ATOM     40  C4  SGN C   3      85.759  13.309  32.9960  0.00  0.00     0.000 C
ATOM     41  C5  SGN C   3      84.864  13.679  34.1590  0.00  0.00     0.000 C
ATOM     42  O5  SGN C   3      83.501  13.352  33.8450  0.00  0.00     0.000 O
ATOM     43   O  SGN C   3      86.394  11.439  31.5980  0.00  0.00     0.000 O
ATOM     45  HD  SGN C   3      86.785  12.094  32.0080  0.00  0.00     0.000 HD
BRANCH 38 47
ATOM     45   N  SGN C   3      82.804  11.149  32.0420  0.00  0.00     0.000 N
ATOM     47  HD  SGN C   3      83.375  11.760  32.2670  0.00  0.00     0.000 HD
ATOM     47   S  SGN C   3      82.711   9.654  31.5110  0.00  0.00     0.000 S
ATOM     48   O  SGN C   3      83.469   9.477  30.3230  0.00  0.00     0.000 OA
ATOM     49   O  SGN C   3      83.039   8.808  32.6120  0.00  0.00     0.000 OA
ATOM     50   O  SGN C   3      81.296   9.552  31.1570  0.00  0.00     0.000 OA
ENDBRANCH 38 47
BRANCH 41 51
ATOM     51   C  SGN C   3      84.903  15.137  34.5260  0.00  0.00     0.000 C
ATOM     52   O  SGN C   3      82.661  17.838  33.2800  0.00  0.00     0.000 OA
ATOM     53   O  SGN C   3      83.684  17.577  35.4280  0.00  0.00     0.000 OA
ATOM     54   O  SGN C   3      85.033  17.925  33.4730  0.00  0.00     0.000 OA
ATOM     55   O  SGN C   3      83.848  15.802  33.8680  0.00  0.00     0.000 O
ATOM     56   S  SGN C   3      83.804  17.439  34.0270  0.00  0.00     0.000 S
ENDBRANCH 41 51
BRANCH 37 57
ATOM     57  O4  IDS C   4      83.584  11.343  34.8510  0.00  0.00     0.000 O
BRANCH 57 61
ATOM     58  C1  IDS C   4      82.731   9.160  37.8480  0.00  0.00     0.000 C
ATOM     59  C2  IDS C   4      82.427   8.647  36.4760  0.00  0.00     0.000 C
ATOM     60  C3  IDS C   4      81.881   9.733  35.5460  0.00  0.00     0.000 C
ATOM     61  C4  IDS C   4      82.455  11.132  35.7210  0.00  0.00     0.000 C
ATOM     62  C5  IDS C   4      82.835  11.384  37.1840  0.00  0.00     0.000 C
ATOM     63  O5  IDS C   4      83.568  10.298  37.7330  0.00  0.00     0.000 O
ATOM     64   O  IDS C   4      80.491   9.785  35.8100  0.00  0.00     0.000 O
ATOM     66  HD  IDS C   4      80.281  10.539  36.1810  0.00  0.00     0.000 HD
BRANCH 59 66
ATOM     66   O  IDS C   4      83.633   8.103  35.8210  0.00  0.00     0.000 O
ATOM     67   S  IDS C   4      83.710   6.520  35.6770  0.00  0.00     0.000 S
ATOM     68   O  IDS C   4      82.616   6.217  34.7870  0.00  0.00     0.000 OA
ATOM     69   O  IDS C   4      85.029   6.259  35.1360  0.00  0.00     0.000 OA
ATOM     70   O  IDS C   4      83.496   5.957  37.0020  0.00  0.00     0.000 OA
ENDBRANCH 59 66
BRANCH 62 71
ATOM     71   C  IDS C   4      83.716  12.605  37.3680  0.00  0.00     0.000 C
ATOM     72   O  IDS C   4      83.242  13.720  37.2640  0.00  0.00     0.000 OA
ATOM     73   O  IDS C   4      84.942  12.436  37.5220  0.00  0.00     0.000 OA
ENDBRANCH 62 71
BRANCH 58 74
ATOM     74  O4  SGN C   5      81.664   9.201  38.6960  0.00  0.00     0.000 O
BRANCH 74 78
ATOM     75  C1  SGN C   5      80.287   8.580  42.5900  0.00  0.00     0.000 C
ATOM     76  C2  SGN C   5      81.335   9.695  42.4130  0.00  0.00     0.000 C
ATOM     77  C3  SGN C   5      81.502  10.053  40.9310  0.00  0.00     0.000 C
ATOM     78  C4  SGN C   5      81.673   8.810  40.0690  0.00  0.00     0.000 C
ATOM     79  C5  SGN C   5      80.541   7.835  40.3550  0.00  0.00     0.000 C
ATOM     80  O5  SGN C   5      80.566   7.461  41.7580  0.00  0.00     0.000 O
ATOM     81   O  SGN C   5      82.623  10.919  40.7880  0.00  0.00     0.000 O
ATOM     83  HD  SGN C   5      82.809  11.523  41.3800  0.00  0.00     0.000 HD
BRANCH 76 85
ATOM     83   N  SGN C   5      81.198   9.915  43.8580  0.00  0.00     0.000 N
ATOM     85  HD  SGN C   5      80.889  10.348  44.5420  0.00  0.00     0.000 HD
ATOM     85   S  SGN C   5      81.203  11.296  44.6870  0.00  0.00     0.000 S
ATOM     86   O  SGN C   5      80.993  11.046  46.0710  0.00  0.00     0.000 OA
ATOM     87   O  SGN C   5      82.385  11.995  44.3300  0.00  0.00     0.000 OA
ATOM     88   O  SGN C   5      79.943  11.877  44.0490  0.00  0.00     0.000 OA
ENDBRANCH 76 85
BRANCH 79 89
ATOM     89   C  SGN C   5      80.610   6.569  39.5240  0.00  0.00     0.000 C
ATOM     90   O  SGN C   5      81.656   5.705  40.0330  0.00  0.00     0.000 O
ATOM     91   S  SGN C   5      81.427   4.125  39.8740  0.00  0.00     0.000 S
ATOM     92   O  SGN C   5      80.132   3.843  40.4380  0.00  0.00     0.000 OA
ATOM     93   O  SGN C   5      81.491   3.828  38.4660  0.00  0.00     0.000 OA
ATOM     94   O  SGN C   5      82.513   3.556  40.6240  0.00  0.00     0.000 OA
ENDBRANCH 79 89
BRANCH 75 95
ATOM     95  O4  BDP C   6      79.091   9.134  42.2290  0.00  0.00     0.000 O
BRANCH 95 99
ATOM     96  C1  BDP C   6      75.044   7.860  42.8950  0.00  0.00     0.000 C
ATOM     97  C2  BDP C   6      76.033   7.740  44.0210  0.00  0.00     0.000 C
ATOM     98  C3  BDP C   6      77.319   8.556  43.8230  0.00  0.00     0.000 C
ATOM     99  C4  BDP C   6      77.911   8.329  42.4400  0.00  0.00     0.000 C
ATOM    100  C5  BDP C   6      76.782   8.523  41.4000  0.00  0.00     0.000 C
ATOM    101  O5  BDP C   6      75.818   7.521  41.7600  0.00  0.00     0.000 O
BRANCH 100 102
ATOM    102   C  BDP C   6      77.237   8.245  39.9900  0.00  0.00     0.000 C
ATOM    103   O  BDP C   6      77.343   7.093  39.5430  0.00  0.00     0.000 OA
ATOM    104   O  BDP C   6      77.492   9.226  39.2810  0.00  0.00     0.000 OA
ENDBRANCH 100 102
ENDBRANCH 95 99
ENDBRANCH 75 95
ENDBRANCH 74 78
ENDBRANCH 58 74
ENDBRANCH 57 61
ENDBRANCH 37 57
ENDBRANCH 36 40
ENDBRANCH 23 36
ENDBRANCH 22 26
ENDBRANCH 1 22
TORSDOF 20
ENDMDL
MODEL 69
REMARK VINA RESULT:       0.1     75.389     78.450
ROOT
ATOM      1  C1  NGY C   1      62.514  33.493 103.5770  0.00  0.00     0.000 C
ATOM      2  C2  NGY C   1      62.162  33.858 105.0120  0.00  0.00     0.000 C
ATOM      3  C3  NGY C   1      62.954  32.993 105.9870  0.00  0.00     0.000 C
ATOM      4  C4  NGY C   1      62.706  31.537 105.6420  0.00  0.00     0.000 C
ATOM      5  C5  NGY C   1      63.175  31.286 104.2120  0.00  0.00     0.000 C
ATOM      6  O5  NGY C   1      62.380  32.111 103.3210  0.00  0.00     0.000 O
ATOM      7   O  NGY C   1      62.556  33.302 107.3150  0.00  0.00     0.000 O
ATOM      9  HD  NGY C   1      61.826  33.516 107.7280  0.00  0.00     0.000 HD
ATOM      9   O  NGY C   1      63.392  30.677 106.5390  0.00  0.00     0.000 O
ATOM     11  HD  NGY C   1      62.662  30.891 106.9520  0.00  0.00     0.000 HD
ENDROOT
BRANCH 2 13
ATOM     11   N  NGY C   1      62.300  35.296 105.0350  0.00  0.00     0.000 N
ATOM     13  HD  NGY C   1      61.691  35.480 105.6220  0.00  0.00     0.000 HD
ATOM     13   C  NGY C   1      61.540  36.058 105.8190  0.00  0.00     0.000 C
ATOM     14   O  NGY C   1      60.594  35.580 106.4480  0.00  0.00     0.000 OA
ATOM     15   C  NGY C   1      61.912  37.506 105.9150  0.00  0.00     0.000 C
ENDBRANCH 2 13
BRANCH 5 16
ATOM     16   C  NGY C   1      63.004  29.883 103.7240  0.00  0.00     0.000 C
ATOM     17   O  NGY C   1      59.756  28.366 102.9440  0.00  0.00     0.000 OA
ATOM     18   O  NGY C   1      61.611  29.560 103.7320  0.00  0.00     0.000 O
ATOM     19   S  NGY C   1      61.193  28.328 102.8520  0.00  0.00     0.000 S
ATOM     20   O  NGY C   1      61.751  27.154 103.4720  0.00  0.00     0.000 OA
ATOM     21   O  NGY C   1      61.749  28.610 101.5390  0.00  0.00     0.000 OA
ENDBRANCH 5 16
BRANCH 1 22
ATOM     22  O4  BDP C   2      63.752  33.954 103.3020  0.00  0.00     0.000 O
BRANCH 22 26
ATOM     23  C1  BDP C   2      66.563  35.437 100.6820  0.00  0.00     0.000 C
ATOM     24  C2  BDP C   2      65.326  36.286 100.8570  0.00  0.00     0.000 C
ATOM     25  C3  BDP C   2      64.573  35.836 102.0810  0.00  0.00     0.000 C
ATOM     26  C4  BDP C   2      64.304  34.336 102.0140  0.00  0.00     0.000 C
ATOM     27  C5  BDP C   2      65.587  33.596 101.6600  0.00  0.00     0.000 C
ATOM     28  O5  BDP C   2      66.177  34.059 100.4180  0.00  0.00     0.000 O
ATOM     29   O  BDP C   2      65.638  37.651 101.1370  0.00  0.00     0.000 O
ATOM     31  HD  BDP C   2      65.109  38.065 101.6830  0.00  0.00     0.000 HD
ATOM     31   O  BDP C   2      63.345  36.552 102.0970  0.00  0.00     0.000 O
ATOM     33  HD  BDP C   2      62.816  36.966 102.6440  0.00  0.00     0.000 HD
BRANCH 27 33
ATOM     33   C  BDP C   2      65.368  32.113 101.4820  0.00  0.00     0.000 C
ATOM     34   O  BDP C   2      64.414  31.657 100.8080  0.00  0.00     0.000 OA
ATOM     35   O  BDP C   2      66.129  31.342 102.0440  0.00  0.00     0.000 OA
ENDBRANCH 27 33
BRANCH 23 36
ATOM     36  O4  SGN C   3      67.397  35.825  99.6900  0.00  0.00     0.000 O
BRANCH 36 40
ATOM     37  C1  SGN C   3      71.383  36.287  98.5370  0.00  0.00     0.000 C
ATOM     38  C2  SGN C   3      70.758  34.889  98.4010  0.00  0.00     0.000 C
ATOM     39  C3  SGN C   3      69.239  34.980  98.4350  0.00  0.00     0.000 C
ATOM     40  C4  SGN C   3      68.820  35.679  99.7100  0.00  0.00     0.000 C
ATOM     41  C5  SGN C   3      69.497  37.030  99.7720  0.00  0.00     0.000 C
ATOM     42  O5  SGN C   3      70.923  36.859  99.7510  0.00  0.00     0.000 O
ATOM     43   O  SGN C   3      68.689  33.670  98.3670  0.00  0.00     0.000 O
ATOM     45  HD  SGN C   3      68.145  34.197  98.7850  0.00  0.00     0.000 HD
BRANCH 38 47
ATOM     45   N  SGN C   3      72.181  34.513  98.4600  0.00  0.00     0.000 N
ATOM     47  HD  SGN C   3      71.483  34.826  98.8650  0.00  0.00     0.000 HD
ATOM     47   S  SGN C   3      72.618  33.629  97.2130  0.00  0.00     0.000 S
ATOM     48   O  SGN C   3      71.974  32.364  97.2240  0.00  0.00     0.000 OA
ATOM     49   O  SGN C   3      72.424  34.436  96.0530  0.00  0.00     0.000 OA
ATOM     50   O  SGN C   3      74.037  33.410  97.4860  0.00  0.00     0.000 OA
ENDBRANCH 38 47
BRANCH 41 51
ATOM     51   C  SGN C   3      69.158  37.833 100.9980  0.00  0.00     0.000 C
ATOM     52   O  SGN C   3      71.020  40.756 102.3650  0.00  0.00     0.000 OA
ATOM     53   O  SGN C   3      68.668  40.307 102.3750  0.00  0.00     0.000 OA
ATOM     54   O  SGN C   3      70.182  38.894 103.5910  0.00  0.00     0.000 OA
ATOM     55   O  SGN C   3      70.093  38.881 101.1290  0.00  0.00     0.000 O
ATOM     56   S  SGN C   3      69.979  39.794 102.4940  0.00  0.00     0.000 S
ENDBRANCH 41 51
BRANCH 37 57
ATOM     57  O4  IDS C   4      71.086  37.140  97.5270  0.00  0.00     0.000 O
BRANCH 57 61
ATOM     58  C1  IDS C   4      72.944  39.649  95.3530  0.00  0.00     0.000 C
ATOM     59  C2  IDS C   4      73.739  38.686  96.1770  0.00  0.00     0.000 C
ATOM     60  C3  IDS C   4      73.140  38.465  97.5690  0.00  0.00     0.000 C
ATOM     61  C4  IDS C   4      71.621  38.471  97.6660  0.00  0.00     0.000 C
ATOM     62  C5  IDS C   4      71.014  39.417  96.6240  0.00  0.00     0.000 C
ATOM     63  O5  IDS C   4      71.591  39.228  95.3400  0.00  0.00     0.000 O
ATOM     64   O  IDS C   4      73.642  39.524  98.3620  0.00  0.00     0.000 O
ATOM     66  HD  IDS C   4      73.001  40.058  98.5950  0.00  0.00     0.000 HD
BRANCH 59 66
ATOM     66   O  IDS C   4      73.813  37.358  95.5390  0.00  0.00     0.000 O
ATOM     67   S  IDS C   4      75.271  36.788  95.2520  0.00  0.00     0.000 S
ATOM     68   O  IDS C   4      75.821  36.612  96.5750  0.00  0.00     0.000 OA
ATOM     69   O  IDS C   4      75.054  35.560  94.5130  0.00  0.00     0.000 OA
ATOM     70   O  IDS C   4      75.991  37.806  94.5030  0.00  0.00     0.000 OA
ENDBRANCH 59 66
BRANCH 62 71
ATOM     71   C  IDS C   4      69.522  39.216  96.4360  0.00  0.00     0.000 C
ATOM     72   O  IDS C   4      69.090  38.822  95.3700  0.00  0.00     0.000 OA
ATOM     73   O  IDS C   4      68.755  39.562  97.3570  0.00  0.00     0.000 OA
ENDBRANCH 62 71
BRANCH 58 74
ATOM     74  O4  SGN C   5      73.231  40.964  95.5690  0.00  0.00     0.000 O
BRANCH 74 78
ATOM     75  C1  SGN C   5      73.714  44.749  93.8720  0.00  0.00     0.000 C
ATOM     76  C2  SGN C   5      72.267  44.228  93.9600  0.00  0.00     0.000 C
ATOM     77  C3  SGN C   5      72.185  43.012  94.8920  0.00  0.00     0.000 C
ATOM     78  C4  SGN C   5      73.264  41.987  94.5740  0.00  0.00     0.000 C
ATOM     79  C5  SGN C   5      74.623  42.670  94.5540  0.00  0.00     0.000 C
ATOM     80  O5  SGN C   5      74.627  43.711  93.5410  0.00  0.00     0.000 O
ATOM     81   O  SGN C   5      70.891  42.428  94.7770  0.00  0.00     0.000 O
ATOM     83  HD  SGN C   5      70.182  42.913  94.6710  0.00  0.00     0.000 HD
BRANCH 76 85
ATOM     83   N  SGN C   5      71.813  45.451  93.2860  0.00  0.00     0.000 N
ATOM     85  HD  SGN C   5      71.517  46.265  93.2920  0.00  0.00     0.000 HD
ATOM     85   S  SGN C   5      70.593  46.433  93.6630  0.00  0.00     0.000 S
ATOM     86   O  SGN C   5      70.542  47.530  92.7600  0.00  0.00     0.000 OA
ATOM     87   O  SGN C   5      69.428  45.630  93.7710  0.00  0.00     0.000 OA
ATOM     88   O  SGN C   5      71.148  46.875  95.0150  0.00  0.00     0.000 OA
ENDBRANCH 76 85
BRANCH 79 89
ATOM     89   C  SGN C   5      75.771  41.724  94.2680  0.00  0.00     0.000 C
ATOM     90   O  SGN C   5      76.007  41.657  92.8400  0.00  0.00     0.000 O
ATOM     91   S  SGN C   5      77.520  41.397  92.3700  0.00  0.00     0.000 S
ATOM     92   O  SGN C   5      78.327  42.388  93.0340  0.00  0.00     0.000 OA
ATOM     93   O  SGN C   5      77.861  40.055  92.7650  0.00  0.00     0.000 OA
ATOM     94   O  SGN C   5      77.457  41.571  90.9440  0.00  0.00     0.000 OA
ENDBRANCH 79 89
BRANCH 75 95
ATOM     95  O4  BDP C   6      74.008  45.241  95.1130  0.00  0.00     0.000 O
BRANCH 95 99
ATOM     96  C1  BDP C   6      76.859  48.412  95.6220  0.00  0.00     0.000 C
ATOM     97  C2  BDP C   6      76.701  47.796  94.2610  0.00  0.00     0.000 C
ATOM     98  C3  BDP C   6      75.422  46.963  94.0870  0.00  0.00     0.000 C
ATOM     99  C4  BDP C   6      75.235  45.990  95.2430  0.00  0.00     0.000 C
ATOM    100  C5  BDP C   6      75.393  46.781  96.5630  0.00  0.00     0.000 C
ATOM    101  O5  BDP C   6      76.731  47.299  96.4870  0.00  0.00     0.000 O
BRANCH 100 102
ATOM    102   C  BDP C   6      75.304  45.899  97.7820  0.00  0.00     0.000 C
ATOM    103   O  BDP C   6      74.386  46.002  98.6080  0.00  0.00     0.000 OA
ATOM    104   O  BDP C   6      76.190  45.048  97.9220  0.00  0.00     0.000 OA
ENDBRANCH 100 102
ENDBRANCH 95 99
ENDBRANCH 75 95
ENDBRANCH 74 78
ENDBRANCH 58 74
ENDBRANCH 57 61
ENDBRANCH 37 57
ENDBRANCH 36 40
ENDBRANCH 23 36
ENDBRANCH 22 26
ENDBRANCH 1 22
TORSDOF 20
ENDMDL
MODEL 70
REMARK VINA RESULT:       0.1     70.857     76.873
ROOT
ATOM      1  C1  NGY C   1     106.379  20.623  42.7100  0.00  0.00     0.000 C
ATOM      2  C2  NGY C   1     105.663  21.805  42.0710  0.00  0.00     0.000 C
ATOM      3  C3  NGY C   1     104.871  21.347  40.8510  0.00  0.00     0.000 C
ATOM      4  C4  NGY C   1     105.817  20.619  39.9160  0.00  0.00     0.000 C
ATOM      5  C5  NGY C   1     106.401  19.415  40.6490  0.00  0.00     0.000 C
ATOM      6  O5  NGY C   1     107.163  19.900  41.7850  0.00  0.00     0.000 O
ATOM      7   O  NGY C   1     104.272  22.476  40.2320  0.00  0.00     0.000 O
ATOM      9  HD  NGY C   1     104.475  23.305  40.0850  0.00  0.00     0.000 HD
ATOM      9   O  NGY C   1     105.143  20.195  38.7390  0.00  0.00     0.000 O
ATOM     11  HD  NGY C   1     105.347  21.024  38.5920  0.00  0.00     0.000 HD
ENDROOT
BRANCH 2 13
ATOM     11   N  NGY C   1     105.065  22.442  43.2210  0.00  0.00     0.000 N
ATOM     13  HD  NGY C   1     105.015  23.251  42.9150  0.00  0.00     0.000 HD
ATOM     13   C  NGY C   1     104.786  23.745  43.2310  0.00  0.00     0.000 C
ATOM     14   O  NGY C   1     105.157  24.483  42.3160  0.00  0.00     0.000 OA
ATOM     15   C  NGY C   1     103.981  24.252  44.3880  0.00  0.00     0.000 C
ENDBRANCH 2 13
BRANCH 5 16
ATOM     16   C  NGY C   1     107.353  18.584  39.8490  0.00  0.00     0.000 C
ATOM     17   O  NGY C   1     110.686  19.713  38.8120  0.00  0.00     0.000 OA
ATOM     18   O  NGY C   1     108.452  19.405  39.4440  0.00  0.00     0.000 O
ATOM     19   S  NGY C   1     109.746  18.636  38.9940  0.00  0.00     0.000 S
ATOM     20   O  NGY C   1     109.434  17.965  37.7590  0.00  0.00     0.000 OA
ATOM     21   O  NGY C   1     110.032  17.727  40.0930  0.00  0.00     0.000 OA
ENDBRANCH 5 16
BRANCH 1 22
ATOM     22  O4  BDP C   2     105.468  19.849  43.3350  0.00  0.00     0.000 O
BRANCH 22 26
ATOM     23  C1  BDP C   2     104.374  17.250  46.3380  0.00  0.00     0.000 C
ATOM     24  C2  BDP C   2     104.808  18.623  46.7930  0.00  0.00     0.000 C
ATOM     25  C3  BDP C   2     104.822  19.565  45.6170  0.00  0.00     0.000 C
ATOM     26  C4  BDP C   2     105.661  18.982  44.4840  0.00  0.00     0.000 C
ATOM     27  C5  BDP C   2     105.254  17.537  44.2300  0.00  0.00     0.000 C
ATOM     28  O5  BDP C   2     105.361  16.707  45.4150  0.00  0.00     0.000 O
ATOM     29   O  BDP C   2     103.871  19.220  47.6900  0.00  0.00     0.000 O
ATOM     31  HD  BDP C   2     103.764  20.077  47.6250  0.00  0.00     0.000 HD
ATOM     31   O  BDP C   2     105.394  20.785  46.0710  0.00  0.00     0.000 O
ATOM     33  HD  BDP C   2     105.287  21.642  46.0060  0.00  0.00     0.000 HD
BRANCH 27 33
ATOM     33   C  BDP C   2     106.115  16.870  43.1840  0.00  0.00     0.000 C
ATOM     34   O  BDP C   2     105.621  16.240  42.2180  0.00  0.00     0.000 OA
ATOM     35   O  BDP C   2     107.327  16.923  43.3100  0.00  0.00     0.000 OA
ENDBRANCH 27 33
BRANCH 23 36
ATOM     36  O4  SGN C   3     104.195  16.342  47.3250  0.00  0.00     0.000 O
BRANCH 36 40
ATOM     37  C1  SGN C   3     101.846  13.173  48.6910  0.00  0.00     0.000 C
ATOM     38  C2  SGN C   3     102.938  12.858  47.6570  0.00  0.00     0.000 C
ATOM     39  C3  SGN C   3     103.958  13.986  47.5990  0.00  0.00     0.000 C
ATOM     40  C4  SGN C   3     103.235  15.282  47.2990  0.00  0.00     0.000 C
ATOM     41  C5  SGN C   3     102.168  15.499  48.3490  0.00  0.00     0.000 C
ATOM     42  O5  SGN C   3     101.239  14.404  48.3310  0.00  0.00     0.000 O
ATOM     43   O  SGN C   3     104.921  13.696  46.5930  0.00  0.00     0.000 O
ATOM     45  HD  SGN C   3     104.851  14.553  46.6960  0.00  0.00     0.000 HD
BRANCH 38 47
ATOM     45   N  SGN C   3     102.034  11.702  47.5190  0.00  0.00     0.000 N
ATOM     47  HD  SGN C   3     102.158  12.556  47.4450  0.00  0.00     0.000 HD
ATOM     47   S  SGN C   3     102.819  10.321  47.5690  0.00  0.00     0.000 S
ATOM     48   O  SGN C   3     103.671  10.168  46.4440  0.00  0.00     0.000 OA
ATOM     49   O  SGN C   3     103.434  10.247  48.8540  0.00  0.00     0.000 OA
ATOM     50   O  SGN C   3     101.729   9.355  47.4380  0.00  0.00     0.000 OA
ENDBRANCH 38 47
BRANCH 41 51
ATOM     51   C  SGN C   3     101.375  16.765  48.1680  0.00  0.00     0.000 C
ATOM     52   O  SGN C   3      97.666  17.118  48.1480  0.00  0.00     0.000 OA
ATOM     53   O  SGN C   3      99.338  18.635  48.9460  0.00  0.00     0.000 OA
ATOM     54   O  SGN C   3      99.203  18.091  46.6110  0.00  0.00     0.000 OA
ATOM     55   O  SGN C   3     100.002  16.461  48.2770  0.00  0.00     0.000 O
ATOM     56   S  SGN C   3      98.955  17.693  47.9650  0.00  0.00     0.000 S
ENDBRANCH 41 51
BRANCH 37 57
ATOM     57  O4  IDS C   4     102.289  13.277  49.9680  0.00  0.00     0.000 O
BRANCH 57 61
ATOM     58  C1  IDS C   4     102.378  12.184  53.6110  0.00  0.00     0.000 C
ATOM     59  C2  IDS C   4     102.439  11.136  52.5450  0.00  0.00     0.000 C
ATOM     60  C3  IDS C   4     101.505  11.433  51.3690  0.00  0.00     0.000 C
ATOM     61  C4  IDS C   4     101.340  12.896  50.9830  0.00  0.00     0.000 C
ATOM     62  C5  IDS C   4     101.464  13.801  52.2150  0.00  0.00     0.000 C
ATOM     63  O5  IDS C   4     102.586  13.453  53.0140  0.00  0.00     0.000 O
ATOM     64   O  IDS C   4     100.242  10.930  51.7610  0.00  0.00     0.000 O
ATOM     66  HD  IDS C   4      99.678  11.579  51.8710  0.00  0.00     0.000 HD
BRANCH 59 66
ATOM     66   O  IDS C   4     103.797  11.015  51.9810  0.00  0.00     0.000 O
ATOM     67   S  IDS C   4     104.630   9.727  52.4030  0.00  0.00     0.000 S
ATOM     68   O  IDS C   4     103.873   8.642  51.8260  0.00  0.00     0.000 OA
ATOM     69   O  IDS C   4     105.945   9.927  51.8280  0.00  0.00     0.000 OA
ATOM     70   O  IDS C   4     104.626   9.669  53.8570  0.00  0.00     0.000 OA
ENDBRANCH 59 66
BRANCH 62 71
ATOM     71   C  IDS C   4     101.651  15.264  51.8620  0.00  0.00     0.000 C
ATOM     72   O  IDS C   4     100.693  15.944  51.5500  0.00  0.00     0.000 OA
ATOM     73   O  IDS C   4     102.812  15.716  51.7990  0.00  0.00     0.000 OA
ENDBRANCH 62 71
BRANCH 58 74
ATOM     74  O4  SGN C   5     101.367  12.030  54.5120  0.00  0.00     0.000 O
BRANCH 74 78
ATOM     75  C1  SGN C   5     100.217  12.209  58.5230  0.00  0.00     0.000 C
ATOM     76  C2  SGN C   5     100.558  13.555  57.8570  0.00  0.00     0.000 C
ATOM     77  C3  SGN C   5     100.626  13.404  56.3320  0.00  0.00     0.000 C
ATOM     78  C4  SGN C   5     101.472  12.206  55.9250  0.00  0.00     0.000 C
ATOM     79  C5  SGN C   5     100.980  10.966  56.6570  0.00  0.00     0.000 C
ATOM     80  O5  SGN C   5     101.089  11.173  58.0900  0.00  0.00     0.000 O
ATOM     81   O  SGN C   5     101.155  14.602  55.7720  0.00  0.00     0.000 O
ATOM     83  HD  SGN C   5     100.962  15.380  56.1000  0.00  0.00     0.000 HD
BRANCH 76 85
ATOM     83   N  SGN C   5     100.140  14.935  58.1350  0.00  0.00     0.000 N
ATOM     85  HD  SGN C   5     100.065  15.624  58.6550  0.00  0.00     0.000 HD
ATOM     85   S  SGN C   5      99.458  15.551  59.4580  0.00  0.00     0.000 S
ATOM     86   O  SGN C   5      99.263  16.951  59.3110  0.00  0.00     0.000 OA
ATOM     87   O  SGN C   5      98.311  14.765  59.7420  0.00  0.00     0.000 OA
ATOM     88   O  SGN C   5     100.629  15.267  60.3960  0.00  0.00     0.000 OA
ENDBRANCH 76 85
BRANCH 79 89
ATOM     89   C  SGN C   5     101.747   9.709  56.2980  0.00  0.00     0.000 C
ATOM     90   O  SGN C   5     102.936   9.609  57.1210  0.00  0.00     0.000 O
ATOM     91   S  SGN C   5     103.439   8.129  57.4830  0.00  0.00     0.000 S
ATOM     92   O  SGN C   5     102.304   7.438  58.0380  0.00  0.00     0.000 OA
ATOM     93   O  SGN C   5     103.905   7.528  56.2600  0.00  0.00     0.000 OA
ATOM     94   O  SGN C   5     104.489   8.361  58.4370  0.00  0.00     0.000 OA
ENDBRANCH 79 89
BRANCH 75 95
ATOM     95  O4  BDP C   6      98.936  11.920  58.1440  0.00  0.00     0.000 O
BRANCH 95 99
ATOM     96  C1  BDP C   6      96.449   9.491  60.6650  0.00  0.00     0.000 C
ATOM     97  C2  BDP C   6      97.918   9.579  60.9700  0.00  0.00     0.000 C
ATOM     98  C3  BDP C   6      98.641  10.743  60.2750  0.00  0.00     0.000 C
ATOM     99  C4  BDP C   6      98.302  10.797  58.7930  0.00  0.00     0.000 C
ATOM    100  C5  BDP C   6      96.763  10.732  58.6510  0.00  0.00     0.000 C
ATOM    101  O5  BDP C   6      96.423   9.471  59.2500  0.00  0.00     0.000 O
BRANCH 100 102
ATOM    102   C  BDP C   6      96.313  10.699  57.2130  0.00  0.00     0.000 C
ATOM    103   O  BDP C   6      96.494   9.713  56.4840  0.00  0.00     0.000 OA
ATOM    104   O  BDP C   6      95.735  11.706  56.7850  0.00  0.00     0.000 OA
ENDBRANCH 100 102
ENDBRANCH 95 99
ENDBRANCH 75 95
ENDBRANCH 74 78
ENDBRANCH 58 74
ENDBRANCH 57 61
ENDBRANCH 37 57
ENDBRANCH 36 40
ENDBRANCH 23 36
ENDBRANCH 22 26
ENDBRANCH 1 22
TORSDOF 20
ENDMDL
MODEL 71
REMARK VINA RESULT:       0.1     92.996     99.317
ROOT
ATOM      1  C1  NGY C   1      69.561  78.957  85.7020  0.00  0.00     0.000 C
ATOM      2  C2  NGY C   1      69.158  77.622  85.0920  0.00  0.00     0.000 C
ATOM      3  C3  NGY C   1      68.170  77.839  83.9500  0.00  0.00     0.000 C
ATOM      4  C4  NGY C   1      67.006  78.656  84.4770  0.00  0.00     0.000 C
ATOM      5  C5  NGY C   1      67.535  79.996  84.9800  0.00  0.00     0.000 C
ATOM      6  O5  NGY C   1      68.449  79.741  86.0780  0.00  0.00     0.000 O
ATOM      7   O  NGY C   1      67.754  76.578  83.4460  0.00  0.00     0.000 O
ATOM      9  HD  NGY C   1      67.579  75.792  83.7630  0.00  0.00     0.000 HD
ATOM      9   O  NGY C   1      66.032  78.865  83.4640  0.00  0.00     0.000 O
ATOM     11  HD  NGY C   1      65.858  78.078  83.7810  0.00  0.00     0.000 HD
ENDROOT
BRANCH 2 13
ATOM     11   N  NGY C   1      69.685  76.492  84.3640  0.00  0.00     0.000 N
ATOM     13  HD  NGY C   1      70.192  76.159  84.9820  0.00  0.00     0.000 HD
ATOM     13   C  NGY C   1      70.550  75.645  84.9210  0.00  0.00     0.000 C
ATOM     14   O  NGY C   1      71.043  75.873  86.0270  0.00  0.00     0.000 OA
ATOM     15   C  NGY C   1      70.865  74.401  84.1480  0.00  0.00     0.000 C
ENDBRANCH 2 13
BRANCH 5 16
ATOM     16   C  NGY C   1      66.498  80.924  85.5260  0.00  0.00     0.000 C
ATOM     17   O  NGY C   1      65.067  83.732  83.6470  0.00  0.00     0.000 OA
ATOM     18   O  NGY C   1      66.332  82.015  84.6160  0.00  0.00     0.000 O
ATOM     19   S  NGY C   1      65.005  82.840  84.7770  0.00  0.00     0.000 S
ATOM     20   O  NGY C   1      65.087  83.539  86.0320  0.00  0.00     0.000 OA
ATOM     21   O  NGY C   1      63.947  81.843  84.7360  0.00  0.00     0.000 OA
ENDBRANCH 5 16
BRANCH 1 22
ATOM     22  O4  BDP C   2      70.381  79.597  84.8410  0.00  0.00     0.000 O
BRANCH 22 26
ATOM     23  C1  BDP C   2      73.649  82.003  84.1340  0.00  0.00     0.000 C
ATOM     24  C2  BDP C   2      73.846  80.929  85.1770  0.00  0.00     0.000 C
ATOM     25  C3  BDP C   2      72.736  79.915  85.0760  0.00  0.00     0.000 C
ATOM     26  C4  BDP C   2      71.380  80.610  85.1350  0.00  0.00     0.000 C
ATOM     27  C5  BDP C   2      71.357  81.784  84.1660  0.00  0.00     0.000 C
ATOM     28  O5  BDP C   2      72.423  82.737  84.4140  0.00  0.00     0.000 O
ATOM     29   O  BDP C   2      75.027  80.159  84.9490  0.00  0.00     0.000 O
ATOM     31  HD  BDP C   2      74.984  79.317  85.1450  0.00  0.00     0.000 HD
ATOM     31   O  BDP C   2      72.882  79.031  86.1800  0.00  0.00     0.000 O
ATOM     33  HD  BDP C   2      72.839  78.189  86.3760  0.00  0.00     0.000 HD
BRANCH 27 33
ATOM     33   C  BDP C   2      70.074  82.575  84.2460  0.00  0.00     0.000 C
ATOM     34   O  BDP C   2      69.730  83.181  85.2890  0.00  0.00     0.000 OA
ATOM     35   O  BDP C   2      69.339  82.590  83.2730  0.00  0.00     0.000 OA
ENDBRANCH 27 33
BRANCH 23 36
ATOM     36  O4  SGN C   3      74.652  82.906  84.0340  0.00  0.00     0.000 O
BRANCH 36 40
ATOM     37  C1  SGN C   3      76.845  85.329  81.4370  0.00  0.00     0.000 C
ATOM     38  C2  SGN C   3      75.494  85.862  81.9410  0.00  0.00     0.000 C
ATOM     39  C3  SGN C   3      75.047  85.094  83.1770  0.00  0.00     0.000 C
ATOM     40  C4  SGN C   3      74.998  83.619  82.8440  0.00  0.00     0.000 C
ATOM     41  C5  SGN C   3      76.356  83.188  82.3370  0.00  0.00     0.000 C
ATOM     42  O5  SGN C   3      76.699  83.944  81.1650  0.00  0.00     0.000 O
ATOM     43   O  SGN C   3      73.769  85.567  83.5850  0.00  0.00     0.000 O
ATOM     45  HD  SGN C   3      73.870  84.742  83.8290  0.00  0.00     0.000 HD
BRANCH 38 47
ATOM     45   N  SGN C   3      75.830  87.267  82.2330  0.00  0.00     0.000 N
ATOM     47  HD  SGN C   3      75.900  86.430  82.4480  0.00  0.00     0.000 HD
ATOM     47   S  SGN C   3      75.514  88.224  81.0040  0.00  0.00     0.000 S
ATOM     48   O  SGN C   3      76.354  87.940  79.8960  0.00  0.00     0.000 OA
ATOM     49   O  SGN C   3      74.107  88.147  80.7780  0.00  0.00     0.000 OA
ATOM     50   O  SGN C   3      75.903  89.529  81.5360  0.00  0.00     0.000 OA
ENDBRANCH 38 47
BRANCH 41 51
ATOM     51   C  SGN C   3      76.444  81.731  81.9730  0.00  0.00     0.000 C
ATOM     52   O  SGN C   3      78.600  79.137  83.5550  0.00  0.00     0.000 OA
ATOM     53   O  SGN C   3      76.407  78.931  82.6170  0.00  0.00     0.000 OA
ATOM     54   O  SGN C   3      78.277  79.500  81.2230  0.00  0.00     0.000 OA
ATOM     55   O  SGN C   3      77.344  81.095  82.8530  0.00  0.00     0.000 O
ATOM     56   S  SGN C   3      77.689  79.518  82.5300  0.00  0.00     0.000 S
ENDBRANCH 41 51
BRANCH 37 57
ATOM     57  O4  IDS C   4      77.874  85.484  82.3060  0.00  0.00     0.000 O
BRANCH 57 61
ATOM     58  C1  IDS C   4      81.217  87.016  83.2780  0.00  0.00     0.000 C
ATOM     59  C2  IDS C   4      80.202  87.879  82.5980  0.00  0.00     0.000 C
ATOM     60  C3  IDS C   4      79.460  87.148  81.4760  0.00  0.00     0.000 C
ATOM     61  C4  IDS C   4      79.168  85.671  81.7030  0.00  0.00     0.000 C
ATOM     62  C5  IDS C   4      80.268  85.024  82.5520  0.00  0.00     0.000 C
ATOM     63  O5  IDS C   4      80.589  85.813  83.6880  0.00  0.00     0.000 O
ATOM     64   O  IDS C   4      80.293  87.268  80.3390  0.00  0.00     0.000 O
ATOM     66  HD  IDS C   4      80.607  86.495  80.1100  0.00  0.00     0.000 HD
BRANCH 59 66
ATOM     66   O  IDS C   4      79.172  88.352  83.5420  0.00  0.00     0.000 O
ATOM     67   S  IDS C   4      79.211  89.897  83.9220  0.00  0.00     0.000 S
ATOM     68   O  IDS C   4      78.917  90.551  82.6700  0.00  0.00     0.000 OA
ATOM     69   O  IDS C   4      78.198  90.055  84.9470  0.00  0.00     0.000 OA
ATOM     70   O  IDS C   4      80.560  90.193  84.3790  0.00  0.00     0.000 OA
ENDBRANCH 59 66
BRANCH 62 71
ATOM     71   C  IDS C   4      79.875  83.664  83.0970  0.00  0.00     0.000 C
ATOM     72   O  IDS C   4      79.438  83.563  84.2270  0.00  0.00     0.000 OA
ATOM     73   O  IDS C   4      80.109  82.655  82.4020  0.00  0.00     0.000 OA
ENDBRANCH 62 71
BRANCH 58 74
ATOM     74  O4  SGN C   5      82.430  86.957  82.6580  0.00  0.00     0.000 O
BRANCH 74 78
ATOM     75  C1  SGN C   5      86.573  86.732  83.1380  0.00  0.00     0.000 C
ATOM     76  C2  SGN C   5      85.802  85.408  83.2920  0.00  0.00     0.000 C
ATOM     77  C3  SGN C   5      84.368  85.550  82.7640  0.00  0.00     0.000 C
ATOM     78  C4  SGN C   5      83.693  86.802  83.3060  0.00  0.00     0.000 C
ATOM     79  C5  SGN C   5      84.580  88.010  83.0450  0.00  0.00     0.000 C
ATOM     80  O5  SGN C   5      85.860  87.824  83.7050  0.00  0.00     0.000 O
ATOM     81   O  SGN C   5      83.627  84.388  83.1210  0.00  0.00     0.000 O
ATOM     83  HD  SGN C   5      83.989  83.601  83.1210  0.00  0.00     0.000 HD
BRANCH 76 85
ATOM     83   N  SGN C   5      86.465  84.323  82.5570  0.00  0.00     0.000 N
ATOM     85  HD  SGN C   5      86.815  83.533  82.5080  0.00  0.00     0.000 HD
ATOM     85   S  SGN C   5      87.663  83.354  83.0250  0.00  0.00     0.000 S
ATOM     86   O  SGN C   5      87.965  82.410  82.0060  0.00  0.00     0.000 OA
ATOM     87   O  SGN C   5      88.724  84.184  83.4720  0.00  0.00     0.000 OA
ATOM     88   O  SGN C   5      86.900  82.687  84.1670  0.00  0.00     0.000 OA
ENDBRANCH 76 85
BRANCH 79 89
ATOM     89   C  SGN C   5      83.980  89.315  83.5290  0.00  0.00     0.000 C
ATOM     90   O  SGN C   5      84.973  90.065  84.2720  0.00  0.00     0.000 O
ATOM     91   S  SGN C   5      84.869  91.665  84.2020  0.00  0.00     0.000 S
ATOM     92   O  SGN C   5      84.825  92.009  82.8050  0.00  0.00     0.000 OA
ATOM     93   O  SGN C   5      83.666  92.042  84.9000  0.00  0.00     0.000 OA
ATOM     94   O  SGN C   5      86.069  92.103  84.8620  0.00  0.00     0.000 OA
ENDBRANCH 79 89
BRANCH 75 95
ATOM     95  O4  BDP C   6      86.714  86.926  81.7930  0.00  0.00     0.000 O
BRANCH 95 99
ATOM     96  C1  BDP C   6      89.543  89.273  79.5720  0.00  0.00     0.000 C
ATOM     97  C2  BDP C   6      90.012  88.557  80.8070  0.00  0.00     0.000 C
ATOM     98  C3  BDP C   6      89.058  87.461  81.3040  0.00  0.00     0.000 C
ATOM     99  C4  BDP C   6      87.625  87.967  81.3770  0.00  0.00     0.000 C
ATOM    100  C5  BDP C   6      87.287  88.642  80.0260  0.00  0.00     0.000 C
ATOM    101  O5  BDP C   6      88.246  89.708  79.9340  0.00  0.00     0.000 O
BRANCH 100 102
ATOM    102   C  BDP C   6      85.909  89.253  80.0100  0.00  0.00     0.000 C
ATOM    103   O  BDP C   6      85.690  90.401  80.4240  0.00  0.00     0.000 OA
ATOM    104   O  BDP C   6      84.995  88.559  79.5490  0.00  0.00     0.000 OA
ENDBRANCH 100 102
ENDBRANCH 95 99
ENDBRANCH 75 95
ENDBRANCH 74 78
ENDBRANCH 58 74
ENDBRANCH 57 61
ENDBRANCH 37 57
ENDBRANCH 36 40
ENDBRANCH 23 36
ENDBRANCH 22 26
ENDBRANCH 1 22
TORSDOF 20
ENDMDL
MODEL 72
REMARK VINA RESULT:       0.1     94.752    101.072
ROOT
ATOM      1  C1  NGY C   1      70.651  80.200  85.9430  0.00  0.00     0.000 C
ATOM      2  C2  NGY C   1      70.278  78.891  85.2600  0.00  0.00     0.000 C
ATOM      3  C3  NGY C   1      69.154  79.121  84.2550  0.00  0.00     0.000 C
ATOM      4  C4  NGY C   1      68.001  79.794  84.9760  0.00  0.00     0.000 C
ATOM      5  C5  NGY C   1      68.487  81.126  85.5400  0.00  0.00     0.000 C
ATOM      6  O5  NGY C   1      69.535  80.856  86.5060  0.00  0.00     0.000 O
ATOM      7   O  NGY C   1      68.774  77.877  83.6850  0.00  0.00     0.000 O
ATOM      9  HD  NGY C   1      68.694  77.055  83.9460  0.00  0.00     0.000 HD
ATOM      9   O  NGY C   1      66.906  80.006  84.0970  0.00  0.00     0.000 O
ATOM     11  HD  NGY C   1      66.826  79.184  84.3570  0.00  0.00     0.000 HD
ENDROOT
BRANCH 2 13
ATOM     11   N  NGY C   1      71.505  78.157  85.4580  0.00  0.00     0.000 N
ATOM     13  HD  NGY C   1      71.380  77.527  84.8770  0.00  0.00     0.000 HD
ATOM     13   C  NGY C   1      71.780  77.055  84.7610  0.00  0.00     0.000 C
ATOM     14   O  NGY C   1      70.937  76.541  84.0240  0.00  0.00     0.000 OA
ATOM     15   C  NGY C   1      73.165  76.500  84.8990  0.00  0.00     0.000 C
ENDBRANCH 2 13
BRANCH 5 16
ATOM     16   C  NGY C   1      67.454  81.918  86.2760  0.00  0.00     0.000 C
ATOM     17   O  NGY C   1      68.215  84.226  89.0250  0.00  0.00     0.000 OA
ATOM     18   O  NGY C   1      68.070  82.535  87.4100  0.00  0.00     0.000 O
ATOM     19   S  NGY C   1      67.283  83.741  88.0390  0.00  0.00     0.000 S
ATOM     20   O  NGY C   1      66.086  83.205  88.6330  0.00  0.00     0.000 OA
ATOM     21   O  NGY C   1      67.026  84.634  86.9200  0.00  0.00     0.000 OA
ENDBRANCH 5 16
BRANCH 1 22
ATOM     22  O4  BDP C   2      71.319  80.974  85.0620  0.00  0.00     0.000 O
BRANCH 22 26
ATOM     23  C1  BDP C   2      74.304  83.688  84.2320  0.00  0.00     0.000 C
ATOM     24  C2  BDP C   2      74.696  82.551  85.1450  0.00  0.00     0.000 C
ATOM     25  C3  BDP C   2      73.657  81.462  85.0710  0.00  0.00     0.000 C
ATOM     26  C4  BDP C   2      72.270  82.036  85.3380  0.00  0.00     0.000 C
ATOM     27  C5  BDP C   2      72.053  83.281  84.4880  0.00  0.00     0.000 C
ATOM     28  O5  BDP C   2      73.069  84.294  84.7080  0.00  0.00     0.000 O
ATOM     29   O  BDP C   2      75.895  81.901  84.7220  0.00  0.00     0.000 O
ATOM     31  HD  BDP C   2      75.935  81.045  84.8440  0.00  0.00     0.000 HD
ATOM     31   O  BDP C   2      73.990  80.504  86.0680  0.00  0.00     0.000 O
ATOM     33  HD  BDP C   2      74.031  79.648  86.1890  0.00  0.00     0.000 HD
BRANCH 27 33
ATOM     33   C  BDP C   2      70.733  83.956  84.7780  0.00  0.00     0.000 C
ATOM     34   O  BDP C   2      70.468  84.443  85.9030  0.00  0.00     0.000 OA
ATOM     35   O  BDP C   2      69.893  83.991  83.8940  0.00  0.00     0.000 OA
ENDBRANCH 27 33
BRANCH 23 36
ATOM     36  O4  SGN C   3      75.222  84.675  84.1080  0.00  0.00     0.000 O
BRANCH 36 40
ATOM     37  C1  SGN C   3      76.926  87.476  81.5240  0.00  0.00     0.000 C
ATOM     38  C2  SGN C   3      75.606  87.853  82.2160  0.00  0.00     0.000 C
ATOM     39  C3  SGN C   3      75.358  86.952  83.4170  0.00  0.00     0.000 C
ATOM     40  C4  SGN C   3      75.378  85.510  82.9580  0.00  0.00     0.000 C
ATOM     41  C5  SGN C   3      76.698  85.235  82.2710  0.00  0.00     0.000 C
ATOM     42  O5  SGN C   3      76.849  86.111  81.1440  0.00  0.00     0.000 O
ATOM     43   O  SGN C   3      74.105  87.283  84.0010  0.00  0.00     0.000 O
ATOM     45  HD  SGN C   3      74.292  86.452  84.1570  0.00  0.00     0.000 HD
BRANCH 38 47
ATOM     45   N  SGN C   3      75.872  89.252  82.5980  0.00  0.00     0.000 N
ATOM     47  HD  SGN C   3      76.025  88.409  82.7260  0.00  0.00     0.000 HD
ATOM     47   S  SGN C   3      75.349  90.279  81.5030  0.00  0.00     0.000 S
ATOM     48   O  SGN C   3      76.077  90.157  80.2890  0.00  0.00     0.000 OA
ATOM     49   O  SGN C   3      73.936  90.106  81.4220  0.00  0.00     0.000 OA
ATOM     50   O  SGN C   3      75.702  91.562  82.1070  0.00  0.00     0.000 OA
ENDBRANCH 38 47
BRANCH 41 51
ATOM     51   C  SGN C   3      76.848  83.825  81.7680  0.00  0.00     0.000 C
ATOM     52   O  SGN C   3      79.351  81.293  82.8660  0.00  0.00     0.000 OA
ATOM     53   O  SGN C   3      77.086  80.988  82.1540  0.00  0.00     0.000 OA
ATOM     54   O  SGN C   3      78.740  81.821  80.6260  0.00  0.00     0.000 OA
ATOM     55   O  SGN C   3      77.885  83.194  82.4850  0.00  0.00     0.000 O
ATOM     56   S  SGN C   3      78.304  81.683  81.9840  0.00  0.00     0.000 S
ENDBRANCH 41 51
BRANCH 37 57
ATOM     57  O4  IDS C   4      78.033  87.642  82.2890  0.00  0.00     0.000 O
BRANCH 57 61
ATOM     58  C1  IDS C   4      81.332  89.375  83.0490  0.00  0.00     0.000 C
ATOM     59  C2  IDS C   4      80.179  90.202  82.5760  0.00  0.00     0.000 C
ATOM     60  C3  IDS C   4      79.373  89.515  81.4710  0.00  0.00     0.000 C
ATOM     61  C4  IDS C   4      79.229  88.003  81.5720  0.00  0.00     0.000 C
ATOM     62  C5  IDS C   4      80.469  87.382  82.2260  0.00  0.00     0.000 C
ATOM     63  O5  IDS C   4      80.856  88.086  83.3970  0.00  0.00     0.000 O
ATOM     64   O  IDS C   4      80.056  89.818  80.2680  0.00  0.00     0.000 O
ATOM     66  HD  IDS C   4      80.402  89.101  79.9280  0.00  0.00     0.000 HD
BRANCH 59 66
ATOM     66   O  IDS C   4      79.231  90.487  83.6700  0.00  0.00     0.000 O
ATOM     67   S  IDS C   4      79.190  91.986  84.2020  0.00  0.00     0.000 S
ATOM     68   O  IDS C   4      78.701  92.726  83.0640  0.00  0.00     0.000 OA
ATOM     69   O  IDS C   4      78.294  91.953  85.3410  0.00  0.00     0.000 OA
ATOM     70   O  IDS C   4      80.555  92.360  84.5390  0.00  0.00     0.000 OA
ENDBRANCH 59 66
BRANCH 62 71
ATOM     71   C  IDS C   4      80.252  85.946  82.6660  0.00  0.00     0.000 C
ATOM     72   O  IDS C   4      79.959  85.699  83.8190  0.00  0.00     0.000 OA
ATOM     73   O  IDS C   4      80.484  85.033  81.8470  0.00  0.00     0.000 OA
ENDBRANCH 62 71
BRANCH 58 74
ATOM     74  O4  SGN C   5      82.466  89.486  82.2990  0.00  0.00     0.000 O
BRANCH 74 78
ATOM     75  C1  SGN C   5      86.641  89.597  82.3030  0.00  0.00     0.000 C
ATOM     76  C2  SGN C   5      86.002  88.199  82.4010  0.00  0.00     0.000 C
ATOM     77  C3  SGN C   5      84.510  88.259  82.0480  0.00  0.00     0.000 C
ATOM     78  C4  SGN C   5      83.804  89.387  82.7870  0.00  0.00     0.000 C
ATOM     79  C5  SGN C   5      84.554  90.691  82.5600  0.00  0.00     0.000 C
ATOM     80  O5  SGN C   5      85.913  90.560  83.0550  0.00  0.00     0.000 O
ATOM     81   O  SGN C   5      83.911  87.005  82.3600  0.00  0.00     0.000 O
ATOM     83  HD  SGN C   5      84.332  86.258  82.2390  0.00  0.00     0.000 HD
BRANCH 76 85
ATOM     83   N  SGN C   5      86.795  87.416  81.4450  0.00  0.00     0.000 N
ATOM     85  HD  SGN C   5      87.187  86.687  81.1900  0.00  0.00     0.000 HD
ATOM     85   S  SGN C   5      87.978  86.359  81.7230  0.00  0.00     0.000 S
ATOM     86   O  SGN C   5      88.440  85.797  80.5010  0.00  0.00     0.000 OA
ATOM     87   O  SGN C   5      88.940  87.011  82.5370  0.00  0.00     0.000 OA
ATOM     88   O  SGN C   5      87.124  85.352  82.4890  0.00  0.00     0.000 OA
ENDBRANCH 76 85
BRANCH 79 89
ATOM     89   C  SGN C   5      83.912  91.883  83.2390  0.00  0.00     0.000 C
ATOM     90   O  SGN C   5      84.921  92.647  83.9440  0.00  0.00     0.000 O
ATOM     91   S  SGN C   5      84.681  94.230  84.0530  0.00  0.00     0.000 S
ATOM     92   O  SGN C   5      84.448  94.699  82.7120  0.00  0.00     0.000 OA
ATOM     93   O  SGN C   5      83.542  94.428  84.9120  0.00  0.00     0.000 OA
ATOM     94   O  SGN C   5      85.911  94.712  84.6220  0.00  0.00     0.000 OA
ENDBRANCH 79 89
BRANCH 75 95
ATOM     95  O4  BDP C   6      86.609  89.930  80.9790  0.00  0.00     0.000 O
BRANCH 95 99
ATOM     96  C1  BDP C   6      88.962  92.725  78.7220  0.00  0.00     0.000 C
ATOM     97  C2  BDP C   6      89.628  91.941  79.8180  0.00  0.00     0.000 C
ATOM     98  C3  BDP C   6      88.829  90.720  80.2990  0.00  0.00     0.000 C
ATOM     99  C4  BDP C   6      87.378  91.084  80.5770  0.00  0.00     0.000 C
ATOM    100  C5  BDP C   6      86.833  91.850  79.3490  0.00  0.00     0.000 C
ATOM    101  O5  BDP C   6      87.685  93.003  79.2660  0.00  0.00     0.000 O
BRANCH 100 102
ATOM    102   C  BDP C   6      85.418  92.331  79.5450  0.00  0.00     0.000 C
ATOM    103   O  BDP C   6      85.156  93.409  80.0980  0.00  0.00     0.000 OA
ATOM    104   O  BDP C   6      84.515  91.603  79.1160  0.00  0.00     0.000 OA
ENDBRANCH 100 102
ENDBRANCH 95 99
ENDBRANCH 75 95
ENDBRANCH 74 78
ENDBRANCH 58 74
ENDBRANCH 57 61
ENDBRANCH 37 57
ENDBRANCH 36 40
ENDBRANCH 23 36
ENDBRANCH 22 26
ENDBRANCH 1 22
TORSDOF 20
ENDMDL
MODEL 73
REMARK VINA RESULT:       0.2     72.405     76.693
ROOT
ATOM      1  C1  NGY C   1      67.686  36.596 103.0590  0.00  0.00     0.000 C
ATOM      2  C2  NGY C   1      68.164  37.013 104.4430  0.00  0.00     0.000 C
ATOM      3  C3  NGY C   1      69.566  36.471 104.7030  0.00  0.00     0.000 C
ATOM      4  C4  NGY C   1      69.545  34.971 104.4820  0.00  0.00     0.000 C
ATOM      5  C5  NGY C   1      69.131  34.694 103.0390  0.00  0.00     0.000 C
ATOM      6  O5  NGY C   1      67.786  35.204 102.8460  0.00  0.00     0.000 O
ATOM      7   O  NGY C   1      69.959  36.810 106.0250  0.00  0.00     0.000 O
ATOM      9  HD  NGY C   1      69.585  36.882 106.8030  0.00  0.00     0.000 HD
ATOM      9   O  NGY C   1      70.819  34.400 104.7430  0.00  0.00     0.000 O
ATOM     11  HD  NGY C   1      70.444  34.472 105.5210  0.00  0.00     0.000 HD
ENDROOT
BRANCH 2 13
ATOM     11   N  NGY C   1      67.783  37.749 105.6250  0.00  0.00     0.000 N
ATOM     13  HD  NGY C   1      67.743  38.543 105.2820  0.00  0.00     0.000 HD
ATOM     13   C  NGY C   1      67.596  39.067 105.5970  0.00  0.00     0.000 C
ATOM     14   O  NGY C   1      67.878  39.729 104.5970  0.00  0.00     0.000 OA
ATOM     15   C  NGY C   1      67.003  39.689 106.8240  0.00  0.00     0.000 C
ENDBRANCH 2 13
BRANCH 5 16
ATOM     16   C  NGY C   1      69.073  33.248 102.6610  0.00  0.00     0.000 C
ATOM     17   O  NGY C   1      66.618  30.876 104.0050  0.00  0.00     0.000 OA
ATOM     18   O  NGY C   1      68.148  32.584 103.5270  0.00  0.00     0.000 O
ATOM     19   S  NGY C   1      67.618  31.195 103.0170  0.00  0.00     0.000 S
ATOM     20   O  NGY C   1      68.728  30.280 103.0450  0.00  0.00     0.000 OA
ATOM     21   O  NGY C   1      67.119  31.463 101.6780  0.00  0.00     0.000 OA
ENDBRANCH 5 16
BRANCH 1 22
ATOM     22  O4  BDP C   2      68.358  37.313 102.1330  0.00  0.00     0.000 O
BRANCH 22 26
ATOM     23  C1  BDP C   2      68.522  39.233  98.4930  0.00  0.00     0.000 C
ATOM     24  C2  BDP C   2      67.336  39.584  99.3610  0.00  0.00     0.000 C
ATOM     25  C3  BDP C   2      67.584  39.115 100.7700  0.00  0.00     0.000 C
ATOM     26  C4  BDP C   2      67.953  37.635 100.7770  0.00  0.00     0.000 C
ATOM     27  C5  BDP C   2      69.037  37.368  99.7400  0.00  0.00     0.000 C
ATOM     28  O5  BDP C   2      68.651  37.786  98.4050  0.00  0.00     0.000 O
ATOM     29   O  BDP C   2      67.164  40.995  99.5010  0.00  0.00     0.000 O
ATOM     31  HD  BDP C   2      66.881  41.275 100.2700  0.00  0.00     0.000 HD
ATOM     31   O  BDP C   2      66.377  39.320 101.4930  0.00  0.00     0.000 O
ATOM     33  HD  BDP C   2      66.094  39.601 102.2620  0.00  0.00     0.000 HD
BRANCH 27 33
ATOM     33   C  BDP C   2      69.379  35.902  99.6270  0.00  0.00     0.000 C
ATOM     34   O  BDP C   2      68.514  35.035  99.3560  0.00  0.00     0.000 OA
ATOM     35   O  BDP C   2      70.529  35.556  99.8420  0.00  0.00     0.000 OA
ENDBRANCH 27 33
BRANCH 23 36
ATOM     36  O4  SGN C   3      68.479  39.717  97.2300  0.00  0.00     0.000 O
BRANCH 36 40
ATOM     37  C1  SGN C   3      70.698  41.305  94.0700  0.00  0.00     0.000 C
ATOM     38  C2  SGN C   3      70.783  39.789  94.3120  0.00  0.00     0.000 C
ATOM     39  C3  SGN C   3      69.620  39.322  95.1750  0.00  0.00     0.000 C
ATOM     40  C4  SGN C   3      69.621  40.113  96.4650  0.00  0.00     0.000 C
ATOM     41  C5  SGN C   3      69.560  41.587  96.1330  0.00  0.00     0.000 C
ATOM     42  O5  SGN C   3      70.695  41.952  95.3330  0.00  0.00     0.000 O
ATOM     43   O  SGN C   3      69.756  37.929  95.4310  0.00  0.00     0.000 O
ATOM     45  HD  SGN C   3      69.319  38.307  96.0760  0.00  0.00     0.000 HD
BRANCH 38 47
ATOM     45   N  SGN C   3      71.963  40.095  93.4840  0.00  0.00     0.000 N
ATOM     47  HD  SGN C   3      71.521  40.227  94.2160  0.00  0.00     0.000 HD
ATOM     47   S  SGN C   3      72.155  39.045  92.3060  0.00  0.00     0.000 S
ATOM     48   O  SGN C   3      72.469  37.754  92.8080  0.00  0.00     0.000 OA
ATOM     49   O  SGN C   3      70.998  39.146  91.4770  0.00  0.00     0.000 OA
ATOM     50   O  SGN C   3      73.345  39.565  91.6350  0.00  0.00     0.000 OA
ENDBRANCH 38 47
BRANCH 41 51
ATOM     51   C  SGN C   3      69.549  42.490  97.3370  0.00  0.00     0.000 C
ATOM     52   O  SGN C   3      66.991  45.052  98.2140  0.00  0.00     0.000 OA
ATOM     53   O  SGN C   3      68.298  43.650  99.6490  0.00  0.00     0.000 OA
ATOM     54   O  SGN C   3      69.357  45.314  98.2790  0.00  0.00     0.000 OA
ATOM     55   O  SGN C   3      68.376  43.272  97.3110  0.00  0.00     0.000 O
ATOM     56   S  SGN C   3      68.245  44.431  98.4720  0.00  0.00     0.000 S
ENDBRANCH 41 51
BRANCH 37 57
ATOM     57  O4  IDS C   4      69.601  41.708  93.3840  0.00  0.00     0.000 O
BRANCH 57 61
ATOM     58  C1  IDS C   4      69.016  43.940  90.3600  0.00  0.00     0.000 C
ATOM     59  C2  IDS C   4      70.419  43.553  90.7060  0.00  0.00     0.000 C
ATOM     60  C3  IDS C   4      70.681  43.563  92.2140  0.00  0.00     0.000 C
ATOM     61  C4  IDS C   4      69.531  43.120  93.1080  0.00  0.00     0.000 C
ATOM     62  C5  IDS C   4      68.181  43.489  92.4810  0.00  0.00     0.000 C
ATOM     63  O5  IDS C   4      68.123  43.132  91.1070  0.00  0.00     0.000 O
ATOM     64   O  IDS C   4      70.997  44.906  92.5280  0.00  0.00     0.000 O
ATOM     66  HD  IDS C   4      70.379  45.255  93.0240  0.00  0.00     0.000 HD
BRANCH 59 66
ATOM     66   O  IDS C   4      70.737  42.192  90.2350  0.00  0.00     0.000 O
ATOM     67   S  IDS C   4      71.893  42.068  89.1480  0.00  0.00     0.000 S
ATOM     68   O  IDS C   4      73.065  42.514  89.8630  0.00  0.00     0.000 OA
ATOM     69   O  IDS C   4      71.903  40.668  88.7720  0.00  0.00     0.000 OA
ATOM     70   O  IDS C   4      71.555  42.967  88.0560  0.00  0.00     0.000 OA
ENDBRANCH 59 66
BRANCH 62 71
ATOM     71   C  IDS C   4      67.008  42.785  93.1360  0.00  0.00     0.000 C
ATOM     72   O  IDS C   4      66.754  42.986  94.3080  0.00  0.00     0.000 OA
ATOM     73   O  IDS C   4      66.387  41.927  92.4770  0.00  0.00     0.000 OA
ENDBRANCH 62 71
BRANCH 58 74
ATOM     74  O4  SGN C   5      68.792  45.283  90.2830  0.00  0.00     0.000 O
BRANCH 74 78
ATOM     75  C1  SGN C   5      66.867  48.384  88.2530  0.00  0.00     0.000 C
ATOM     76  C2  SGN C   5      65.959  47.444  89.0680  0.00  0.00     0.000 C
ATOM     77  C3  SGN C   5      66.792  46.579  90.0240  0.00  0.00     0.000 C
ATOM     78  C4  SGN C   5      67.977  45.940  89.3130  0.00  0.00     0.000 C
ATOM     79  C5  SGN C   5      68.772  47.015  88.5850  0.00  0.00     0.000 C
ATOM     80  O5  SGN C   5      67.919  47.674  87.6130  0.00  0.00     0.000 O
ATOM     81   O  SGN C   5      65.952  45.579  90.5920  0.00  0.00     0.000 O
ATOM     83  HD  SGN C   5      65.128  45.743  90.8000  0.00  0.00     0.000 HD
BRANCH 76 85
ATOM     83   N  SGN C   5      65.032  48.307  89.8110  0.00  0.00     0.000 N
ATOM     85  HD  SGN C   5      64.243  48.513  90.1020  0.00  0.00     0.000 HD
ATOM     85   S  SGN C   5      63.537  48.770  89.4290  0.00  0.00     0.000 S
ATOM     86   O  SGN C   5      62.986  49.574  90.4640  0.00  0.00     0.000 OA
ATOM     87   O  SGN C   5      63.594  49.338  88.1300  0.00  0.00     0.000 OA
ATOM     88   O  SGN C   5      62.921  47.373  89.4480  0.00  0.00     0.000 OA
ENDBRANCH 76 85
BRANCH 79 89
ATOM     89   C  SGN C   5      69.991  46.479  87.8630  0.00  0.00     0.000 C
ATOM     90   O  SGN C   5      69.652  46.174  86.4880  0.00  0.00     0.000 O
ATOM     91   S  SGN C   5      70.821  46.348  85.4020  0.00  0.00     0.000 S
ATOM     92   O  SGN C   5      71.344  47.678  85.5770  0.00  0.00     0.000 OA
ATOM     93   O  SGN C   5      71.804  45.331  85.6710  0.00  0.00     0.000 OA
ATOM     94   O  SGN C   5      70.139  46.162  84.1500  0.00  0.00     0.000 OA
ENDBRANCH 79 89
BRANCH 75 95
ATOM     95  O4  BDP C   6      67.392  49.267  89.1540  0.00  0.00     0.000 O
BRANCH 95 99
ATOM     96  C1  BDP C   6      69.028  52.986  87.7630  0.00  0.00     0.000 C
ATOM     97  C2  BDP C   6      68.727  51.910  86.7590  0.00  0.00     0.000 C
ATOM     98  C3  BDP C   6      67.810  50.794  87.2810  0.00  0.00     0.000 C
ATOM     99  C4  BDP C   6      68.280  50.279  88.6330  0.00  0.00     0.000 C
ATOM    100  C5  BDP C   6      68.510  51.499  89.5560  0.00  0.00     0.000 C
ATOM    101  O5  BDP C   6      69.521  52.255  88.8700  0.00  0.00     0.000 O
BRANCH 100 102
ATOM    102   C  BDP C   6      69.056  51.111  90.9070  0.00  0.00     0.000 C
ATOM    103   O  BDP C   6      70.046  50.377  91.0350  0.00  0.00     0.000 OA
ATOM    104   O  BDP C   6      68.475  51.572  91.8970  0.00  0.00     0.000 OA
ENDBRANCH 100 102
ENDBRANCH 95 99
ENDBRANCH 75 95
ENDBRANCH 74 78
ENDBRANCH 58 74
ENDBRANCH 57 61
ENDBRANCH 37 57
ENDBRANCH 36 40
ENDBRANCH 23 36
ENDBRANCH 22 26
ENDBRANCH 1 22
TORSDOF 20
ENDMDL
MODEL 74
REMARK VINA RESULT:       0.2     96.758    103.755
ROOT
ATOM      1  C1  NGY C   1      65.997  85.393  86.8780  0.00  0.00     0.000 C
ATOM      2  C2  NGY C   1      66.155  84.022  86.2350  0.00  0.00     0.000 C
ATOM      3  C3  NGY C   1      65.126  83.837  85.1250  0.00  0.00     0.000 C
ATOM      4  C4  NGY C   1      63.748  84.092  85.7070  0.00  0.00     0.000 C
ATOM      5  C5  NGY C   1      63.698  85.521  86.2400  0.00  0.00     0.000 C
ATOM      6  O5  NGY C   1      64.675  85.642  87.3070  0.00  0.00     0.000 O
ATOM      7   O  NGY C   1      65.246  82.527  84.5910  0.00  0.00     0.000 O
ATOM      9  HD  NGY C   1      65.421  81.732  84.8860  0.00  0.00     0.000 HD
ATOM      9   O  NGY C   1      62.739  83.901  84.7260  0.00  0.00     0.000 O
ATOM     11  HD  NGY C   1      62.915  83.106  85.0210  0.00  0.00     0.000 HD
ENDROOT
BRANCH 2 13
ATOM     11   N  NGY C   1      67.578  83.959  85.9940  0.00  0.00     0.000 N
ATOM     13  HD  NGY C   1      67.683  83.100  86.0360  0.00  0.00     0.000 HD
ATOM     13   C  NGY C   1      68.230  82.797  85.9660  0.00  0.00     0.000 C
ATOM     14   O  NGY C   1      67.672  81.746  86.2850  0.00  0.00     0.000 OA
ATOM     15   C  NGY C   1      69.654  82.836  85.5020  0.00  0.00     0.000 C
ENDBRANCH 2 13
BRANCH 5 16
ATOM     16   C  NGY C   1      62.391  85.929  86.8410  0.00  0.00     0.000 C
ATOM     17   O  NGY C   1      61.087  84.605  90.0040  0.00  0.00     0.000 OA
ATOM     18   O  NGY C   1      62.103  85.066  87.9450  0.00  0.00     0.000 O
ATOM     19   S  NGY C   1      61.030  85.598  88.9620  0.00  0.00     0.000 S
ATOM     20   O  NGY C   1      59.763  85.604  88.2790  0.00  0.00     0.000 OA
ATOM     21   O  NGY C   1      61.499  86.925  89.3280  0.00  0.00     0.000 OA
ENDBRANCH 5 16
BRANCH 1 22
ATOM     22  O4  BDP C   2      66.450  86.331  86.0200  0.00  0.00     0.000 O
BRANCH 22 26
ATOM     23  C1  BDP C   2      68.208  89.972  85.2340  0.00  0.00     0.000 C
ATOM     24  C2  BDP C   2      69.058  88.994  86.0110  0.00  0.00     0.000 C
ATOM     25  C3  BDP C   2      68.461  87.614  85.9100  0.00  0.00     0.000 C
ATOM     26  C4  BDP C   2      66.994  87.642  86.3250  0.00  0.00     0.000 C
ATOM     27  C5  BDP C   2      66.276  88.779  85.6090  0.00  0.00     0.000 C
ATOM     28  O5  BDP C   2      66.892  90.070  85.8480  0.00  0.00     0.000 O
ATOM     29   O  BDP C   2      70.361  88.839  85.4480  0.00  0.00     0.000 O
ATOM     31  HD  BDP C   2      70.708  88.046  85.4880  0.00  0.00     0.000 HD
ATOM     31   O  BDP C   2      69.202  86.778  86.7900  0.00  0.00     0.000 O
ATOM     33  HD  BDP C   2      69.549  85.986  86.8300  0.00  0.00     0.000 HD
BRANCH 27 33
ATOM     33   C  BDP C   2      64.839  88.923  86.0500  0.00  0.00     0.000 C
ATOM     34   O  BDP C   2      64.517  88.979  87.2610  0.00  0.00     0.000 OA
ATOM     35   O  BDP C   2      63.969  88.949  85.1950  0.00  0.00     0.000 OA
ENDBRANCH 27 33
BRANCH 23 36
ATOM     36  O4  SGN C   3      68.709  91.225  85.1380  0.00  0.00     0.000 O
BRANCH 36 40
ATOM     37  C1  SGN C   3      69.276  94.517  82.6330  0.00  0.00     0.000 C
ATOM     38  C2  SGN C   3      67.900  94.356  83.3000  0.00  0.00     0.000 C
ATOM     39  C3  SGN C   3      67.990  93.401  84.4820  0.00  0.00     0.000 C
ATOM     40  C4  SGN C   3      68.558  92.083  84.0030  0.00  0.00     0.000 C
ATOM     41  C5  SGN C   3      69.895  92.338  83.3430  0.00  0.00     0.000 C
ATOM     42  O5  SGN C   3      69.724  93.232  82.2320  0.00  0.00     0.000 O
ATOM     43   O  SGN C   3      66.695  93.225  85.0420  0.00  0.00     0.000 O
ATOM     45  HD  SGN C   3      67.179  92.522  85.1900  0.00  0.00     0.000 HD
BRANCH 38 47
ATOM     45   N  SGN C   3      67.535  95.713  83.7440  0.00  0.00     0.000 N
ATOM     47  HD  SGN C   3      68.002  94.994  83.8720  0.00  0.00     0.000 HD
ATOM     47   S  SGN C   3      66.763  96.522  82.6160  0.00  0.00     0.000 S
ATOM     48   O  SGN C   3      67.603  96.789  81.5020  0.00  0.00     0.000 OA
ATOM     49   O  SGN C   3      65.557  95.807  82.3520  0.00  0.00     0.000 OA
ATOM     50   O  SGN C   3      66.499  97.793  83.2890  0.00  0.00     0.000 OA
ENDBRANCH 38 47
BRANCH 41 51
ATOM     51   C  SGN C   3      70.572  91.099  82.8240  0.00  0.00     0.000 C
ATOM     52   O  SGN C   3      68.984  88.242  81.0360  0.00  0.00     0.000 OA
ATOM     53   O  SGN C   3      71.167  89.187  80.7640  0.00  0.00     0.000 OA
ATOM     54   O  SGN C   3      70.553  88.116  82.8230  0.00  0.00     0.000 OA
ATOM     55   O  SGN C   3      69.615  90.298  82.1680  0.00  0.00     0.000 O
ATOM     56   S  SGN C   3      70.129  88.822  81.6510  0.00  0.00     0.000 S
ENDBRANCH 41 51
BRANCH 37 57
ATOM     57  O4  IDS C   4      70.227  95.069  83.4260  0.00  0.00     0.000 O
BRANCH 57 61
ATOM     58  C1  IDS C   4      72.604  98.011  83.8370  0.00  0.00     0.000 C
ATOM     59  C2  IDS C   4      71.366  98.197  83.0180  0.00  0.00     0.000 C
ATOM     60  C3  IDS C   4      71.047  96.982  82.1430  0.00  0.00     0.000 C
ATOM     61  C4  IDS C   4      71.366  95.616  82.7330  0.00  0.00     0.000 C
ATOM     62  C5  IDS C   4      72.585  95.695  83.6590  0.00  0.00     0.000 C
ATOM     63  O5  IDS C   4      72.496  96.794  84.5550  0.00  0.00     0.000 O
ATOM     64   O  IDS C   4      71.821  97.154  80.9710  0.00  0.00     0.000 O
ATOM     66  HD  IDS C   4      72.434  96.544  80.9210  0.00  0.00     0.000 HD
BRANCH 59 66
ATOM     66   O  IDS C   4      70.182  98.422  83.8690  0.00  0.00     0.000 O
ATOM     67   S  IDS C   4      69.547  99.881  83.8330  0.00  0.00     0.000 S
ATOM     68   O  IDS C   4      69.075  99.999  82.4740  0.00  0.00     0.000 OA
ATOM     69   O  IDS C   4      68.506  99.860  84.8410  0.00  0.00     0.000 OA
ATOM     70   O  IDS C   4      70.619 100.823  84.1130  0.00  0.00     0.000 OA
ENDBRANCH 59 66
BRANCH 62 71
ATOM     71   C  IDS C   4      72.748  94.466  84.5350  0.00  0.00     0.000 C
ATOM     72   O  IDS C   4      72.502  94.528  85.7240  0.00  0.00     0.000 OA
ATOM     73   O  IDS C   4      73.234  93.436  84.0270  0.00  0.00     0.000 OA
ENDBRANCH 62 71
BRANCH 58 74
ATOM     74  O4  SGN C   5      73.769  98.303  83.1910  0.00  0.00     0.000 O
BRANCH 74 78
ATOM     75  C1  SGN C   5      77.587  99.971  83.4790  0.00  0.00     0.000 C
ATOM     76  C2  SGN C   5      77.395  98.602  84.1590  0.00  0.00     0.000 C
ATOM     77  C3  SGN C   5      76.085  97.947  83.7000  0.00  0.00     0.000 C
ATOM     78  C4  SGN C   5      74.916  98.920  83.7760  0.00  0.00     0.000 C
ATOM     79  C5  SGN C   5      75.272 100.200  83.0330  0.00  0.00     0.000 C
ATOM     80  O5  SGN C   5      76.446 100.802  83.6400  0.00  0.00     0.000 O
ATOM     81   O  SGN C   5      75.835  96.801  84.5060  0.00  0.00     0.000 O
ATOM     83  HD  SGN C   5      76.477  96.287  84.7770  0.00  0.00     0.000 HD
BRANCH 76 85
ATOM     83   N  SGN C   5      78.461  98.027  84.9900  0.00  0.00     0.000 N
ATOM     85  HD  SGN C   5      79.290  97.947  85.2260  0.00  0.00     0.000 HD
ATOM     85   S  SGN C   5      79.936  97.538  84.5670  0.00  0.00     0.000 S
ATOM     86   O  SGN C   5      80.656  97.088  85.7070  0.00  0.00     0.000 OA
ATOM     87   O  SGN C   5      79.782  96.619  83.4960  0.00  0.00     0.000 OA
ATOM     88   O  SGN C   5      80.442  98.907  84.1170  0.00  0.00     0.000 OA
ENDBRANCH 76 85
BRANCH 79 89
ATOM     89   C  SGN C   5      74.157 101.226  83.0320  0.00  0.00     0.000 C
ATOM     90   O  SGN C   5      74.371 102.183  84.0980  0.00  0.00     0.000 O
ATOM     91   S  SGN C   5      73.850 103.679  83.8390  0.00  0.00     0.000 S
ATOM     92   O  SGN C   5      74.414 104.094  82.5810  0.00  0.00     0.000 OA
ATOM     93   O  SGN C   5      72.411 103.626  83.8060  0.00  0.00     0.000 OA
ATOM     94   O  SGN C   5      74.365 104.408  84.9650  0.00  0.00     0.000 OA
ENDBRANCH 79 89
BRANCH 75 95
ATOM     95  O4  BDP C   6      77.777  99.704  82.1520  0.00  0.00     0.000 O
BRANCH 95 99
ATOM     96  C1  BDP C   6      79.243 102.131  78.9270  0.00  0.00     0.000 C
ATOM     97  C2  BDP C   6      79.957 102.179  80.2480  0.00  0.00     0.000 C
ATOM     98  C3  BDP C   6      79.612 101.022  81.1970  0.00  0.00     0.000 C
ATOM     99  C4  BDP C   6      78.107 100.824  81.3030  0.00  0.00     0.000 C
ATOM    100  C5  BDP C   6      77.531 100.760  79.8690  0.00  0.00     0.000 C
ATOM    101  O5  BDP C   6      77.883 102.035  79.3080  0.00  0.00     0.000 O
BRANCH 100 102
ATOM    102   C  BDP C   6      76.029 100.644  79.8500  0.00  0.00     0.000 C
ATOM    103   O  BDP C   6      75.449  99.612  79.4800  0.00  0.00     0.000 OA
ATOM    104   O  BDP C   6      75.387 101.627  80.2360  0.00  0.00     0.000 OA
ENDBRANCH 100 102
ENDBRANCH 95 99
ENDBRANCH 75 95
ENDBRANCH 74 78
ENDBRANCH 58 74
ENDBRANCH 57 61
ENDBRANCH 37 57
ENDBRANCH 36 40
ENDBRANCH 23 36
ENDBRANCH 22 26
ENDBRANCH 1 22
TORSDOF 20
ENDMDL
MODEL 75
REMARK VINA RESULT:       0.2     77.290     82.374
ROOT
ATOM      1  C1  NGY C   1      87.691  52.520  48.3860  0.00  0.00     0.000 C
ATOM      2  C2  NGY C   1      88.164  51.888  47.0840  0.00  0.00     0.000 C
ATOM      3  C3  NGY C   1      88.127  52.913  45.9550  0.00  0.00     0.000 C
ATOM      4  C4  NGY C   1      86.729  53.496  45.8870  0.00  0.00     0.000 C
ATOM      5  C5  NGY C   1      86.413  54.167  47.2200  0.00  0.00     0.000 C
ATOM      6  O5  NGY C   1      86.436  53.152  48.2570  0.00  0.00     0.000 O
ATOM      7   O  NGY C   1      88.502  52.282  44.7390  0.00  0.00     0.000 O
ATOM      9  HD  NGY C   1      88.394  51.510  44.3620  0.00  0.00     0.000 HD
ATOM      9   O  NGY C   1      86.621  54.436  44.8290  0.00  0.00     0.000 O
ATOM     11  HD  NGY C   1      86.512  53.664  44.4520  0.00  0.00     0.000 HD
ENDROOT
BRANCH 2 13
ATOM     11   N  NGY C   1      89.509  51.378  47.2170  0.00  0.00     0.000 N
ATOM     13  HD  NGY C   1      89.380  50.578  46.9110  0.00  0.00     0.000 HD
ATOM     13   C  NGY C   1      89.822  50.133  46.8620  0.00  0.00     0.000 C
ATOM     14   O  NGY C   1      88.949  49.324  46.5420  0.00  0.00     0.000 OA
ATOM     15   C  NGY C   1      91.278  49.784  46.8480  0.00  0.00     0.000 C
ENDBRANCH 2 13
BRANCH 5 16
ATOM     16   C  NGY C   1      85.062  54.803  47.3070  0.00  0.00     0.000 C
ATOM     17   O  NGY C   1      82.583  54.003  49.8910  0.00  0.00     0.000 OA
ATOM     18   O  NGY C   1      84.288  54.107  48.2890  0.00  0.00     0.000 O
ATOM     19   S  NGY C   1      83.036  54.878  48.8390  0.00  0.00     0.000 S
ATOM     20   O  NGY C   1      82.088  54.975  47.7600  0.00  0.00     0.000 OA
ATOM     21   O  NGY C   1      83.558  56.165  49.2700  0.00  0.00     0.000 OA
ENDBRANCH 5 16
BRANCH 1 22
ATOM     22  O4  BDP C   2      88.650  53.356  48.8360  0.00  0.00     0.000 O
BRANCH 22 26
ATOM     23  C1  BDP C   2      90.769  55.055  51.9330  0.00  0.00     0.000 C
ATOM     24  C2  BDP C   2      90.620  53.553  51.9940  0.00  0.00     0.000 C
ATOM     25  C3  BDP C   2      90.164  53.035  50.6550  0.00  0.00     0.000 C
ATOM     26  C4  BDP C   2      88.910  53.774  50.2020  0.00  0.00     0.000 C
ATOM     27  C5  BDP C   2      89.114  55.277  50.3490  0.00  0.00     0.000 C
ATOM     28  O5  BDP C   2      89.468  55.665  51.7010  0.00  0.00     0.000 O
ATOM     29   O  BDP C   2      91.868  52.891  52.2040  0.00  0.00     0.000 O
ATOM     31  HD  BDP C   2      91.975  52.131  51.8030  0.00  0.00     0.000 HD
ATOM     31   O  BDP C   2      89.883  51.651  50.8210  0.00  0.00     0.000 O
ATOM     33  HD  BDP C   2      89.990  50.891  50.4200  0.00  0.00     0.000 HD
BRANCH 27 33
ATOM     33   C  BDP C   2      87.871  56.064  50.0080  0.00  0.00     0.000 C
ATOM     34   O  BDP C   2      86.741  55.746  50.4480  0.00  0.00     0.000 OA
ATOM     35   O  BDP C   2      87.977  57.017  49.2540  0.00  0.00     0.000 OA
ENDBRANCH 27 33
BRANCH 23 36
ATOM     36  O4  SGN C   3      91.299  55.630  53.0370  0.00  0.00     0.000 O
BRANCH 36 40
ATOM     37  C1  SGN C   3      93.853  58.606  54.4690  0.00  0.00     0.000 C
ATOM     38  C2  SGN C   3      92.416  59.012  54.1060  0.00  0.00     0.000 C
ATOM     39  C3  SGN C   3      91.519  57.786  54.0310  0.00  0.00     0.000 C
ATOM     40  C4  SGN C   3      92.110  56.808  53.0380  0.00  0.00     0.000 C
ATOM     41  C5  SGN C   3      93.527  56.483  53.4600  0.00  0.00     0.000 C
ATOM     42  O5  SGN C   3      94.311  57.686  53.4910  0.00  0.00     0.000 O
ATOM     43   O  SGN C   3      90.212  58.184  53.6350  0.00  0.00     0.000 O
ATOM     45  HD  SGN C   3      90.358  57.367  53.3890  0.00  0.00     0.000 HD
BRANCH 38 47
ATOM     45   N  SGN C   3      93.171  60.277  54.1490  0.00  0.00     0.000 N
ATOM     47  HD  SGN C   3      93.075  59.485  53.8120  0.00  0.00     0.000 HD
ATOM     47   S  SGN C   3      92.369  61.426  54.9000  0.00  0.00     0.000 S
ATOM     48   O  SGN C   3      91.203  61.799  54.1810  0.00  0.00     0.000 OA
ATOM     49   O  SGN C   3      92.179  60.982  56.2420  0.00  0.00     0.000 OA
ATOM     50   O  SGN C   3      93.312  62.541  54.8300  0.00  0.00     0.000 OA
ENDBRANCH 38 47
BRANCH 41 51
ATOM     51   C  SGN C   3      94.231  55.511  52.5530  0.00  0.00     0.000 C
ATOM     52   O  SGN C   3      95.255  52.019  53.3510  0.00  0.00     0.000 OA
ATOM     53   O  SGN C   3      94.509  52.952  51.2760  0.00  0.00     0.000 OA
ATOM     54   O  SGN C   3      96.571  53.682  52.2680  0.00  0.00     0.000 OA
ATOM     55   O  SGN C   3      94.385  54.284  53.2320  0.00  0.00     0.000 O
ATOM     56   S  SGN C   3      95.263  53.127  52.4590  0.00  0.00     0.000 S
ENDBRANCH 41 51
BRANCH 37 57
ATOM     57  O4  IDS C   4      93.987  58.030  55.6890  0.00  0.00     0.000 O
BRANCH 57 61
ATOM     58  C1  IDS C   4      96.247  58.551  58.7040  0.00  0.00     0.000 C
ATOM     59  C2  IDS C   4      96.257  59.575  57.6140  0.00  0.00     0.000 C
ATOM     60  C3  IDS C   4      96.188  58.953  56.2170  0.00  0.00     0.000 C
ATOM     61  C4  IDS C   4      95.336  57.700  56.0710  0.00  0.00     0.000 C
ATOM     62  C5  IDS C   4      95.354  56.877  57.3640  0.00  0.00     0.000 C
ATOM     63  O5  IDS C   4      95.139  57.689  58.5090  0.00  0.00     0.000 O
ATOM     64   O  IDS C   4      97.525  58.624  55.8900  0.00  0.00     0.000 O
ATOM     66  HD  IDS C   4      97.623  57.765  55.8450  0.00  0.00     0.000 HD
BRANCH 59 66
ATOM     66   O  IDS C   4      95.105  60.492  57.7210  0.00  0.00     0.000 O
ATOM     67   S  IDS C   4      95.439  62.022  58.0000  0.00  0.00     0.000 S
ATOM     68   O  IDS C   4      96.146  62.427  56.8080  0.00  0.00     0.000 OA
ATOM     69   O  IDS C   4      94.149  62.657  58.1900  0.00  0.00     0.000 OA
ATOM     70   O  IDS C   4      96.296  62.069  59.1740  0.00  0.00     0.000 OA
ENDBRANCH 59 66
BRANCH 62 71
ATOM     71   C  IDS C   4      94.272  55.814  57.4070  0.00  0.00     0.000 C
ATOM     72   O  IDS C   4      93.295  55.909  56.6900  0.00  0.00     0.000 OA
ATOM     73   O  IDS C   4      94.362  54.910  58.2620  0.00  0.00     0.000 OA
ENDBRANCH 62 71
BRANCH 58 74
ATOM     74  O4  SGN C   5      97.465  58.014  58.9990  0.00  0.00     0.000 O
BRANCH 74 78
ATOM     75  C1  SGN C   5      99.983  56.512  61.9730  0.00  0.00     0.000 C
ATOM     76  C2  SGN C   5      98.785  55.623  61.5900  0.00  0.00     0.000 C
ATOM     77  C3  SGN C   5      98.148  56.106  60.2800  0.00  0.00     0.000 C
ATOM     78  C4  SGN C   5      97.909  57.610  60.2940  0.00  0.00     0.000 C
ATOM     79  C5  SGN C   5      99.199  58.325  60.6650  0.00  0.00     0.000 C
ATOM     80  O5  SGN C   5      99.634  57.890  61.9810  0.00  0.00     0.000 O
ATOM     81   O  SGN C   5      96.925  55.407  60.0760  0.00  0.00     0.000 O
ATOM     83  HD  SGN C   5      96.836  54.573  60.2930  0.00  0.00     0.000 HD
BRANCH 76 85
ATOM     83   N  SGN C   5      99.692  54.525  61.9480  0.00  0.00     0.000 N
ATOM     85  HD  SGN C   5      99.910  53.687  61.9690  0.00  0.00     0.000 HD
ATOM     85   S  SGN C   5      99.347  53.062  62.5250  0.00  0.00     0.000 S
ATOM     86   O  SGN C   5     100.536  52.299  62.6870  0.00  0.00     0.000 OA
ATOM     87   O  SGN C   5      98.536  53.245  63.6750  0.00  0.00     0.000 OA
ATOM     88   O  SGN C   5      98.563  52.583  61.3060  0.00  0.00     0.000 OA
ENDBRANCH 76 85
BRANCH 79 89
ATOM     89   C  SGN C   5      99.068  59.835  60.6820  0.00  0.00     0.000 C
ATOM     90   O  SGN C   5     100.269  60.424  61.2390  0.00  0.00     0.000 O
ATOM     91   S  SGN C   5     100.689  61.869  60.6790  0.00  0.00     0.000 S
ATOM     92   O  SGN C   5     100.724  61.755  59.2450  0.00  0.00     0.000 OA
ATOM     93   O  SGN C   5      99.692  62.805  61.1330  0.00  0.00     0.000 OA
ATOM     94   O  SGN C   5     101.982  62.088  61.2680  0.00  0.00     0.000 OA
ENDBRANCH 79 89
BRANCH 75 95
ATOM     95  O4  BDP C   6     100.935  56.285  61.0190  0.00  0.00     0.000 O
BRANCH 95 99
ATOM     96  C1  BDP C   6     105.215  56.500  61.2970  0.00  0.00     0.000 C
ATOM     97  C2  BDP C   6     104.430  56.124  62.5220  0.00  0.00     0.000 C
ATOM     98  C3  BDP C   6     102.980  55.704  62.2410  0.00  0.00     0.000 C
ATOM     99  C4  BDP C   6     102.282  56.702  61.3300  0.00  0.00     0.000 C
ATOM    100  C5  BDP C   6     103.196  56.954  60.1080  0.00  0.00     0.000 C
ATOM    101  O5  BDP C   6     104.398  57.484  60.6910  0.00  0.00     0.000 O
BRANCH 100 102
ATOM    102   C  BDP C   6     102.638  57.993  59.1680  0.00  0.00     0.000 C
ATOM    103   O  BDP C   6     101.975  57.690  58.1660  0.00  0.00     0.000 OA
ATOM    104   O  BDP C   6     102.860  59.176  59.4490  0.00  0.00     0.000 OA
ENDBRANCH 100 102
ENDBRANCH 95 99
ENDBRANCH 75 95
ENDBRANCH 74 78
ENDBRANCH 58 74
ENDBRANCH 57 61
ENDBRANCH 37 57
ENDBRANCH 36 40
ENDBRANCH 23 36
ENDBRANCH 22 26
ENDBRANCH 1 22
TORSDOF 20
ENDMDL
MODEL 76
REMARK VINA RESULT:       0.3     75.452     80.282
ROOT
ATOM      1  C1  NGY C   1      89.325  54.825  49.5030  0.00  0.00     0.000 C
ATOM      2  C2  NGY C   1      90.117  54.625  48.2180  0.00  0.00     0.000 C
ATOM      3  C3  NGY C   1      90.503  55.974  47.6200  0.00  0.00     0.000 C
ATOM      4  C4  NGY C   1      89.241  56.796  47.4460  0.00  0.00     0.000 C
ATOM      5  C5  NGY C   1      88.591  56.991  48.8130  0.00  0.00     0.000 C
ATOM      6  O5  NGY C   1      88.220  55.687  49.3300  0.00  0.00     0.000 O
ATOM      7   O  NGY C   1      91.177  55.762  46.3870  0.00  0.00     0.000 O
ATOM      9  HD  NGY C   1      91.127  55.212  45.7200  0.00  0.00     0.000 HD
ATOM      9   O  NGY C   1      89.532  58.056  46.8590  0.00  0.00     0.000 O
ATOM     11  HD  NGY C   1      89.481  57.506  46.1910  0.00  0.00     0.000 HD
ENDROOT
BRANCH 2 13
ATOM     11   N  NGY C   1      91.369  54.094  47.7330  0.00  0.00     0.000 N
ATOM     13  HD  NGY C   1      91.218  53.252  47.8630  0.00  0.00     0.000 HD
ATOM     13   C  NGY C   1      91.620  52.786  47.7340  0.00  0.00     0.000 C
ATOM     14   O  NGY C   1      90.853  51.991  48.2790  0.00  0.00     0.000 OA
ATOM     15   C  NGY C   1      92.859  52.339  47.0190  0.00  0.00     0.000 C
ENDBRANCH 2 13
BRANCH 5 16
ATOM     16   C  NGY C   1      87.331  57.797  48.8080  0.00  0.00     0.000 C
ATOM     17   O  NGY C   1      85.640  58.975  51.8430  0.00  0.00     0.000 OA
ATOM     18   O  NGY C   1      86.842  57.893  50.1480  0.00  0.00     0.000 O
ATOM     19   S  NGY C   1      85.807  59.045  50.4130  0.00  0.00     0.000 S
ATOM     20   O  NGY C   1      84.601  58.705  49.7040  0.00  0.00     0.000 OA
ATOM     21   O  NGY C   1      86.457  60.244  49.9110  0.00  0.00     0.000 OA
ENDBRANCH 5 16
BRANCH 1 22
ATOM     22  O4  BDP C   2      90.166  55.246  50.4710  0.00  0.00     0.000 O
BRANCH 22 26
ATOM     23  C1  BDP C   2      91.366  54.458  54.3310  0.00  0.00     0.000 C
ATOM     24  C2  BDP C   2      90.404  53.460  53.7330  0.00  0.00     0.000 C
ATOM     25  C3  BDP C   2      90.338  53.652  52.2410  0.00  0.00     0.000 C
ATOM     26  C4  BDP C   2      90.023  55.107  51.9090  0.00  0.00     0.000 C
ATOM     27  C5  BDP C   2      90.941  56.028  52.7020  0.00  0.00     0.000 C
ATOM     28  O5  BDP C   2      90.856  55.807  54.1330  0.00  0.00     0.000 O
ATOM     29   O  BDP C   2      90.856  52.113  53.8800  0.00  0.00     0.000 O
ATOM     31  HD  BDP C   2      90.679  51.572  53.2270  0.00  0.00     0.000 HD
ATOM     31   O  BDP C   2      89.300  52.806  51.7610  0.00  0.00     0.000 O
ATOM     33  HD  BDP C   2      89.123  52.265  51.1080  0.00  0.00     0.000 HD
BRANCH 27 33
ATOM     33   C  BDP C   2      90.615  57.487  52.4920  0.00  0.00     0.000 C
ATOM     34   O  BDP C   2      91.507  58.345  52.2840  0.00  0.00     0.000 OA
ATOM     35   O  BDP C   2      89.449  57.838  52.5640  0.00  0.00     0.000 OA
ENDBRANCH 27 33
BRANCH 23 36
ATOM     36  O4  SGN C   3      91.614  54.305  55.6530  0.00  0.00     0.000 O
BRANCH 36 40
ATOM     37  C1  SGN C   3      94.544  54.370  58.6260  0.00  0.00     0.000 C
ATOM     38  C2  SGN C   3      93.932  55.713  58.1980  0.00  0.00     0.000 C
ATOM     39  C3  SGN C   3      92.619  55.489  57.4610  0.00  0.00     0.000 C
ATOM     40  C4  SGN C   3      92.869  54.567  56.2870  0.00  0.00     0.000 C
ATOM     41  C5  SGN C   3      93.491  53.286  56.7960  0.00  0.00     0.000 C
ATOM     42  O5  SGN C   3      94.729  53.579  57.4630  0.00  0.00     0.000 O
ATOM     43   O  SGN C   3      92.106  56.741  57.0260  0.00  0.00     0.000 O
ATOM     45  HD  SGN C   3      91.831  56.111  56.4990  0.00  0.00     0.000 HD
BRANCH 38 47
ATOM     45   N  SGN C   3      95.197  56.122  58.8340  0.00  0.00     0.000 N
ATOM     47  HD  SGN C   3      94.795  55.692  58.1980  0.00  0.00     0.000 HD
ATOM     47   S  SGN C   3      94.985  57.296  59.8840  0.00  0.00     0.000 S
ATOM     48   O  SGN C   3      94.571  58.495  59.2450  0.00  0.00     0.000 OA
ATOM     49   O  SGN C   3      94.127  56.784  60.9020  0.00  0.00     0.000 OA
ATOM     50   O  SGN C   3      96.345  57.501  60.3790  0.00  0.00     0.000 OA
ENDBRANCH 38 47
BRANCH 41 51
ATOM     51   C  SGN C   3      93.787  52.276  55.7210  0.00  0.00     0.000 C
ATOM     52   O  SGN C   3      92.973  48.640  55.7560  0.00  0.00     0.000 OA
ATOM     53   O  SGN C   3      93.032  50.171  53.9160  0.00  0.00     0.000 OA
ATOM     54   O  SGN C   3      95.040  49.636  55.1190  0.00  0.00     0.000 OA
ATOM     55   O  SGN C   3      93.266  51.026  56.1140  0.00  0.00     0.000 O
ATOM     56   S  SGN C   3      93.612  49.750  55.1340  0.00  0.00     0.000 S
ENDBRANCH 41 51
BRANCH 37 57
ATOM     57  O4  IDS C   4      93.795  53.661  59.5060  0.00  0.00     0.000 O
BRANCH 57 61
ATOM     58  C1  IDS C   4      93.160  52.007  62.8720  0.00  0.00     0.000 C
ATOM     59  C2  IDS C   4      93.679  53.410  62.8480  0.00  0.00     0.000 C
ATOM     60  C3  IDS C   4      94.735  53.632  61.7620  0.00  0.00     0.000 C
ATOM     61  C4  IDS C   4      94.538  52.874  60.4560  0.00  0.00     0.000 C
ATOM     62  C5  IDS C   4      93.853  51.526  60.7080  0.00  0.00     0.000 C
ATOM     63  O5  IDS C   4      92.730  51.658  61.5670  0.00  0.00     0.000 O
ATOM     64   O  IDS C   4      95.957  53.213  62.3410  0.00  0.00     0.000 O
ATOM     66  HD  IDS C   4      96.254  52.504  61.9420  0.00  0.00     0.000 HD
BRANCH 59 66
ATOM     66   O  IDS C   4      92.600  54.382  62.5860  0.00  0.00     0.000 O
ATOM     67   S  IDS C   4      92.164  55.306  63.8070  0.00  0.00     0.000 S
ATOM     68   O  IDS C   4      93.345  56.096  64.0590  0.00  0.00     0.000 OA
ATOM     69   O  IDS C   4      91.021  56.053  63.3210  0.00  0.00     0.000 OA
ATOM     70   O  IDS C   4      91.859  54.425  64.9250  0.00  0.00     0.000 OA
ENDBRANCH 59 66
BRANCH 62 71
ATOM     71   C  IDS C   4      93.324  50.883  59.4400  0.00  0.00     0.000 C
ATOM     72   O  IDS C   4      94.091  50.361  58.6540  0.00  0.00     0.000 OA
ATOM     73   O  IDS C   4      92.109  50.995  59.1800  0.00  0.00     0.000 OA
ENDBRANCH 62 71
BRANCH 58 74
ATOM     74  O4  SGN C   5      93.921  51.125  63.5810  0.00  0.00     0.000 O
BRANCH 74 78
ATOM     75  C1  SGN C   5      93.958  47.727  66.0090  0.00  0.00     0.000 C
ATOM     76  C2  SGN C   5      93.455  47.522  64.5670  0.00  0.00     0.000 C
ATOM     77  C3  SGN C   5      93.806  48.733  63.6930  0.00  0.00     0.000 C
ATOM     78  C4  SGN C   5      93.428  50.043  64.3710  0.00  0.00     0.000 C
ATOM     79  C5  SGN C   5      94.029  50.083  65.7680  0.00  0.00     0.000 C
ATOM     80  O5  SGN C   5      93.520  48.968  66.5470  0.00  0.00     0.000 O
ATOM     81   O  SGN C   5      93.140  48.608  62.4410  0.00  0.00     0.000 O
ATOM     83  HD  SGN C   5      93.038  47.839  62.0560  0.00  0.00     0.000 HD
BRANCH 76 85
ATOM     83   N  SGN C   5      93.279  46.337  63.7190  0.00  0.00     0.000 N
ATOM     85  HD  SGN C   5      93.042  45.514  63.5900  0.00  0.00     0.000 HD
ATOM     85   S  SGN C   5      93.569  44.788  64.0520  0.00  0.00     0.000 S
ATOM     86   O  SGN C   5      93.211  43.967  62.9480  0.00  0.00     0.000 OA
ATOM     87   O  SGN C   5      94.908  44.703  64.5130  0.00  0.00     0.000 OA
ATOM     88   O  SGN C   5      92.538  44.664  65.1710  0.00  0.00     0.000 OA
ENDBRANCH 76 85
BRANCH 79 89
ATOM     89   C  SGN C   5      93.727  51.365  66.5180  0.00  0.00     0.000 C
ATOM     90   O  SGN C   5      92.364  51.336  67.0080  0.00  0.00     0.000 O
ATOM     91   S  SGN C   5      92.074  52.116  68.3800  0.00  0.00     0.000 S
ATOM     92   O  SGN C   5      93.032  51.625  69.3370  0.00  0.00     0.000 OA
ATOM     93   O  SGN C   5      92.237  53.522  68.1110  0.00  0.00     0.000 OA
ATOM     94   O  SGN C   5      90.719  51.751  68.6880  0.00  0.00     0.000 OA
ENDBRANCH 79 89
BRANCH 75 95
ATOM     95  O4  BDP C   6      95.322  47.717  65.9310  0.00  0.00     0.000 O
BRANCH 95 99
ATOM     96  C1  BDP C   6      98.131  46.400  68.9020  0.00  0.00     0.000 C
ATOM     97  C2  BDP C   6      96.711  45.914  68.9850  0.00  0.00     0.000 C
ATOM     98  C3  BDP C   6      95.895  46.117  67.7000  0.00  0.00     0.000 C
ATOM     99  C4  BDP C   6      96.044  47.535  67.1680  0.00  0.00     0.000 C
ATOM    100  C5  BDP C   6      97.554  47.868  67.1100  0.00  0.00     0.000 C
ATOM    101  O5  BDP C   6      97.979  47.742  68.4770  0.00  0.00     0.000 O
BRANCH 100 102
ATOM    102   C  BDP C   6      97.820  49.284  66.6700  0.00  0.00     0.000 C
ATOM    103   O  BDP C   6      98.570  49.552  65.7200  0.00  0.00     0.000 OA
ATOM    104   O  BDP C   6      97.243  50.182  67.2940  0.00  0.00     0.000 OA
ENDBRANCH 100 102
ENDBRANCH 95 99
ENDBRANCH 75 95
ENDBRANCH 74 78
ENDBRANCH 58 74
ENDBRANCH 57 61
ENDBRANCH 37 57
ENDBRANCH 36 40
ENDBRANCH 23 36
ENDBRANCH 22 26
ENDBRANCH 1 22
TORSDOF 20
ENDMDL
MODEL 77
REMARK VINA RESULT:       0.3     49.101     53.135
ROOT
ATOM      1  C1  NGY C   1      29.889  10.507  89.3880  0.00  0.00     0.000 C
ATOM      2  C2  NGY C   1      29.579   9.096  88.9070  0.00  0.00     0.000 C
ATOM      3  C3  NGY C   1      29.137   9.122  87.4470  0.00  0.00     0.000 C
ATOM      4  C4  NGY C   1      27.975  10.089  87.3190  0.00  0.00     0.000 C
ATOM      5  C5  NGY C   1      28.442  11.475  87.7530  0.00  0.00     0.000 C
ATOM      6  O5  NGY C   1      28.829  11.408  89.1500  0.00  0.00     0.000 O
ATOM      7   O  NGY C   1      28.784   7.807  87.0440  0.00  0.00     0.000 O
ATOM      9  HD  NGY C   1      28.402   7.113  87.3950  0.00  0.00     0.000 HD
ATOM      9   O  NGY C   1      27.495  10.132  85.9830  0.00  0.00     0.000 O
ATOM     11  HD  NGY C   1      27.113   9.438  86.3340  0.00  0.00     0.000 HD
ENDROOT
BRANCH 2 13
ATOM     11   N  NGY C   1      30.705   8.376  89.4520  0.00  0.00     0.000 N
ATOM     13  HD  NGY C   1      30.369   7.578  89.4480  0.00  0.00     0.000 HD
ATOM     13   C  NGY C   1      30.664   7.058  89.6460  0.00  0.00     0.000 C
ATOM     14   O  NGY C   1      29.616   6.426  89.5020  0.00  0.00     0.000 OA
ATOM     15   C  NGY C   1      31.953   6.392  90.0160  0.00  0.00     0.000 C
ENDBRANCH 2 13
BRANCH 5 16
ATOM     16   C  NGY C   1      27.405  12.549  87.6730  0.00  0.00     0.000 C
ATOM     17   O  NGY C   1      23.801  11.946  88.0030  0.00  0.00     0.000 OA
ATOM     18   O  NGY C   1      26.113  11.937  87.6250  0.00  0.00     0.000 O
ATOM     19   S  NGY C   1      24.904  12.873  87.9870  0.00  0.00     0.000 S
ATOM     20   O  NGY C   1      24.787  13.844  86.9310  0.00  0.00     0.000 OA
ATOM     21   O  NGY C   1      25.260  13.453  89.2720  0.00  0.00     0.000 OA
ENDBRANCH 5 16
BRANCH 1 22
ATOM     22  O4  BDP C   2      31.050  10.911  88.8300  0.00  0.00     0.000 O
BRANCH 22 26
ATOM     23  C1  BDP C   2      34.546  13.086  88.9250  0.00  0.00     0.000 C
ATOM     24  C2  BDP C   2      34.382  12.070  90.0300  0.00  0.00     0.000 C
ATOM     25  C3  BDP C   2      33.273  11.114  89.6780  0.00  0.00     0.000 C
ATOM     26  C4  BDP C   2      32.001  11.884  89.3370  0.00  0.00     0.000 C
ATOM     27  C5  BDP C   2      32.320  12.995  88.3450  0.00  0.00     0.000 C
ATOM     28  O5  BDP C   2      33.344  13.902  88.8290  0.00  0.00     0.000 O
ATOM     29   O  BDP C   2      35.525  11.225  90.1650  0.00  0.00     0.000 O
ATOM     31  HD  BDP C   2      35.373  10.400  90.3800  0.00  0.00     0.000 HD
ATOM     31   O  BDP C   2      33.056  10.294  90.8200  0.00  0.00     0.000 O
ATOM     33  HD  BDP C   2      32.904   9.469  91.0350  0.00  0.00     0.000 HD
BRANCH 27 33
ATOM     33   C  BDP C   2      31.119  13.858  88.0390  0.00  0.00     0.000 C
ATOM     34   O  BDP C   2      30.769  14.119  86.8640  0.00  0.00     0.000 OA
ATOM     35   O  BDP C   2      30.498  14.339  88.9720  0.00  0.00     0.000 OA
ENDBRANCH 27 33
BRANCH 23 36
ATOM     36  O4  SGN C   3      35.599  13.925  89.0590  0.00  0.00     0.000 O
BRANCH 36 40
ATOM     37  C1  SGN C   3      38.662  15.941  87.0640  0.00  0.00     0.000 C
ATOM     38  C2  SGN C   3      37.265  16.582  87.0610  0.00  0.00     0.000 C
ATOM     39  C3  SGN C   3      36.401  15.982  88.1610  0.00  0.00     0.000 C
ATOM     40  C4  SGN C   3      36.348  14.481  87.9750  0.00  0.00     0.000 C
ATOM     41  C5  SGN C   3      37.761  13.940  87.9670  0.00  0.00     0.000 C
ATOM     42  O5  SGN C   3      38.505  14.541  86.8960  0.00  0.00     0.000 O
ATOM     43   O  SGN C   3      35.099  16.550  88.0970  0.00  0.00     0.000 O
ATOM     45  HD  SGN C   3      35.058  15.756  88.4400  0.00  0.00     0.000 HD
BRANCH 38 47
ATOM     45   N  SGN C   3      37.270  17.312  85.7800  0.00  0.00     0.000 N
ATOM     47  HD  SGN C   3      37.020  16.618  86.2340  0.00  0.00     0.000 HD
ATOM     47   S  SGN C   3      37.749  18.817  85.9520  0.00  0.00     0.000 S
ATOM     48   O  SGN C   3      36.823  19.571  86.7210  0.00  0.00     0.000 OA
ATOM     49   O  SGN C   3      39.091  18.767  86.4350  0.00  0.00     0.000 OA
ATOM     50   O  SGN C   3      37.690  19.308  84.5760  0.00  0.00     0.000 OA
ENDBRANCH 38 47
BRANCH 41 51
ATOM     51   C  SGN C   3      37.848  12.448  87.7940  0.00  0.00     0.000 C
ATOM     52   O  SGN C   3      39.569  10.592  85.0600  0.00  0.00     0.000 OA
ATOM     53   O  SGN C   3      39.302  10.007  87.3660  0.00  0.00     0.000 OA
ATOM     54   O  SGN C   3      37.390  10.170  85.9230  0.00  0.00     0.000 OA
ATOM     55   O  SGN C   3      38.633  12.167  86.6560  0.00  0.00     0.000 O
ATOM     56   S  SGN C   3      38.731  10.586  86.2100  0.00  0.00     0.000 S
ENDBRANCH 41 51
BRANCH 37 57
ATOM     57  O4  IDS C   4      39.380  16.155  88.1940  0.00  0.00     0.000 O
BRANCH 57 61
ATOM     58  C1  IDS C   4      42.692  17.320  89.6570  0.00  0.00     0.000 C
ATOM     59  C2  IDS C   4      42.253  17.877  88.3390  0.00  0.00     0.000 C
ATOM     60  C3  IDS C   4      41.607  16.823  87.4380  0.00  0.00     0.000 C
ATOM     61  C4  IDS C   4      40.764  15.760  88.1290  0.00  0.00     0.000 C
ATOM     62  C5  IDS C   4      41.313  15.455  89.5270  0.00  0.00     0.000 C
ATOM     63  O5  IDS C   4      41.598  16.643  90.2520  0.00  0.00     0.000 O
ATOM     64   O  IDS C   4      42.685  16.180  86.7830  0.00  0.00     0.000 O
ATOM     66  HD  IDS C   4      42.751  15.357  87.0440  0.00  0.00     0.000 HD
BRANCH 59 66
ATOM     66   O  IDS C   4      41.256  18.951  88.5090  0.00  0.00     0.000 O
ATOM     67   S  IDS C   4      41.806  20.444  88.4720  0.00  0.00     0.000 S
ATOM     68   O  IDS C   4      42.295  20.580  87.1210  0.00  0.00     0.000 OA
ATOM     69   O  IDS C   4      40.660  21.271  88.7940  0.00  0.00     0.000 OA
ATOM     70   O  IDS C   4      42.885  20.529  89.4450  0.00  0.00     0.000 OA
ENDBRANCH 59 66
BRANCH 62 71
ATOM     71   C  IDS C   4      40.341  14.674  90.3910  0.00  0.00     0.000 C
ATOM     72   O  IDS C   4      40.111  13.505  90.1460  0.00  0.00     0.000 OA
ATOM     73   O  IDS C   4      39.714  15.283  91.2800  0.00  0.00     0.000 OA
ENDBRANCH 62 71
BRANCH 58 74
ATOM     74  O4  SGN C   5      43.919  16.726  89.6500  0.00  0.00     0.000 O
BRANCH 74 78
ATOM     75  C1  SGN C   5      47.514  16.132  91.6920  0.00  0.00     0.000 C
ATOM     76  C2  SGN C   5      46.271  15.458  92.3020  0.00  0.00     0.000 C
ATOM     77  C3  SGN C   5      45.107  15.458  91.3020  0.00  0.00     0.000 C
ATOM     78  C4  SGN C   5      44.904  16.832  90.6780  0.00  0.00     0.000 C
ATOM     79  C5  SGN C   5      46.223  17.329  90.1060  0.00  0.00     0.000 C
ATOM     80  O5  SGN C   5      47.210  17.418  91.1670  0.00  0.00     0.000 O
ATOM     81   O  SGN C   5      43.924  15.032  91.9700  0.00  0.00     0.000 O
ATOM     83  HD  SGN C   5      43.942  14.417  92.5790  0.00  0.00     0.000 HD
BRANCH 76 85
ATOM     83   N  SGN C   5      46.726  14.102  92.6320  0.00  0.00     0.000 N
ATOM     85  HD  SGN C   5      46.752  13.405  93.1460  0.00  0.00     0.000 HD
ATOM     85   S  SGN C   5      47.192  13.496  94.0500  0.00  0.00     0.000 S
ATOM     86   O  SGN C   5      47.509  12.116  93.9210  0.00  0.00     0.000 OA
ATOM     87   O  SGN C   5      48.207  14.348  94.5570  0.00  0.00     0.000 OA
ATOM     88   O  SGN C   5      45.850  13.675  94.7550  0.00  0.00     0.000 OA
ENDBRANCH 76 85
BRANCH 79 89
ATOM     89   C  SGN C   5      46.119  18.685  89.4380  0.00  0.00     0.000 C
ATOM     90   O  SGN C   5      46.163  19.730  90.4410  0.00  0.00     0.000 O
ATOM     91   S  SGN C   5      46.824  21.124  90.0000  0.00  0.00     0.000 S
ATOM     92   O  SGN C   5      48.117  20.806  89.4530  0.00  0.00     0.000 OA
ATOM     93   O  SGN C   5      45.946  21.720  89.0260  0.00  0.00     0.000 OA
ATOM     94   O  SGN C   5      46.890  21.863  91.2320  0.00  0.00     0.000 OA
ENDBRANCH 79 89
BRANCH 75 95
ATOM     95  O4  BDP C   6      47.924  15.310  90.6800  0.00  0.00     0.000 O
BRANCH 95 99
ATOM     96  C1  BDP C   6      51.766  14.578  88.9060  0.00  0.00     0.000 C
ATOM     97  C2  BDP C   6      51.632  14.486  90.4000  0.00  0.00     0.000 C
ATOM     98  C3  BDP C   6      50.184  14.382  90.9010  0.00  0.00     0.000 C
ATOM     99  C4  BDP C   6      49.298  15.436  90.2540  0.00  0.00     0.000 C
ATOM    100  C5  BDP C   6      49.525  15.379  88.7250  0.00  0.00     0.000 C
ATOM    101  O5  BDP C   6      50.925  15.669  88.5820  0.00  0.00     0.000 O
BRANCH 100 102
ATOM    102   C  BDP C   6      48.752  16.439  87.9820  0.00  0.00     0.000 C
ATOM    103   O  BDP C   6      47.855  16.159  87.1740  0.00  0.00     0.000 OA
ATOM    104   O  BDP C   6      49.045  17.616  88.2230  0.00  0.00     0.000 OA
ENDBRANCH 100 102
ENDBRANCH 95 99
ENDBRANCH 75 95
ENDBRANCH 74 78
ENDBRANCH 58 74
ENDBRANCH 57 61
ENDBRANCH 37 57
ENDBRANCH 36 40
ENDBRANCH 23 36
ENDBRANCH 22 26
ENDBRANCH 1 22
TORSDOF 20
ENDMDL
MODEL 78
REMARK VINA RESULT:       0.3     66.616     74.882
ROOT
ATOM      1  C1  NGY C   1     107.431  28.143  35.3740  0.00  0.00     0.000 C
ATOM      2  C2  NGY C   1     107.423  29.436  34.5710  0.00  0.00     0.000 C
ATOM      3  C3  NGY C   1     107.337  29.131  33.0790  0.00  0.00     0.000 C
ATOM      4  C4  NGY C   1     108.470  28.188  32.7200  0.00  0.00     0.000 C
ATOM      5  C5  NGY C   1     108.314  26.905  33.5310  0.00  0.00     0.000 C
ATOM      6  O5  NGY C   1     108.425  27.240  34.9390  0.00  0.00     0.000 O
ATOM      7   O  NGY C   1     107.405  30.348  32.3490  0.00  0.00     0.000 O
ATOM      9  HD  NGY C   1     107.816  31.107  32.4130  0.00  0.00     0.000 HD
ATOM      9   O  NGY C   1     108.464  27.892  31.3310  0.00  0.00     0.000 O
ATOM     11  HD  NGY C   1     108.876  28.651  31.3950  0.00  0.00     0.000 HD
ENDROOT
BRANCH 2 13
ATOM     11   N  NGY C   1     106.673  30.254  35.4950  0.00  0.00     0.000 N
ATOM     13  HD  NGY C   1     106.722  31.010  35.0750  0.00  0.00     0.000 HD
ATOM     13   C  NGY C   1     106.470  31.552  35.2720  0.00  0.00     0.000 C
ATOM     14   O  NGY C   1     107.034  32.135  34.3450  0.00  0.00     0.000 OA
ATOM     15   C  NGY C   1     105.508  32.249  36.1850  0.00  0.00     0.000 C
ENDBRANCH 2 13
BRANCH 5 16
ATOM     16   C  NGY C   1     109.357  25.864  33.2800  0.00  0.00     0.000 C
ATOM     17   O  NGY C   1     110.933  23.862  35.9190  0.00  0.00     0.000 OA
ATOM     18   O  NGY C   1     109.898  25.443  34.5350  0.00  0.00     0.000 O
ATOM     19   S  NGY C   1     110.663  24.070  34.5190  0.00  0.00     0.000 S
ATOM     20   O  NGY C   1     111.865  24.262  33.7510  0.00  0.00     0.000 OA
ATOM     21   O  NGY C   1     109.728  23.137  33.9110  0.00  0.00     0.000 OA
ENDBRANCH 5 16
BRANCH 1 22
ATOM     22  O4  BDP C   2     106.193  27.606  35.3450  0.00  0.00     0.000 O
BRANCH 22 26
ATOM     23  C1  BDP C   2     103.245  26.101  37.7950  0.00  0.00     0.000 C
ATOM     24  C2  BDP C   2     104.447  26.678  38.5040  0.00  0.00     0.000 C
ATOM     25  C3  BDP C   2     105.254  27.505  37.5390  0.00  0.00     0.000 C
ATOM     26  C4  BDP C   2     105.588  26.689  36.2940  0.00  0.00     0.000 C
ATOM     27  C5  BDP C   2     104.330  26.012  35.7670  0.00  0.00     0.000 C
ATOM     28  O5  BDP C   2     103.685  25.175  36.7620  0.00  0.00     0.000 O
ATOM     29   O  BDP C   2     104.083  27.610  39.5230  0.00  0.00     0.000 O
ATOM     31  HD  BDP C   2     104.608  28.290  39.6310  0.00  0.00     0.000 HD
ATOM     31   O  BDP C   2     106.449  27.879  38.2130  0.00  0.00     0.000 O
ATOM     33  HD  BDP C   2     106.975  28.559  38.3220  0.00  0.00     0.000 HD
BRANCH 27 33
ATOM     33   C  BDP C   2     104.610  25.108  34.5910  0.00  0.00     0.000 C
ATOM     34   O  BDP C   2     104.027  25.249  33.4890  0.00  0.00     0.000 OA
ATOM     35   O  BDP C   2     105.404  24.194  34.7370  0.00  0.00     0.000 OA
ENDBRANCH 27 33
BRANCH 23 36
ATOM     36  O4  SGN C   3     102.366  25.442  38.5870  0.00  0.00     0.000 O
BRANCH 36 40
ATOM     37  C1  SGN C   3      98.329  24.853  39.4710  0.00  0.00     0.000 C
ATOM     38  C2  SGN C   3      98.946  24.002  38.3500  0.00  0.00     0.000 C
ATOM     39  C3  SGN C   3     100.464  24.012  38.4480  0.00  0.00     0.000 C
ATOM     40  C4  SGN C   3     100.946  25.446  38.4150  0.00  0.00     0.000 C
ATOM     41  C5  SGN C   3     100.274  26.212  39.5330  0.00  0.00     0.000 C
ATOM     42  O5  SGN C   3      98.848  26.169  39.3620  0.00  0.00     0.000 O
ATOM     43   O  SGN C   3     101.009  23.267  37.3660  0.00  0.00     0.000 O
ATOM     45  HD  SGN C   3     101.574  23.871  37.6220  0.00  0.00     0.000 HD
BRANCH 38 47
ATOM     45   N  SGN C   3      98.600  22.634  37.9220  0.00  0.00     0.000 N
ATOM     47  HD  SGN C   3      99.197  23.186  38.2220  0.00  0.00     0.000 HD
ATOM     47   S  SGN C   3      97.029  22.420  37.8190  0.00  0.00     0.000 S
ATOM     48   O  SGN C   3      96.410  22.499  39.0950  0.00  0.00     0.000 OA
ATOM     49   O  SGN C   3      96.558  23.324  36.8220  0.00  0.00     0.000 OA
ATOM     50   O  SGN C   3      96.947  21.032  37.3690  0.00  0.00     0.000 OA
ENDBRANCH 38 47
BRANCH 41 51
ATOM     51   C  SGN C   3     100.673  27.660  39.6140  0.00  0.00     0.000 C
ATOM     52   O  SGN C   3     100.783  30.129  36.8260  0.00  0.00     0.000 OA
ATOM     53   O  SGN C   3     100.241  30.460  39.1350  0.00  0.00     0.000 OA
ATOM     54   O  SGN C   3     102.450  29.777  38.4900  0.00  0.00     0.000 OA
ATOM     55   O  SGN C   3     100.526  28.246  38.3400  0.00  0.00     0.000 O
ATOM     56   S  SGN C   3     101.050  29.798  38.1840  0.00  0.00     0.000 S
ENDBRANCH 41 51
BRANCH 37 57
ATOM     57  O4  IDS C   4      98.577  24.403  40.7250  0.00  0.00     0.000 O
BRANCH 57 61
ATOM     58  C1  IDS C   4      97.210  23.564  44.1750  0.00  0.00     0.000 C
ATOM     59  C2  IDS C   4      96.320  23.382  42.9860  0.00  0.00     0.000 C
ATOM     60  C3  IDS C   4      96.468  24.506  41.9580  0.00  0.00     0.000 C
ATOM     61  C4  IDS C   4      97.865  25.083  41.7770  0.00  0.00     0.000 C
ATOM     62  C5  IDS C   4      98.650  25.030  43.0930  0.00  0.00     0.000 C
ATOM     63  O5  IDS C   4      98.538  23.762  43.7220  0.00  0.00     0.000 O
ATOM     64   O  IDS C   4      95.615  25.540  42.4120  0.00  0.00     0.000 O
ATOM     66  HD  IDS C   4      96.077  26.229  42.6590  0.00  0.00     0.000 HD
BRANCH 59 66
ATOM     66   O  IDS C   4      96.616  22.123  42.2750  0.00  0.00     0.000 O
ATOM     67   S  IDS C   4      95.495  20.996  42.3290  0.00  0.00     0.000 S
ATOM     68   O  IDS C   4      94.393  21.594  41.6140  0.00  0.00     0.000 OA
ATOM     69   O  IDS C   4      96.091  19.845  41.6790  0.00  0.00     0.000 OA
ATOM     70   O  IDS C   4      95.171  20.778  43.7300  0.00  0.00     0.000 OA
ENDBRANCH 59 66
BRANCH 62 71
ATOM     71   C  IDS C   4     100.137  25.265  42.9080  0.00  0.00     0.000 C
ATOM     72   O  IDS C   4     100.897  24.321  42.8080  0.00  0.00     0.000 OA
ATOM     73   O  IDS C   4     100.566  26.436  42.9660  0.00  0.00     0.000 OA
ENDBRANCH 62 71
BRANCH 58 74
ATOM     74  O4  SGN C   5      96.709  24.376  45.1490  0.00  0.00     0.000 O
BRANCH 74 78
ATOM     75  C1  SGN C   5      96.128  24.955  49.2440  0.00  0.00     0.000 C
ATOM     76  C2  SGN C   5      97.566  25.154  48.7310  0.00  0.00     0.000 C
ATOM     77  C3  SGN C   5      97.588  25.253  47.2000  0.00  0.00     0.000 C
ATOM     78  C4  SGN C   5      96.779  24.136  46.5540  0.00  0.00     0.000 C
ATOM     79  C5  SGN C   5      95.384  24.104  47.1610  0.00  0.00     0.000 C
ATOM     80  O5  SGN C   5      95.483  23.869  48.5910  0.00  0.00     0.000 O
ATOM     81   O  SGN C   5      98.939  25.214  46.7530  0.00  0.00     0.000 O
ATOM     83  HD  SGN C   5      99.576  25.597  47.1980  0.00  0.00     0.000 HD
BRANCH 76 85
ATOM     83   N  SGN C   5      98.779  25.595  49.4310  0.00  0.00     0.000 N
ATOM     85  HD  SGN C   5      99.221  25.792  50.1490  0.00  0.00     0.000 HD
ATOM     85   S  SGN C   5      98.929  26.595  50.6850  0.00  0.00     0.000 S
ATOM     86   O  SGN C   5     100.293  26.707  51.0710  0.00  0.00     0.000 OA
ATOM     87   O  SGN C   5      98.253  27.796  50.3460  0.00  0.00     0.000 OA
ATOM     88   O  SGN C   5      98.158  25.731  51.6790  0.00  0.00     0.000 OA
ENDBRANCH 76 85
BRANCH 79 89
ATOM     89   C  SGN C   5      94.491  23.036  46.5640  0.00  0.00     0.000 C
ATOM     90   O  SGN C   5      93.337  22.830  47.4150  0.00  0.00     0.000 O
ATOM     91   S  SGN C   5      91.973  22.395  46.6890  0.00  0.00     0.000 S
ATOM     92   O  SGN C   5      91.744  23.360  45.6450  0.00  0.00     0.000 OA
ATOM     93   O  SGN C   5      92.172  21.065  46.1750  0.00  0.00     0.000 OA
ATOM     94   O  SGN C   5      91.002  22.456  47.7470  0.00  0.00     0.000 OA
ENDBRANCH 79 89
BRANCH 75 95
ATOM     95  O4  BDP C   6      95.468  26.117  48.9610  0.00  0.00     0.000 O
BRANCH 95 99
ATOM     96  C1  BDP C   6      92.354  28.070  51.1820  0.00  0.00     0.000 C
ATOM     97  C2  BDP C   6      93.309  27.172  51.9160  0.00  0.00     0.000 C
ATOM     98  C3  BDP C   6      94.588  26.834  51.1350  0.00  0.00     0.000 C
ATOM     99  C4  BDP C   6      94.267  26.386  49.7170  0.00  0.00     0.000 C
ATOM    100  C5  BDP C   6      93.309  27.427  49.0920  0.00  0.00     0.000 C
ATOM    101  O5  BDP C   6      92.162  27.390  49.9560  0.00  0.00     0.000 O
BRANCH 100 102
ATOM    102   C  BDP C   6      92.859  27.043  47.7050  0.00  0.00     0.000 C
ATOM    103   O  BDP C   6      92.384  25.928  47.4480  0.00  0.00     0.000 OA
ATOM    104   O  BDP C   6      92.972  27.903  46.8230  0.00  0.00     0.000 OA
ENDBRANCH 100 102
ENDBRANCH 95 99
ENDBRANCH 75 95
ENDBRANCH 74 78
ENDBRANCH 58 74
ENDBRANCH 57 61
ENDBRANCH 37 57
ENDBRANCH 36 40
ENDBRANCH 23 36
ENDBRANCH 22 26
ENDBRANCH 1 22
TORSDOF 20
ENDMDL
MODEL 79
REMARK VINA RESULT:       0.3     77.294     82.339
ROOT
ATOM      1  C1  NGY C   1      87.691  52.520  48.3860  0.00  0.00     0.000 C
ATOM      2  C2  NGY C   1      88.164  51.888  47.0840  0.00  0.00     0.000 C
ATOM      3  C3  NGY C   1      88.127  52.913  45.9550  0.00  0.00     0.000 C
ATOM      4  C4  NGY C   1      86.729  53.496  45.8870  0.00  0.00     0.000 C
ATOM      5  C5  NGY C   1      86.413  54.167  47.2200  0.00  0.00     0.000 C
ATOM      6  O5  NGY C   1      86.436  53.152  48.2570  0.00  0.00     0.000 O
ATOM      7   O  NGY C   1      88.502  52.282  44.7390  0.00  0.00     0.000 O
ATOM      9  HD  NGY C   1      88.394  51.510  44.3620  0.00  0.00     0.000 HD
ATOM      9   O  NGY C   1      86.621  54.436  44.8290  0.00  0.00     0.000 O
ATOM     11  HD  NGY C   1      86.512  53.664  44.4520  0.00  0.00     0.000 HD
ENDROOT
BRANCH 2 13
ATOM     11   N  NGY C   1      89.509  51.378  47.2170  0.00  0.00     0.000 N
ATOM     13  HD  NGY C   1      89.380  50.578  46.9110  0.00  0.00     0.000 HD
ATOM     13   C  NGY C   1      89.822  50.133  46.8620  0.00  0.00     0.000 C
ATOM     14   O  NGY C   1      88.949  49.324  46.5420  0.00  0.00     0.000 OA
ATOM     15   C  NGY C   1      91.278  49.784  46.8480  0.00  0.00     0.000 C
ENDBRANCH 2 13
BRANCH 5 16
ATOM     16   C  NGY C   1      85.062  54.803  47.3070  0.00  0.00     0.000 C
ATOM     17   O  NGY C   1      82.583  54.003  49.8910  0.00  0.00     0.000 OA
ATOM     18   O  NGY C   1      84.288  54.107  48.2890  0.00  0.00     0.000 O
ATOM     19   S  NGY C   1      83.036  54.878  48.8390  0.00  0.00     0.000 S
ATOM     20   O  NGY C   1      82.088  54.975  47.7600  0.00  0.00     0.000 OA
ATOM     21   O  NGY C   1      83.558  56.165  49.2700  0.00  0.00     0.000 OA
ENDBRANCH 5 16
BRANCH 1 22
ATOM     22  O4  BDP C   2      88.650  53.356  48.8360  0.00  0.00     0.000 O
BRANCH 22 26
ATOM     23  C1  BDP C   2      90.769  55.055  51.9330  0.00  0.00     0.000 C
ATOM     24  C2  BDP C   2      90.620  53.553  51.9940  0.00  0.00     0.000 C
ATOM     25  C3  BDP C   2      90.164  53.035  50.6550  0.00  0.00     0.000 C
ATOM     26  C4  BDP C   2      88.910  53.774  50.2020  0.00  0.00     0.000 C
ATOM     27  C5  BDP C   2      89.114  55.277  50.3490  0.00  0.00     0.000 C
ATOM     28  O5  BDP C   2      89.468  55.665  51.7010  0.00  0.00     0.000 O
ATOM     29   O  BDP C   2      91.868  52.891  52.2040  0.00  0.00     0.000 O
ATOM     31  HD  BDP C   2      91.975  52.131  51.8030  0.00  0.00     0.000 HD
ATOM     31   O  BDP C   2      89.883  51.651  50.8210  0.00  0.00     0.000 O
ATOM     33  HD  BDP C   2      89.990  50.891  50.4200  0.00  0.00     0.000 HD
BRANCH 27 33
ATOM     33   C  BDP C   2      87.871  56.064  50.0080  0.00  0.00     0.000 C
ATOM     34   O  BDP C   2      86.741  55.746  50.4480  0.00  0.00     0.000 OA
ATOM     35   O  BDP C   2      87.977  57.017  49.2540  0.00  0.00     0.000 OA
ENDBRANCH 27 33
BRANCH 23 36
ATOM     36  O4  SGN C   3      91.299  55.630  53.0370  0.00  0.00     0.000 O
BRANCH 36 40
ATOM     37  C1  SGN C   3      94.324  58.282  54.1540  0.00  0.00     0.000 C
ATOM     38  C2  SGN C   3      92.870  58.699  54.4310  0.00  0.00     0.000 C
ATOM     39  C3  SGN C   3      91.951  57.488  54.3810  0.00  0.00     0.000 C
ATOM     40  C4  SGN C   3      92.110  56.808  53.0380  0.00  0.00     0.000 C
ATOM     41  C5  SGN C   3      93.568  56.455  52.8410  0.00  0.00     0.000 C
ATOM     42  O5  SGN C   3      94.366  57.648  52.8850  0.00  0.00     0.000 O
ATOM     43   O  SGN C   3      90.608  57.911  54.5810  0.00  0.00     0.000 O
ATOM     45  HD  SGN C   3      90.621  57.185  54.1080  0.00  0.00     0.000 HD
BRANCH 38 47
ATOM     45   N  SGN C   3      93.648  59.949  54.5110  0.00  0.00     0.000 N
ATOM     47  HD  SGN C   3      93.405  59.258  54.0470  0.00  0.00     0.000 HD
ATOM     47   S  SGN C   3      93.215  60.843  55.7510  0.00  0.00     0.000 S
ATOM     48   O  SGN C   3      91.888  61.326  55.6030  0.00  0.00     0.000 OA
ATOM     49   O  SGN C   3      93.491  60.078  56.9230  0.00  0.00     0.000 OA
ATOM     50   O  SGN C   3      94.121  61.983  55.6260  0.00  0.00     0.000 OA
ENDBRANCH 38 47
BRANCH 41 51
ATOM     51   C  SGN C   3      93.863  55.765  51.5370  0.00  0.00     0.000 C
ATOM     52   O  SGN C   3      94.946  52.234  51.0490  0.00  0.00     0.000 OA
ATOM     53   O  SGN C   3      93.559  53.607  49.6640  0.00  0.00     0.000 OA
ATOM     54   O  SGN C   3      95.868  54.168  50.0100  0.00  0.00     0.000 OA
ATOM     55   O  SGN C   3      94.192  54.418  51.7980  0.00  0.00     0.000 O
ATOM     56   S  SGN C   3      94.688  53.525  50.5090  0.00  0.00     0.000 S
ENDBRANCH 41 51
BRANCH 37 57
ATOM     57  O4  IDS C   4      94.853  57.434  55.0690  0.00  0.00     0.000 O
BRANCH 57 61
ATOM     58  C1  IDS C   4      98.053  57.309  57.1230  0.00  0.00     0.000 C
ATOM     59  C2  IDS C   4      97.723  58.567  56.3840  0.00  0.00     0.000 C
ATOM     60  C3  IDS C   4      97.138  58.300  54.9940  0.00  0.00     0.000 C
ATOM     61  C4  IDS C   4      96.235  57.083  54.8580  0.00  0.00     0.000 C
ATOM     62  C5  IDS C   4      96.671  55.972  55.8200  0.00  0.00     0.000 C
ATOM     63  O5  IDS C   4      96.910  56.471  57.1280  0.00  0.00     0.000 O
ATOM     64   O  IDS C   4      98.258  58.121  54.1470  0.00  0.00     0.000 O
ATOM     66  HD  IDS C   4      98.296  57.304  53.8640  0.00  0.00     0.000 HD
BRANCH 59 66
ATOM     66   O  IDS C   4      96.725  59.377  57.1090  0.00  0.00     0.000 O
ATOM     67   S  IDS C   4      97.204  60.808  57.6150  0.00  0.00     0.000 S
ATOM     68   O  IDS C   4      97.463  61.521  56.3870  0.00  0.00     0.000 OA
ATOM     69   O  IDS C   4      96.094  61.318  58.3950  0.00  0.00     0.000 OA
ATOM     70   O  IDS C   4      98.421  60.606  58.3850  0.00  0.00     0.000 OA
ENDBRANCH 59 66
BRANCH 62 71
ATOM     71   C  IDS C   4      95.627  54.883  55.9830  0.00  0.00     0.000 C
ATOM     72   O  IDS C   4      94.465  55.104  55.7030  0.00  0.00     0.000 OA
ATOM     73   O  IDS C   4      95.972  53.803  56.5050  0.00  0.00     0.000 OA
ENDBRANCH 62 71
BRANCH 58 74
ATOM     74  O4  SGN C   5      99.271  56.772  56.8300  0.00  0.00     0.000 O
BRANCH 74 78
ATOM     75  C1  SGN C   5     102.607  54.709  58.2650  0.00  0.00     0.000 C
ATOM     76  C2  SGN C   5     101.312  53.887  58.1260  0.00  0.00     0.000 C
ATOM     77  C3  SGN C   5     100.277  54.644  57.2840  0.00  0.00     0.000 C
ATOM     78  C4  SGN C   5     100.125  56.086  57.7460  0.00  0.00     0.000 C
ATOM     79  C5  SGN C   5     101.493  56.748  57.8000  0.00  0.00     0.000 C
ATOM     80  O5  SGN C   5     102.344  56.027  58.7300  0.00  0.00     0.000 O
ATOM     81   O  SGN C   5      99.030  53.960  57.3610  0.00  0.00     0.000 O
ATOM     83  HD  SGN C   5      98.986  53.095  57.3850  0.00  0.00     0.000 HD
BRANCH 76 85
ATOM     83   N  SGN C   5     102.236  52.777  57.8620  0.00  0.00     0.000 N
ATOM     85  HD  SGN C   5     102.411  51.970  57.6010  0.00  0.00     0.000 HD
ATOM     85   S  SGN C   5     102.053  51.203  58.1500  0.00  0.00     0.000 S
ATOM     86   O  SGN C   5     103.187  50.478  57.6920  0.00  0.00     0.000 OA
ATOM     87   O  SGN C   5     101.709  51.065  59.5200  0.00  0.00     0.000 OA
ATOM     88   O  SGN C   5     100.868  50.999  57.2090  0.00  0.00     0.000 OA
ENDBRANCH 76 85
BRANCH 79 89
ATOM     89   C  SGN C   5     101.445  58.201  58.2280  0.00  0.00     0.000 C
ATOM     90   O  SGN C   5     102.790  58.692  58.4510  0.00  0.00     0.000 O
ATOM     91   S  SGN C   5     103.049  60.246  58.1480  0.00  0.00     0.000 S
ATOM     92   O  SGN C   5     102.571  60.486  56.8120  0.00  0.00     0.000 OA
ATOM     93   O  SGN C   5     102.320  60.998  59.1370  0.00  0.00     0.000 OA
ATOM     94   O  SGN C   5     104.475  60.374  58.2770  0.00  0.00     0.000 OA
ENDBRANCH 79 89
BRANCH 75 95
ATOM     95  O4  BDP C   6     103.149  54.764  57.0120  0.00  0.00     0.000 O
BRANCH 95 99
ATOM     96  C1  BDP C   6     107.258  55.099  55.8070  0.00  0.00     0.000 C
ATOM     97  C2  BDP C   6     106.940  54.401  57.0990  0.00  0.00     0.000 C
ATOM     98  C3  BDP C   6     105.466  53.996  57.2550  0.00  0.00     0.000 C
ATOM     99  C4  BDP C   6     104.537  55.154  56.9190  0.00  0.00     0.000 C
ATOM    100  C5  BDP C   6     104.972  55.736  55.5540  0.00  0.00     0.000 C
ATOM    101  O5  BDP C   6     106.324  56.162  55.7860  0.00  0.00     0.000 O
BRANCH 100 102
ATOM    102   C  BDP C   6     104.165  56.945  55.1540  0.00  0.00     0.000 C
ATOM    103   O  BDP C   6     103.178  56.865  54.4080  0.00  0.00     0.000 OA
ATOM    104   O  BDP C   6     104.525  58.034  55.6160  0.00  0.00     0.000 OA
ENDBRANCH 100 102
ENDBRANCH 95 99
ENDBRANCH 75 95
ENDBRANCH 74 78
ENDBRANCH 58 74
ENDBRANCH 57 61
ENDBRANCH 37 57
ENDBRANCH 36 40
ENDBRANCH 23 36
ENDBRANCH 22 26
ENDBRANCH 1 22
TORSDOF 20
ENDMDL
MODEL 80
REMARK VINA RESULT:       0.4    111.277    117.705
ROOT
ATOM      1  C1  NGY C   1      86.396  96.119  73.6940  0.00  0.00     0.000 C
ATOM      2  C2  NGY C   1      87.507  95.667  72.7580  0.00  0.00     0.000 C
ATOM      3  C3  NGY C   1      87.224  96.138  71.3350  0.00  0.00     0.000 C
ATOM      4  C4  NGY C   1      85.844  95.649  70.9380  0.00  0.00     0.000 C
ATOM      5  C5  NGY C   1      84.819  96.239  71.9030  0.00  0.00     0.000 C
ATOM      6  O5  NGY C   1      85.114  95.745  73.2350  0.00  0.00     0.000 O
ATOM      7   O  NGY C   1      88.235  95.643  70.4690  0.00  0.00     0.000 O
ATOM      9  HD  NGY C   1      88.710  94.923  70.3900  0.00  0.00     0.000 HD
ATOM      9   O  NGY C   1      85.534  96.029  69.6050  0.00  0.00     0.000 O
ATOM     11  HD  NGY C   1      86.009  95.310  69.5260  0.00  0.00     0.000 HD
ENDROOT
BRANCH 2 13
ATOM     11   N  NGY C   1      88.821  95.112  72.5330  0.00  0.00     0.000 N
ATOM     13  HD  NGY C   1      89.237  95.477  73.2000  0.00  0.00     0.000 HD
ATOM     13   C  NGY C   1      89.846  95.398  73.3340  0.00  0.00     0.000 C
ATOM     14   O  NGY C   1      89.748  96.258  74.2120  0.00  0.00     0.000 OA
ATOM     15   C  NGY C   1      91.102  94.607  73.1300  0.00  0.00     0.000 C
ENDBRANCH 2 13
BRANCH 5 16
ATOM     16   C  NGY C   1      83.399  95.854  71.6340  0.00  0.00     0.000 C
ATOM     17   O  NGY C   1      81.444  93.608  73.7770  0.00  0.00     0.000 OA
ATOM     18   O  NGY C   1      83.027  94.809  72.5370  0.00  0.00     0.000 O
ATOM     19   S  NGY C   1      81.483  94.585  72.7180  0.00  0.00     0.000 S
ATOM     20   O  NGY C   1      80.980  94.066  71.4740  0.00  0.00     0.000 OA
ATOM     21   O  NGY C   1      80.959  95.900  73.0530  0.00  0.00     0.000 OA
ENDBRANCH 5 16
BRANCH 1 22
ATOM     22  O4  BDP C   2      86.509  97.449  73.8920  0.00  0.00     0.000 O
BRANCH 22 26
ATOM     23  C1  BDP C   2      85.927 100.836  76.1630  0.00  0.00     0.000 C
ATOM     24  C2  BDP C   2      86.853  99.804  76.7610  0.00  0.00     0.000 C
ATOM     25  C3  BDP C   2      87.262  98.816  75.7000  0.00  0.00     0.000 C
ATOM     26  C4  BDP C   2      86.030  98.235  75.0150  0.00  0.00     0.000 C
ATOM     27  C5  BDP C   2      85.085  99.360  74.6100  0.00  0.00     0.000 C
ATOM     28  O5  BDP C   2      84.694 100.194  75.7310  0.00  0.00     0.000 O
ATOM     29   O  BDP C   2      88.092 100.368  77.1910  0.00  0.00     0.000 O
ATOM     31  HD  BDP C   2      88.798  99.876  77.0900  0.00  0.00     0.000 HD
ATOM     31   O  BDP C   2      87.990  97.784  76.3540  0.00  0.00     0.000 O
ATOM     33  HD  BDP C   2      88.696  97.292  76.2530  0.00  0.00     0.000 HD
BRANCH 27 33
ATOM     33   C  BDP C   2      83.797  98.845  74.0130  0.00  0.00     0.000 C
ATOM     34   O  BDP C   2      83.372  99.245  72.9030  0.00  0.00     0.000 OA
ATOM     35   O  BDP C   2      83.141  98.041  74.6540  0.00  0.00     0.000 OA
ENDBRANCH 27 33
BRANCH 23 36
ATOM     36  O4  SGN C   3      85.590 101.858  76.9840  0.00  0.00     0.000 O
BRANCH 36 40
ATOM     37  C1  SGN C   3      84.648 105.919  77.2070  0.00  0.00     0.000 C
ATOM     38  C2  SGN C   3      83.525 104.945  76.8140  0.00  0.00     0.000 C
ATOM     39  C3  SGN C   3      83.896 103.521  77.1990  0.00  0.00     0.000 C
ATOM     40  C4  SGN C   3      85.218 103.169  76.5510  0.00  0.00     0.000 C
ATOM     41  C5  SGN C   3      86.254 104.187  76.9730  0.00  0.00     0.000 C
ATOM     42  O5  SGN C   3      85.840 105.499  76.5620  0.00  0.00     0.000 O
ATOM     43   O  SGN C   3      82.868 102.637  76.7710  0.00  0.00     0.000 O
ATOM     45  HD  SGN C   3      83.625 102.217  76.7980  0.00  0.00     0.000 HD
BRANCH 38 47
ATOM     45   N  SGN C   3      83.018 106.239  76.3210  0.00  0.00     0.000 N
ATOM     47  HD  SGN C   3      83.621 105.618  76.2820  0.00  0.00     0.000 HD
ATOM     47   S  SGN C   3      81.516 106.502  76.7720  0.00  0.00     0.000 S
ATOM     48   O  SGN C   3      80.624 105.579  76.1640  0.00  0.00     0.000 OA
ATOM     49   O  SGN C   3      81.519 106.545  78.1970  0.00  0.00     0.000 OA
ATOM     50   O  SGN C   3      81.259 107.819  76.1930  0.00  0.00     0.000 OA
ENDBRANCH 38 47
BRANCH 41 51
ATOM     51   C  SGN C   3      87.623 103.946  76.3970  0.00  0.00     0.000 C
ATOM     52   O  SGN C   3      90.872 105.225  77.6960  0.00  0.00     0.000 OA
ATOM     53   O  SGN C   3      90.377 103.153  76.6030  0.00  0.00     0.000 OA
ATOM     54   O  SGN C   3      90.135 105.235  75.4320  0.00  0.00     0.000 OA
ATOM     55   O  SGN C   3      88.581 104.569  77.2240  0.00  0.00     0.000 O
ATOM     56   S  SGN C   3      90.136 104.543  76.6870  0.00  0.00     0.000 S
ENDBRANCH 41 51
BRANCH 37 57
ATOM     57  O4  IDS C   4      84.891 105.994  78.5390  0.00  0.00     0.000 O
BRANCH 57 61
ATOM     58  C1  IDS C   4      85.094 107.761  81.9010  0.00  0.00     0.000 C
ATOM     59  C2  IDS C   4      83.814 107.830  81.1300  0.00  0.00     0.000 C
ATOM     60  C3  IDS C   4      84.038 108.010  79.6270  0.00  0.00     0.000 C
ATOM     61  C4  IDS C   4      85.246 107.301  79.0280  0.00  0.00     0.000 C
ATOM     62  C5  IDS C   4      86.386 107.214  80.0490  0.00  0.00     0.000 C
ATOM     63  O5  IDS C   4      85.924 106.771  81.3180  0.00  0.00     0.000 O
ATOM     64   O  IDS C   4      84.201 109.403  79.4390  0.00  0.00     0.000 O
ATOM     66  HD  IDS C   4      85.011 109.583  79.1890  0.00  0.00     0.000 HD
BRANCH 59 66
ATOM     66   O  IDS C   4      83.018 106.598  81.2900  0.00  0.00     0.000 O
ATOM     67   S  IDS C   4      81.840 106.646  82.3580  0.00  0.00     0.000 S
ATOM     68   O  IDS C   4      80.934 107.623  81.8030  0.00  0.00     0.000 OA
ATOM     69   O  IDS C   4      81.324 105.293  82.4060  0.00  0.00     0.000 OA
ATOM     70   O  IDS C   4      82.416 107.101  83.6140  0.00  0.00     0.000 OA
ENDBRANCH 59 66
BRANCH 62 71
ATOM     71   C  IDS C   4      87.472 106.235  79.6450  0.00  0.00     0.000 C
ATOM     72   O  IDS C   4      87.614 105.195  80.2580  0.00  0.00     0.000 OA
ATOM     73   O  IDS C   4      88.271 106.572  78.7480  0.00  0.00     0.000 OA
ENDBRANCH 62 71
BRANCH 58 74
ATOM     74  O4  SGN C   5      85.631 108.970  82.2340  0.00  0.00     0.000 O
BRANCH 74 78
ATOM     75  C1  SGN C   5      87.553 111.241  85.1650  0.00  0.00     0.000 C
ATOM     76  C2  SGN C   5      88.373 110.086  84.5590  0.00  0.00     0.000 C
ATOM     77  C3  SGN C   5      87.705 109.558  83.2820  0.00  0.00     0.000 C
ATOM     78  C4  SGN C   5      86.218 109.306  83.4900  0.00  0.00     0.000 C
ATOM     79  C5  SGN C   5      85.568 110.555  84.0680  0.00  0.00     0.000 C
ATOM     80  O5  SGN C   5      86.189 110.881  85.3390  0.00  0.00     0.000 O
ATOM     81   O  SGN C   5      88.363 108.362  82.8780  0.00  0.00     0.000 O
ATOM     83  HD  SGN C   5      89.219 108.262  82.9650  0.00  0.00     0.000 HD
BRANCH 76 85
ATOM     83   N  SGN C   5      89.742 109.678  84.8970  0.00  0.00     0.000 N
ATOM     85  HD  SGN C   5      90.483 109.768  85.3370  0.00  0.00     0.000 HD
ATOM     85   S  SGN C   5      91.044 110.589  85.1620  0.00  0.00     0.000 S
ATOM     86   O  SGN C   5      92.158 109.774  85.5060  0.00  0.00     0.000 OA
ATOM     87   O  SGN C   5      91.192 111.446  84.0410  0.00  0.00     0.000 OA
ATOM     88   O  SGN C   5      90.499 111.302  86.3970  0.00  0.00     0.000 OA
ENDBRANCH 76 85
BRANCH 79 89
ATOM     89   C  SGN C   5      84.076 110.411  84.2890  0.00  0.00     0.000 C
ATOM     90   O  SGN C   5      83.831 109.678  85.5140  0.00  0.00     0.000 O
ATOM     91   S  SGN C   5      82.496 110.052  86.3240  0.00  0.00     0.000 S
ATOM     92   O  SGN C   5      82.522 111.479  86.5110  0.00  0.00     0.000 OA
ATOM     93   O  SGN C   5      81.380 109.621  85.5220  0.00  0.00     0.000 OA
ATOM     94   O  SGN C   5      82.635 109.311  87.5490  0.00  0.00     0.000 OA
ENDBRANCH 79 89
BRANCH 75 95
ATOM     95  O4  BDP C   6      87.645 112.271  84.2710  0.00  0.00     0.000 O
BRANCH 95 99
ATOM     96  C1  BDP C   6      87.545 116.526  84.8470  0.00  0.00     0.000 C
ATOM     97  C2  BDP C   6      88.263 115.678  85.8580  0.00  0.00     0.000 C
ATOM     98  C3  BDP C   6      88.573 114.251  85.3820  0.00  0.00     0.000 C
ATOM     99  C4  BDP C   6      87.346 113.593  84.7690  0.00  0.00     0.000 C
ATOM    100  C5  BDP C   6      86.748 114.572  83.7310  0.00  0.00     0.000 C
ATOM    101  O5  BDP C   6      86.421 115.732  84.5120  0.00  0.00     0.000 O
BRANCH 100 102
ATOM    102   C  BDP C   6      85.475 114.056  83.1110  0.00  0.00     0.000 C
ATOM    103   O  BDP C   6      85.382 113.804  81.9010  0.00  0.00     0.000 OA
ATOM    104   O  BDP C   6      84.515 113.878  83.8710  0.00  0.00     0.000 OA
ENDBRANCH 100 102
ENDBRANCH 95 99
ENDBRANCH 75 95
ENDBRANCH 74 78
ENDBRANCH 58 74
ENDBRANCH 57 61
ENDBRANCH 37 57
ENDBRANCH 36 40
ENDBRANCH 23 36
ENDBRANCH 22 26
ENDBRANCH 1 22
TORSDOF 20
ENDMDL
MODEL 81
REMARK VINA RESULT:       0.4    106.827    113.679
ROOT
ATOM      1  C1  NGY C   1      28.907 100.481 117.5880  0.00  0.00     0.000 C
ATOM      2  C2  NGY C   1      30.111  99.793 118.2180  0.00  0.00     0.000 C
ATOM      3  C3  NGY C   1      29.766  98.353 118.5820  0.00  0.00     0.000 C
ATOM      4  C4  NGY C   1      28.531  98.367 119.4620  0.00  0.00     0.000 C
ATOM      5  C5  NGY C   1      27.383  99.004 118.6850  0.00  0.00     0.000 C
ATOM      6  O5  NGY C   1      27.745 100.377 118.3820  0.00  0.00     0.000 O
ATOM      7   O  NGY C   1      30.879  97.757 119.2330  0.00  0.00     0.000 O
ATOM      9  HD  NGY C   1      31.497  98.000 119.7880  0.00  0.00     0.000 HD
ATOM      9   O  NGY C   1      28.177  97.051 119.8640  0.00  0.00     0.000 O
ATOM     11  HD  NGY C   1      28.796  97.294 120.4190  0.00  0.00     0.000 HD
ENDROOT
BRANCH 2 13
ATOM     11   N  NGY C   1      31.156 100.281 117.3500  0.00  0.00     0.000 N
ATOM     13  HD  NGY C   1      31.840 100.103 117.8500  0.00  0.00     0.000 HD
ATOM     13   C  NGY C   1      32.440 100.223 117.7010  0.00  0.00     0.000 C
ATOM     14   O  NGY C   1      32.774  99.883 118.8370  0.00  0.00     0.000 OA
ATOM     15   C  NGY C   1      33.443 100.562 116.6420  0.00  0.00     0.000 C
ENDBRANCH 2 13
BRANCH 5 16
ATOM     16   C  NGY C   1      26.083  99.083 119.4210  0.00  0.00     0.000 C
ATOM     17   O  NGY C   1      25.527 101.178 122.3800  0.00  0.00     0.000 OA
ATOM     18   O  NGY C   1      26.285  99.815 120.6330  0.00  0.00     0.000 O
ATOM     19   S  NGY C   1      24.985 100.383 121.3080  0.00  0.00     0.000 S
ATOM     20   O  NGY C   1      24.229  99.256 121.7890  0.00  0.00     0.000 OA
ATOM     21   O  NGY C   1      24.315 101.122 120.2500  0.00  0.00     0.000 OA
ENDBRANCH 5 16
BRANCH 1 22
ATOM     22  O4  BDP C   2      28.731  99.991 116.3420  0.00  0.00     0.000 O
BRANCH 22 26
ATOM     23  C1  BDP C   2      27.117 100.253 112.5620  0.00  0.00     0.000 C
ATOM     24  C2  BDP C   2      27.883 101.469 113.0280  0.00  0.00     0.000 C
ATOM     25  C3  BDP C   2      28.711 101.114 114.2350  0.00  0.00     0.000 C
ATOM     26  C4  BDP C   2      27.835 100.472 115.3060  0.00  0.00     0.000 C
ATOM     27  C5  BDP C   2      26.980  99.375 114.6850  0.00  0.00     0.000 C
ATOM     28  O5  BDP C   2      26.163  99.855 113.5870  0.00  0.00     0.000 O
ATOM     29   O  BDP C   2      28.850 101.902 112.0710  0.00  0.00     0.000 O
ATOM     31  HD  BDP C   2      29.591 102.220 112.3870  0.00  0.00     0.000 HD
ATOM     31   O  BDP C   2      29.271 102.326 114.7230  0.00  0.00     0.000 O
ATOM     33  HD  BDP C   2      30.012 102.644 115.0390  0.00  0.00     0.000 HD
BRANCH 27 33
ATOM     33   C  BDP C   2      26.017  98.764 115.6750  0.00  0.00     0.000 C
ATOM     34   O  BDP C   2      25.860  97.524 115.7720  0.00  0.00     0.000 OA
ATOM     35   O  BDP C   2      25.351  99.511 116.3740  0.00  0.00     0.000 OA
ENDBRANCH 27 33
BRANCH 23 36
ATOM     36  O4  SGN C   3      26.433 100.407 111.4040  0.00  0.00     0.000 O
BRANCH 36 40
ATOM     37  C1  SGN C   3      24.980  98.492 107.9910  0.00  0.00     0.000 C
ATOM     38  C2  SGN C   3      24.152  98.378 109.2810  0.00  0.00     0.000 C
ATOM     39  C3  SGN C   3      24.563  99.455 110.2740  0.00  0.00     0.000 C
ATOM     40  C4  SGN C   3      26.050  99.341 110.5310  0.00  0.00     0.000 C
ATOM     41  C5  SGN C   3      26.782  99.440 109.2110  0.00  0.00     0.000 C
ATOM     42  O5  SGN C   3      26.352  98.385 108.3380  0.00  0.00     0.000 O
ATOM     43   O  SGN C   3      23.824  99.290 111.4780  0.00  0.00     0.000 O
ATOM     45  HD  SGN C   3      24.583  99.669 111.6480  0.00  0.00     0.000 HD
BRANCH 38 47
ATOM     45   N  SGN C   3      23.660  97.243 108.4790  0.00  0.00     0.000 N
ATOM     47  HD  SGN C   3      24.319  97.627 108.8910  0.00  0.00     0.000 HD
ATOM     47   S  SGN C   3      22.073  97.191 108.4290  0.00  0.00     0.000 S
ATOM     48   O  SGN C   3      21.523  96.913 109.7090  0.00  0.00     0.000 OA
ATOM     49   O  SGN C   3      21.644  98.395 107.7960  0.00  0.00     0.000 OA
ATOM     50   O  SGN C   3      21.840  96.023 107.5810  0.00  0.00     0.000 OA
ENDBRANCH 38 47
BRANCH 41 51
ATOM     51   C  SGN C   3      28.279  99.346 109.3280  0.00  0.00     0.000 C
ATOM     52   O  SGN C   3      30.759 102.078 108.8130  0.00  0.00     0.000 OA
ATOM     53   O  SGN C   3      30.823 100.228 110.3310  0.00  0.00     0.000 OA
ATOM     54   O  SGN C   3      30.880  99.857 107.9600  0.00  0.00     0.000 OA
ATOM     55   O  SGN C   3      28.835 100.622 109.1020  0.00  0.00     0.000 O
ATOM     56   S  SGN C   3      30.478 100.702 109.0450  0.00  0.00     0.000 S
ENDBRANCH 41 51
BRANCH 37 57
ATOM     57  O4  IDS C   4      24.806  99.649 107.3070  0.00  0.00     0.000 O
BRANCH 57 61
ATOM     58  C1  IDS C   4      23.774 101.704 104.2760  0.00  0.00     0.000 C
ATOM     59  C2  IDS C   4      22.815 100.692 104.8170  0.00  0.00     0.000 C
ATOM     60  C3  IDS C   4      23.505  99.396 105.2520  0.00  0.00     0.000 C
ATOM     61  C4  IDS C   4      24.888  99.536 105.8730  0.00  0.00     0.000 C
ATOM     62  C5  IDS C   4      25.635 100.732 105.2710  0.00  0.00     0.000 C
ATOM     63  O5  IDS C   4      24.817 101.892 105.2180  0.00  0.00     0.000 O
ATOM     64   O  IDS C   4      23.622  98.622 104.0730  0.00  0.00     0.000 O
ATOM     66  HD  IDS C   4      24.454  98.535 103.8490  0.00  0.00     0.000 HD
BRANCH 59 66
ATOM     66   O  IDS C   4      22.099 101.202 106.0020  0.00  0.00     0.000 O
ATOM     67   S  IDS C   4      20.549 101.510 105.8180  0.00  0.00     0.000 S
ATOM     68   O  IDS C   4      19.984 100.207 105.5560  0.00  0.00     0.000 OA
ATOM     69   O  IDS C   4      20.137 102.114 107.0690  0.00  0.00     0.000 OA
ATOM     70   O  IDS C   4      20.419 102.391 104.6680  0.00  0.00     0.000 OA
ENDBRANCH 59 66
BRANCH 62 71
ATOM     71   C  IDS C   4      26.859 101.133 106.0720  0.00  0.00     0.000 C
ATOM     72   O  IDS C   4      27.863 100.448 106.0350  0.00  0.00     0.000 OA
ATOM     73   O  IDS C   4      26.773 102.112 106.8400  0.00  0.00     0.000 OA
ENDBRANCH 62 71
BRANCH 58 74
ATOM     74  O4  SGN C   5      24.087 101.552 102.9570  0.00  0.00     0.000 O
BRANCH 74 78
ATOM     75  C1  SGN C   5      24.700 103.444  99.2850  0.00  0.00     0.000 C
ATOM     76  C2  SGN C   5      25.844 103.569 100.3090  0.00  0.00     0.000 C
ATOM     77  C3  SGN C   5      25.656 102.569 101.4570  0.00  0.00     0.000 C
ATOM     78  C4  SGN C   5      24.237 102.607 102.0080  0.00  0.00     0.000 C
ATOM     79  C5  SGN C   5      23.245 102.444 100.8650  0.00  0.00     0.000 C
ATOM     80  O5  SGN C   5      23.425 103.522  99.9090  0.00  0.00     0.000 O
ATOM     81   O  SGN C   5      26.599 102.862 102.4830  0.00  0.00     0.000 O
ATOM     83  HD  SGN C   5      27.401 103.131 102.3000  0.00  0.00     0.000 HD
BRANCH 76 85
ATOM     83   N  SGN C   5      26.702 104.552  99.6360  0.00  0.00     0.000 N
ATOM     85  HD  SGN C   5      27.224 104.800  98.9910  0.00  0.00     0.000 HD
ATOM     85   S  SGN C   5      28.115 104.337  98.8930  0.00  0.00     0.000 S
ATOM     86   O  SGN C   5      28.577 105.562  98.3390  0.00  0.00     0.000 OA
ATOM     87   O  SGN C   5      28.975 103.678  99.8100  0.00  0.00     0.000 OA
ATOM     88   O  SGN C   5      27.587 103.416  97.7960  0.00  0.00     0.000 OA
ENDBRANCH 76 85
BRANCH 79 89
ATOM     89   C  SGN C   5      21.799 102.445 101.3170  0.00  0.00     0.000 C
ATOM     90   O  SGN C   5      20.938 102.790 100.2040  0.00  0.00     0.000 O
ATOM     91   S  SGN C   5      19.472 102.136 100.1970  0.00  0.00     0.000 S
ATOM     92   O  SGN C   5      19.659 100.717 100.3520  0.00  0.00     0.000 OA
ATOM     93   O  SGN C   5      18.743 102.719 101.2940  0.00  0.00     0.000 OA
ATOM     94   O  SGN C   5      18.952 102.508  98.9090  0.00  0.00     0.000 OA
ENDBRANCH 79 89
BRANCH 75 95
ATOM     95  O4  BDP C   6      24.852 102.216  98.7060  0.00  0.00     0.000 O
BRANCH 95 99
ATOM     96  C1  BDP C   6      24.238 101.265  94.5620  0.00  0.00     0.000 C
ATOM     97  C2  BDP C   6      24.303 102.710  94.9690  0.00  0.00     0.000 C
ATOM     98  C3  BDP C   6      24.897 102.950  96.3650  0.00  0.00     0.000 C
ATOM     99  C4  BDP C   6      24.261 102.033  97.4010  0.00  0.00     0.000 C
ATOM    100  C5  BDP C   6      24.304 100.588  96.8500  0.00  0.00     0.000 C
ATOM    101  O5  BDP C   6      23.538 100.667  95.6380  0.00  0.00     0.000 O
BRANCH 100 102
ATOM    102   C  BDP C   6      23.628  99.598  97.7640  0.00  0.00     0.000 C
ATOM    103   O  BDP C   6      22.546  99.065  97.4770  0.00  0.00     0.000 OA
ATOM    104   O  BDP C   6      24.209  99.324  98.8200  0.00  0.00     0.000 OA
ENDBRANCH 100 102
ENDBRANCH 95 99
ENDBRANCH 75 95
ENDBRANCH 74 78
ENDBRANCH 58 74
ENDBRANCH 57 61
ENDBRANCH 37 57
ENDBRANCH 36 40
ENDBRANCH 23 36
ENDBRANCH 22 26
ENDBRANCH 1 22
TORSDOF 20
ENDMDL
MODEL 82
REMARK VINA RESULT:       0.7     74.787     79.913
ROOT
ATOM      1  C1  NGY C   1      87.057  51.797  47.8690  0.00  0.00     0.000 C
ATOM      2  C2  NGY C   1      87.654  51.534  46.4930  0.00  0.00     0.000 C
ATOM      3  C3  NGY C   1      87.706  52.825  45.6830  0.00  0.00     0.000 C
ATOM      4  C4  NGY C   1      86.312  53.422  45.6490  0.00  0.00     0.000 C
ATOM      5  C5  NGY C   1      85.869  53.714  47.0800  0.00  0.00     0.000 C
ATOM      6  O5  NGY C   1      85.811  52.457  47.8030  0.00  0.00     0.000 O
ATOM      7   O  NGY C   1      88.197  52.541  44.3810  0.00  0.00     0.000 O
ATOM      9  HD  NGY C   1      88.132  51.900  43.8020  0.00  0.00     0.000 HD
ATOM      9   O  NGY C   1      86.288  54.615  44.8780  0.00  0.00     0.000 O
ATOM     11  HD  NGY C   1      86.224  53.974  44.2990  0.00  0.00     0.000 HD
ENDROOT
BRANCH 2 13
ATOM     11   N  NGY C   1      88.831  50.763  46.8150  0.00  0.00     0.000 N
ATOM     13  HD  NGY C   1      88.901  50.310  46.0790  0.00  0.00     0.000 HD
ATOM     13   C  NGY C   1      89.346  49.883  45.9570  0.00  0.00     0.000 C
ATOM     14   O  NGY C   1      88.756  49.589  44.9160  0.00  0.00     0.000 OA
ATOM     15   C  NGY C   1      90.679  49.299  46.3110  0.00  0.00     0.000 C
ENDBRANCH 2 13
BRANCH 5 16
ATOM     16   C  NGY C   1      84.508  54.319  47.2120  0.00  0.00     0.000 C
ATOM     17   O  NGY C   1      81.938  53.097  49.5280  0.00  0.00     0.000 OA
ATOM     18   O  NGY C   1      83.705  53.469  48.0360  0.00  0.00     0.000 O
ATOM     19   S  NGY C   1      82.421  54.134  48.6520  0.00  0.00     0.000 S
ATOM     20   O  NGY C   1      81.516  54.399  47.5640  0.00  0.00     0.000 OA
ATOM     21   O  NGY C   1      82.910  55.336  49.3060  0.00  0.00     0.000 OA
ENDBRANCH 5 16
BRANCH 1 22
ATOM     22  O4  BDP C   2      87.962  52.469  48.6120  0.00  0.00     0.000 O
BRANCH 22 26
ATOM     23  C1  BDP C   2      89.703  53.317  52.2470  0.00  0.00     0.000 C
ATOM     24  C2  BDP C   2      89.538  51.849  51.9320  0.00  0.00     0.000 C
ATOM     25  C3  BDP C   2      89.243  51.677  50.4650  0.00  0.00     0.000 C
ATOM     26  C4  BDP C   2      88.057  52.546  50.0590  0.00  0.00     0.000 C
ATOM     27  C5  BDP C   2      88.253  53.963  50.5810  0.00  0.00     0.000 C
ATOM     28  O5  BDP C   2      88.444  54.010  52.0180  0.00  0.00     0.000 O
ATOM     29   O  BDP C   2      90.746  51.113  52.1210  0.00  0.00     0.000 O
ATOM     31  HD  BDP C   2      90.896  50.465  51.5670  0.00  0.00     0.000 HD
ATOM     31   O  BDP C   2      88.934  50.303  50.2640  0.00  0.00     0.000 O
ATOM     33  HD  BDP C   2      89.084  49.655  49.7090  0.00  0.00     0.000 HD
BRANCH 27 33
ATOM     33   C  BDP C   2      87.065  54.852  50.2960  0.00  0.00     0.000 C
ATOM     34   O  BDP C   2      85.911  54.570  50.6980  0.00  0.00     0.000 OA
ATOM     35   O  BDP C   2      87.239  55.855  49.6240  0.00  0.00     0.000 OA
ENDBRANCH 27 33
BRANCH 23 36
ATOM     36  O4  SGN C   3      90.100  53.598  53.5100  0.00  0.00     0.000 O
BRANCH 36 40
ATOM     37  C1  SGN C   3      92.666  55.890  55.8750  0.00  0.00     0.000 C
ATOM     38  C2  SGN C   3      91.360  56.545  55.3960  0.00  0.00     0.000 C
ATOM     39  C3  SGN C   3      90.368  55.484  54.9420  0.00  0.00     0.000 C
ATOM     40  C4  SGN C   3      91.016  54.636  53.8690  0.00  0.00     0.000 C
ATOM     41  C5  SGN C   3      92.300  54.053  54.4180  0.00  0.00     0.000 C
ATOM     42  O5  SGN C   3      93.186  55.113  54.8080  0.00  0.00     0.000 O
ATOM     43   O  SGN C   3      89.195  56.120  54.4500  0.00  0.00     0.000 O
ATOM     45  HD  SGN C   3      89.296  55.350  54.0660  0.00  0.00     0.000 HD
BRANCH 38 47
ATOM     45   N  SGN C   3      92.214  57.684  55.7780  0.00  0.00     0.000 N
ATOM     47  HD  SGN C   3      92.093  56.986  55.2800  0.00  0.00     0.000 HD
ATOM     47   S  SGN C   3      91.427  58.755  56.6490  0.00  0.00     0.000 S
ATOM     48   O  SGN C   3      90.406  59.389  55.8920  0.00  0.00     0.000 OA
ATOM     49   O  SGN C   3      91.020  58.091  57.8440  0.00  0.00     0.000 OA
ATOM     50   O  SGN C   3      92.468  59.747  56.9120  0.00  0.00     0.000 OA
ENDBRANCH 38 47
BRANCH 41 51
ATOM     51   C  SGN C   3      93.044  53.179  53.4450  0.00  0.00     0.000 C
ATOM     52   O  SGN C   3      96.734  52.756  53.1600  0.00  0.00     0.000 OA
ATOM     53   O  SGN C   3      94.984  51.164  52.7890  0.00  0.00     0.000 OA
ATOM     54   O  SGN C   3      95.192  53.095  51.3770  0.00  0.00     0.000 OA
ATOM     55   O  SGN C   3      94.425  53.274  53.7120  0.00  0.00     0.000 O
ATOM     56   S  SGN C   3      95.426  52.500  52.6600  0.00  0.00     0.000 S
ENDBRANCH 41 51
BRANCH 37 57
ATOM     57  O4  IDS C   4      92.531  55.087  56.9580  0.00  0.00     0.000 O
BRANCH 57 61
ATOM     58  C1  IDS C   4      94.197  54.607  60.3440  0.00  0.00     0.000 C
ATOM     59  C2  IDS C   4      94.484  55.856  59.5730  0.00  0.00     0.000 C
ATOM     60  C3  IDS C   4      94.645  55.601  58.0720  0.00  0.00     0.000 C
ATOM     61  C4  IDS C   4      93.757  54.525  57.4650  0.00  0.00     0.000 C
ATOM     62  C5  IDS C   4      93.470  53.417  58.4860  0.00  0.00     0.000 C
ATOM     63  O5  IDS C   4      93.093  53.949  59.7480  0.00  0.00     0.000 O
ATOM     64   O  IDS C   4      95.995  55.212  57.9030  0.00  0.00     0.000 O
ATOM     66  HD  IDS C   4      96.043  54.384  57.6560  0.00  0.00     0.000 HD
BRANCH 59 66
ATOM     66   O  IDS C   4      93.397  56.844  59.7150  0.00  0.00     0.000 O
ATOM     67   S  IDS C   4      93.782  58.231  60.3930  0.00  0.00     0.000 S
ATOM     68   O  IDS C   4      94.710  58.811  59.4510  0.00  0.00     0.000 OA
ATOM     69   O  IDS C   4      92.525  58.941  60.5280  0.00  0.00     0.000 OA
ATOM     70   O  IDS C   4      94.425  57.927  61.6620  0.00  0.00     0.000 OA
ENDBRANCH 59 66
BRANCH 62 71
ATOM     71   C  IDS C   4      92.333  52.504  58.0700  0.00  0.00     0.000 C
ATOM     72   O  IDS C   4      92.411  51.862  57.0410  0.00  0.00     0.000 OA
ATOM     73   O  IDS C   4      91.286  52.512  58.7490  0.00  0.00     0.000 OA
ENDBRANCH 62 71
BRANCH 58 74
ATOM     74  O4  SGN C   5      95.297  53.881  60.6930  0.00  0.00     0.000 O
BRANCH 74 78
ATOM     75  C1  SGN C   5      97.083  51.419  63.5550  0.00  0.00     0.000 C
ATOM     76  C2  SGN C   5      95.914  50.800  62.7660  0.00  0.00     0.000 C
ATOM     77  C3  SGN C   5      95.576  51.654  61.5370  0.00  0.00     0.000 C
ATOM     78  C4  SGN C   5      95.455  53.129  61.8960  0.00  0.00     0.000 C
ATOM     79  C5  SGN C   5      96.703  53.573  62.6450  0.00  0.00     0.000 C
ATOM     80  O5  SGN C   5      96.846  52.787  63.8580  0.00  0.00     0.000 O
ATOM     81   O  SGN C   5      94.363  51.178  60.9630  0.00  0.00     0.000 O
ATOM     83  HD  SGN C   5      94.172  50.334  60.9410  0.00  0.00     0.000 HD
BRANCH 76 85
ATOM     83   N  SGN C   5      96.060  49.579  63.5680  0.00  0.00     0.000 N
ATOM     85  HD  SGN C   5      96.380  48.786  63.7070  0.00  0.00     0.000 HD
ATOM     85   S  SGN C   5      96.090  48.040  63.0920  0.00  0.00     0.000 S
ATOM     86   O  SGN C   5      96.297  47.180  64.2050  0.00  0.00     0.000 OA
ATOM     87   O  SGN C   5      94.925  47.820  62.3130  0.00  0.00     0.000 OA
ATOM     88   O  SGN C   5      97.362  48.150  62.2550  0.00  0.00     0.000 OA
ENDBRANCH 76 85
BRANCH 79 89
ATOM     89   C  SGN C   5      96.688  55.040  63.0260  0.00  0.00     0.000 C
ATOM     90   O  SGN C   5      95.897  55.226  64.2260  0.00  0.00     0.000 O
ATOM     91   S  SGN C   5      96.340  56.419  65.2030  0.00  0.00     0.000 S
ATOM     92   O  SGN C   5      97.741  56.226  65.4710  0.00  0.00     0.000 OA
ATOM     93   O  SGN C   5      96.077  57.654  64.5100  0.00  0.00     0.000 OA
ATOM     94   O  SGN C   5      95.505  56.227  66.3580  0.00  0.00     0.000 OA
ENDBRANCH 79 89
BRANCH 75 95
ATOM     95  O4  BDP C   6      98.178  51.312  62.7440  0.00  0.00     0.000 O
BRANCH 95 99
ATOM     96  C1  BDP C   6     102.375  51.884  63.4510  0.00  0.00     0.000 C
ATOM     97  C2  BDP C   6     101.597  51.011  64.3950  0.00  0.00     0.000 C
ATOM     98  C3  BDP C   6     100.229  50.561  63.8600  0.00  0.00     0.000 C
ATOM     99  C4  BDP C   6      99.442  51.736  63.2970  0.00  0.00     0.000 C
ATOM    100  C5  BDP C   6     100.365  52.507  62.3240  0.00  0.00     0.000 C
ATOM    101  O5  BDP C   6     101.459  52.923  63.1570  0.00  0.00     0.000 O
BRANCH 100 102
ATOM    102   C  BDP C   6      99.713  53.744  61.7620  0.00  0.00     0.000 C
ATOM    103   O  BDP C   6      99.341  54.682  62.4820  0.00  0.00     0.000 OA
ATOM    104   O  BDP C   6      99.574  53.793  60.5340  0.00  0.00     0.000 OA
ENDBRANCH 100 102
ENDBRANCH 95 99
ENDBRANCH 75 95
ENDBRANCH 74 78
ENDBRANCH 58 74
ENDBRANCH 57 61
ENDBRANCH 37 57
ENDBRANCH 36 40
ENDBRANCH 23 36
ENDBRANCH 22 26
ENDBRANCH 1 22
TORSDOF 20
ENDMDL
MODEL 83
REMARK VINA RESULT:       0.7     73.302     78.368
ROOT
ATOM      1  C1  NGY C   1      85.883  50.245  48.7800  0.00  0.00     0.000 C
ATOM      2  C2  NGY C   1      86.479  49.981  47.4040  0.00  0.00     0.000 C
ATOM      3  C3  NGY C   1      86.531  51.272  46.5950  0.00  0.00     0.000 C
ATOM      4  C4  NGY C   1      85.137  51.869  46.5600  0.00  0.00     0.000 C
ATOM      5  C5  NGY C   1      84.694  52.161  47.9910  0.00  0.00     0.000 C
ATOM      6  O5  NGY C   1      84.636  50.904  48.7140  0.00  0.00     0.000 O
ATOM      7   O  NGY C   1      87.022  50.988  45.2930  0.00  0.00     0.000 O
ATOM      9  HD  NGY C   1      86.958  50.347  44.7130  0.00  0.00     0.000 HD
ATOM      9   O  NGY C   1      85.114  53.062  45.7890  0.00  0.00     0.000 O
ATOM     11  HD  NGY C   1      85.049  52.422  45.2100  0.00  0.00     0.000 HD
ENDROOT
BRANCH 2 13
ATOM     11   N  NGY C   1      87.657  49.210  47.7260  0.00  0.00     0.000 N
ATOM     13  HD  NGY C   1      87.726  48.757  46.9910  0.00  0.00     0.000 HD
ATOM     13   C  NGY C   1      88.171  48.330  46.8680  0.00  0.00     0.000 C
ATOM     14   O  NGY C   1      87.581  48.036  45.8270  0.00  0.00     0.000 OA
ATOM     15   C  NGY C   1      89.505  47.746  47.2230  0.00  0.00     0.000 C
ENDBRANCH 2 13
BRANCH 5 16
ATOM     16   C  NGY C   1      83.333  52.766  48.1240  0.00  0.00     0.000 C
ATOM     17   O  NGY C   1      80.763  51.544  50.4390  0.00  0.00     0.000 OA
ATOM     18   O  NGY C   1      82.530  51.916  48.9470  0.00  0.00     0.000 O
ATOM     19   S  NGY C   1      81.247  52.581  49.5630  0.00  0.00     0.000 S
ATOM     20   O  NGY C   1      80.341  52.846  48.4760  0.00  0.00     0.000 OA
ATOM     21   O  NGY C   1      81.736  53.783  50.2180  0.00  0.00     0.000 OA
ENDBRANCH 5 16
BRANCH 1 22
ATOM     22  O4  BDP C   2      86.787  50.916  49.5240  0.00  0.00     0.000 O
BRANCH 22 26
ATOM     23  C1  BDP C   2      88.528  51.764  53.1590  0.00  0.00     0.000 C
ATOM     24  C2  BDP C   2      88.363  50.296  52.8440  0.00  0.00     0.000 C
ATOM     25  C3  BDP C   2      88.068  50.124  51.3770  0.00  0.00     0.000 C
ATOM     26  C4  BDP C   2      86.883  50.993  50.9710  0.00  0.00     0.000 C
ATOM     27  C5  BDP C   2      87.078  52.410  51.4920  0.00  0.00     0.000 C
ATOM     28  O5  BDP C   2      87.269  52.457  52.9300  0.00  0.00     0.000 O
ATOM     29   O  BDP C   2      89.572  49.560  53.0330  0.00  0.00     0.000 O
ATOM     31  HD  BDP C   2      89.721  48.912  52.4780  0.00  0.00     0.000 HD
ATOM     31   O  BDP C   2      87.759  48.750  51.1760  0.00  0.00     0.000 O
ATOM     33  HD  BDP C   2      87.909  48.103  50.6210  0.00  0.00     0.000 HD
BRANCH 27 33
ATOM     33   C  BDP C   2      85.891  53.299  51.2070  0.00  0.00     0.000 C
ATOM     34   O  BDP C   2      84.736  53.017  51.6090  0.00  0.00     0.000 OA
ATOM     35   O  BDP C   2      86.065  54.302  50.5360  0.00  0.00     0.000 OA
ENDBRANCH 27 33
BRANCH 23 36
ATOM     36  O4  SGN C   3      88.926  52.045  54.4210  0.00  0.00     0.000 O
BRANCH 36 40
ATOM     37  C1  SGN C   3      91.491  54.337  56.7860  0.00  0.00     0.000 C
ATOM     38  C2  SGN C   3      90.185  54.992  56.3070  0.00  0.00     0.000 C
ATOM     39  C3  SGN C   3      89.193  53.932  55.8540  0.00  0.00     0.000 C
ATOM     40  C4  SGN C   3      89.841  53.083  54.7810  0.00  0.00     0.000 C
ATOM     41  C5  SGN C   3      91.125  52.500  55.3290  0.00  0.00     0.000 C
ATOM     42  O5  SGN C   3      92.011  53.560  55.7190  0.00  0.00     0.000 O
ATOM     43   O  SGN C   3      88.020  54.567  55.3610  0.00  0.00     0.000 O
ATOM     45  HD  SGN C   3      88.122  53.797  54.9770  0.00  0.00     0.000 HD
BRANCH 38 47
ATOM     45   N  SGN C   3      91.040  56.131  56.6890  0.00  0.00     0.000 N
ATOM     47  HD  SGN C   3      90.919  55.433  56.1910  0.00  0.00     0.000 HD
ATOM     47   S  SGN C   3      90.252  57.202  57.5600  0.00  0.00     0.000 S
ATOM     48   O  SGN C   3      89.232  57.836  56.8030  0.00  0.00     0.000 OA
ATOM     49   O  SGN C   3      89.845  56.538  58.7550  0.00  0.00     0.000 OA
ATOM     50   O  SGN C   3      91.293  58.194  57.8230  0.00  0.00     0.000 OA
ENDBRANCH 38 47
BRANCH 41 51
ATOM     51   C  SGN C   3      91.869  51.626  54.3570  0.00  0.00     0.000 C
ATOM     52   O  SGN C   3      95.559  51.203  54.0720  0.00  0.00     0.000 OA
ATOM     53   O  SGN C   3      93.810  49.612  53.7010  0.00  0.00     0.000 OA
ATOM     54   O  SGN C   3      94.018  51.542  52.2890  0.00  0.00     0.000 OA
ATOM     55   O  SGN C   3      93.250  51.722  54.6230  0.00  0.00     0.000 O
ATOM     56   S  SGN C   3      94.252  50.947  53.5710  0.00  0.00     0.000 S
ENDBRANCH 41 51
BRANCH 37 57
ATOM     57  O4  IDS C   4      91.356  53.534  57.8700  0.00  0.00     0.000 O
BRANCH 57 61
ATOM     58  C1  IDS C   4      93.023  53.054  61.2550  0.00  0.00     0.000 C
ATOM     59  C2  IDS C   4      93.310  54.303  60.4840  0.00  0.00     0.000 C
ATOM     60  C3  IDS C   4      93.471  54.048  58.9840  0.00  0.00     0.000 C
ATOM     61  C4  IDS C   4      92.582  52.972  58.3770  0.00  0.00     0.000 C
ATOM     62  C5  IDS C   4      92.296  51.864  59.3980  0.00  0.00     0.000 C
ATOM     63  O5  IDS C   4      91.918  52.396  60.6590  0.00  0.00     0.000 O
ATOM     64   O  IDS C   4      94.821  53.659  58.8140  0.00  0.00     0.000 O
ATOM     66  HD  IDS C   4      94.869  52.831  58.5680  0.00  0.00     0.000 HD
BRANCH 59 66
ATOM     66   O  IDS C   4      92.223  55.291  60.6270  0.00  0.00     0.000 O
ATOM     67   S  IDS C   4      92.607  56.678  61.3040  0.00  0.00     0.000 S
ATOM     68   O  IDS C   4      93.535  57.258  60.3630  0.00  0.00     0.000 OA
ATOM     69   O  IDS C   4      91.351  57.389  61.4390  0.00  0.00     0.000 OA
ATOM     70   O  IDS C   4      93.250  56.374  62.5730  0.00  0.00     0.000 OA
ENDBRANCH 59 66
BRANCH 62 71
ATOM     71   C  IDS C   4      91.158  50.951  58.9820  0.00  0.00     0.000 C
ATOM     72   O  IDS C   4      91.236  50.309  57.9520  0.00  0.00     0.000 OA
ATOM     73   O  IDS C   4      90.112  50.959  59.6610  0.00  0.00     0.000 OA
ENDBRANCH 62 71
BRANCH 58 74
ATOM     74  O4  SGN C   5      94.123  52.328  61.6040  0.00  0.00     0.000 O
BRANCH 74 78
ATOM     75  C1  SGN C   5      95.909  49.866  64.4660  0.00  0.00     0.000 C
ATOM     76  C2  SGN C   5      94.739  49.247  63.6770  0.00  0.00     0.000 C
ATOM     77  C3  SGN C   5      94.402  50.102  62.4480  0.00  0.00     0.000 C
ATOM     78  C4  SGN C   5      94.280  51.576  62.8070  0.00  0.00     0.000 C
ATOM     79  C5  SGN C   5      95.528  52.020  63.5560  0.00  0.00     0.000 C
ATOM     80  O5  SGN C   5      95.671  51.235  64.7690  0.00  0.00     0.000 O
ATOM     81   O  SGN C   5      93.189  49.625  61.8740  0.00  0.00     0.000 O
ATOM     83  HD  SGN C   5      92.997  48.781  61.8520  0.00  0.00     0.000 HD
BRANCH 76 85
ATOM     83   N  SGN C   5      95.367  47.936  63.4650  0.00  0.00     0.000 N
ATOM     85  HD  SGN C   5      95.331  47.086  63.3060  0.00  0.00     0.000 HD
ATOM     85   S  SGN C   5      94.915  46.487  64.0040  0.00  0.00     0.000 S
ATOM     86   O  SGN C   5      95.793  45.480  63.5160  0.00  0.00     0.000 OA
ATOM     87   O  SGN C   5      94.769  46.591  65.4110  0.00  0.00     0.000 OA
ATOM     88   O  SGN C   5      93.582  46.443  63.2620  0.00  0.00     0.000 OA
ENDBRANCH 76 85
BRANCH 79 89
ATOM     89   C  SGN C   5      95.513  53.487  63.9380  0.00  0.00     0.000 C
ATOM     90   O  SGN C   5      94.722  53.673  65.1370  0.00  0.00     0.000 O
ATOM     91   S  SGN C   5      95.165  54.866  66.1150  0.00  0.00     0.000 S
ATOM     92   O  SGN C   5      96.566  54.673  66.3830  0.00  0.00     0.000 OA
ATOM     93   O  SGN C   5      94.902  56.101  65.4220  0.00  0.00     0.000 OA
ATOM     94   O  SGN C   5      94.330  54.674  67.2690  0.00  0.00     0.000 OA
ENDBRANCH 79 89
BRANCH 75 95
ATOM     95  O4  BDP C   6      97.003  49.759  63.6550  0.00  0.00     0.000 O
BRANCH 95 99
ATOM     96  C1  BDP C   6     101.200  50.331  64.3630  0.00  0.00     0.000 C
ATOM     97  C2  BDP C   6     100.422  49.458  65.3060  0.00  0.00     0.000 C
ATOM     98  C3  BDP C   6      99.054  49.008  64.7710  0.00  0.00     0.000 C
ATOM     99  C4  BDP C   6      98.268  50.183  64.2080  0.00  0.00     0.000 C
ATOM    100  C5  BDP C   6      99.191  50.954  63.2360  0.00  0.00     0.000 C
ATOM    101  O5  BDP C   6     100.285  51.370  64.0690  0.00  0.00     0.000 O
BRANCH 100 102
ATOM    102   C  BDP C   6      98.539  52.191  62.6730  0.00  0.00     0.000 C
ATOM    103   O  BDP C   6      98.166  53.129  63.3930  0.00  0.00     0.000 OA
ATOM    104   O  BDP C   6      98.399  52.240  61.4450  0.00  0.00     0.000 OA
ENDBRANCH 100 102
ENDBRANCH 95 99
ENDBRANCH 75 95
ENDBRANCH 74 78
ENDBRANCH 58 74
ENDBRANCH 57 61
ENDBRANCH 37 57
ENDBRANCH 36 40
ENDBRANCH 23 36
ENDBRANCH 22 26
ENDBRANCH 1 22
TORSDOF 20
ENDMDL
MODEL 84
REMARK VINA RESULT:       0.8     73.463     78.483
ROOT
ATOM      1  C1  NGY C   1      88.089  53.429  48.7900  0.00  0.00     0.000 C
ATOM      2  C2  NGY C   1      88.881  53.228  47.5060  0.00  0.00     0.000 C
ATOM      3  C3  NGY C   1      89.267  54.577  46.9080  0.00  0.00     0.000 C
ATOM      4  C4  NGY C   1      88.005  55.400  46.7340  0.00  0.00     0.000 C
ATOM      5  C5  NGY C   1      87.355  55.595  48.1000  0.00  0.00     0.000 C
ATOM      6  O5  NGY C   1      86.985  54.291  48.6180  0.00  0.00     0.000 O
ATOM      7   O  NGY C   1      89.941  54.366  45.6750  0.00  0.00     0.000 O
ATOM      9  HD  NGY C   1      89.891  53.816  45.0080  0.00  0.00     0.000 HD
ATOM      9   O  NGY C   1      88.296  56.660  46.1460  0.00  0.00     0.000 O
ATOM     11  HD  NGY C   1      88.246  56.110  45.4790  0.00  0.00     0.000 HD
ENDROOT
BRANCH 2 13
ATOM     11   N  NGY C   1      89.211  51.823  47.4800  0.00  0.00     0.000 N
ATOM     13  HD  NGY C   1      90.007  51.878  47.1440  0.00  0.00     0.000 HD
ATOM     13   C  NGY C   1      90.385  51.390  47.0220  0.00  0.00     0.000 C
ATOM     14   O  NGY C   1      91.176  52.157  46.4710  0.00  0.00     0.000 OA
ATOM     15   C  NGY C   1      90.697  49.940  47.2360  0.00  0.00     0.000 C
ENDBRANCH 2 13
BRANCH 5 16
ATOM     16   C  NGY C   1      86.096  56.401  48.0960  0.00  0.00     0.000 C
ATOM     17   O  NGY C   1      84.405  57.579  51.1310  0.00  0.00     0.000 OA
ATOM     18   O  NGY C   1      85.606  56.497  49.4360  0.00  0.00     0.000 O
ATOM     19   S  NGY C   1      84.571  57.649  49.7010  0.00  0.00     0.000 S
ATOM     20   O  NGY C   1      83.366  57.309  48.9920  0.00  0.00     0.000 OA
ATOM     21   O  NGY C   1      85.222  58.848  49.1990  0.00  0.00     0.000 OA
ENDBRANCH 5 16
BRANCH 1 22
ATOM     22  O4  BDP C   2      88.930  53.849  49.7590  0.00  0.00     0.000 O
BRANCH 22 26
ATOM     23  C1  BDP C   2      90.131  53.062  53.6190  0.00  0.00     0.000 C
ATOM     24  C2  BDP C   2      89.168  52.063  53.0210  0.00  0.00     0.000 C
ATOM     25  C3  BDP C   2      89.102  52.255  51.5290  0.00  0.00     0.000 C
ATOM     26  C4  BDP C   2      88.787  53.710  51.1970  0.00  0.00     0.000 C
ATOM     27  C5  BDP C   2      89.705  54.631  51.9900  0.00  0.00     0.000 C
ATOM     28  O5  BDP C   2      89.620  54.411  53.4210  0.00  0.00     0.000 O
ATOM     29   O  BDP C   2      89.620  50.717  53.1680  0.00  0.00     0.000 O
ATOM     31  HD  BDP C   2      89.443  50.176  52.5150  0.00  0.00     0.000 HD
ATOM     31   O  BDP C   2      88.065  51.409  51.0490  0.00  0.00     0.000 O
ATOM     33  HD  BDP C   2      87.888  50.868  50.3960  0.00  0.00     0.000 HD
BRANCH 27 33
ATOM     33   C  BDP C   2      89.380  56.091  51.7800  0.00  0.00     0.000 C
ATOM     34   O  BDP C   2      90.271  56.949  51.5720  0.00  0.00     0.000 OA
ATOM     35   O  BDP C   2      88.214  56.442  51.8520  0.00  0.00     0.000 OA
ENDBRANCH 27 33
BRANCH 23 36
ATOM     36  O4  SGN C   3      90.379  52.908  54.9410  0.00  0.00     0.000 O
BRANCH 36 40
ATOM     37  C1  SGN C   3      93.309  52.973  57.9140  0.00  0.00     0.000 C
ATOM     38  C2  SGN C   3      92.696  54.316  57.4860  0.00  0.00     0.000 C
ATOM     39  C3  SGN C   3      91.383  54.092  56.7490  0.00  0.00     0.000 C
ATOM     40  C4  SGN C   3      91.633  53.171  55.5750  0.00  0.00     0.000 C
ATOM     41  C5  SGN C   3      92.255  51.889  56.0840  0.00  0.00     0.000 C
ATOM     42  O5  SGN C   3      93.493  52.182  56.7500  0.00  0.00     0.000 O
ATOM     43   O  SGN C   3      90.870  55.345  56.3140  0.00  0.00     0.000 O
ATOM     45  HD  SGN C   3      90.596  54.715  55.7870  0.00  0.00     0.000 HD
BRANCH 38 47
ATOM     45   N  SGN C   3      92.674  54.764  58.8900  0.00  0.00     0.000 N
ATOM     47  HD  SGN C   3      92.438  54.177  58.2980  0.00  0.00     0.000 HD
ATOM     47   S  SGN C   3      93.749  55.900  59.1720  0.00  0.00     0.000 S
ATOM     48   O  SGN C   3      95.073  55.404  59.0370  0.00  0.00     0.000 OA
ATOM     49   O  SGN C   3      93.394  57.011  58.3510  0.00  0.00     0.000 OA
ATOM     50   O  SGN C   3      93.520  56.181  60.5880  0.00  0.00     0.000 OA
ENDBRANCH 38 47
BRANCH 41 51
ATOM     51   C  SGN C   3      92.551  50.879  55.0090  0.00  0.00     0.000 C
ATOM     52   O  SGN C   3      91.737  47.244  55.0440  0.00  0.00     0.000 OA
ATOM     53   O  SGN C   3      91.797  48.775  53.2040  0.00  0.00     0.000 OA
ATOM     54   O  SGN C   3      93.805  48.240  54.4070  0.00  0.00     0.000 OA
ATOM     55   O  SGN C   3      92.030  49.629  55.4020  0.00  0.00     0.000 O
ATOM     56   S  SGN C   3      92.376  48.353  54.4220  0.00  0.00     0.000 S
ENDBRANCH 41 51
BRANCH 37 57
ATOM     57  O4  IDS C   4      92.559  52.264  58.7940  0.00  0.00     0.000 O
BRANCH 57 61
ATOM     58  C1  IDS C   4      91.925  50.611  62.1600  0.00  0.00     0.000 C
ATOM     59  C2  IDS C   4      92.443  52.014  62.1360  0.00  0.00     0.000 C
ATOM     60  C3  IDS C   4      93.499  52.235  61.0500  0.00  0.00     0.000 C
ATOM     61  C4  IDS C   4      93.303  51.478  59.7440  0.00  0.00     0.000 C
ATOM     62  C5  IDS C   4      92.617  50.130  59.9960  0.00  0.00     0.000 C
ATOM     63  O5  IDS C   4      91.495  50.262  60.8550  0.00  0.00     0.000 O
ATOM     64   O  IDS C   4      94.721  51.817  61.6280  0.00  0.00     0.000 O
ATOM     66  HD  IDS C   4      95.018  51.108  61.2300  0.00  0.00     0.000 HD
BRANCH 59 66
ATOM     66   O  IDS C   4      91.364  52.986  61.8740  0.00  0.00     0.000 O
ATOM     67   S  IDS C   4      90.929  53.909  63.0950  0.00  0.00     0.000 S
ATOM     68   O  IDS C   4      92.109  54.700  63.3470  0.00  0.00     0.000 OA
ATOM     69   O  IDS C   4      89.786  54.656  62.6090  0.00  0.00     0.000 OA
ATOM     70   O  IDS C   4      90.624  53.029  64.2130  0.00  0.00     0.000 OA
ENDBRANCH 59 66
BRANCH 62 71
ATOM     71   C  IDS C   4      92.088  49.486  58.7280  0.00  0.00     0.000 C
ATOM     72   O  IDS C   4      92.855  48.965  57.9420  0.00  0.00     0.000 OA
ATOM     73   O  IDS C   4      90.873  49.599  58.4680  0.00  0.00     0.000 OA
ENDBRANCH 62 71
BRANCH 58 74
ATOM     74  O4  SGN C   5      92.685  49.729  62.8690  0.00  0.00     0.000 O
BRANCH 74 78
ATOM     75  C1  SGN C   5      92.723  46.331  65.2970  0.00  0.00     0.000 C
ATOM     76  C2  SGN C   5      92.219  46.126  63.8550  0.00  0.00     0.000 C
ATOM     77  C3  SGN C   5      92.571  47.337  62.9810  0.00  0.00     0.000 C
ATOM     78  C4  SGN C   5      92.193  48.647  63.6590  0.00  0.00     0.000 C
ATOM     79  C5  SGN C   5      92.793  48.687  65.0560  0.00  0.00     0.000 C
ATOM     80  O5  SGN C   5      92.285  47.571  65.8350  0.00  0.00     0.000 O
ATOM     81   O  SGN C   5      91.904  47.211  61.7290  0.00  0.00     0.000 O
ATOM     83  HD  SGN C   5      91.802  46.442  61.3440  0.00  0.00     0.000 HD
BRANCH 76 85
ATOM     83   N  SGN C   5      92.043  44.941  63.0070  0.00  0.00     0.000 N
ATOM     85  HD  SGN C   5      91.806  44.118  62.8780  0.00  0.00     0.000 HD
ATOM     85   S  SGN C   5      92.333  43.392  63.3400  0.00  0.00     0.000 S
ATOM     86   O  SGN C   5      91.976  42.571  62.2360  0.00  0.00     0.000 OA
ATOM     87   O  SGN C   5      93.672  43.307  63.8010  0.00  0.00     0.000 OA
ATOM     88   O  SGN C   5      91.302  43.267  64.4590  0.00  0.00     0.000 OA
ENDBRANCH 76 85
BRANCH 79 89
ATOM     89   C  SGN C   5      92.491  49.968  65.8060  0.00  0.00     0.000 C
ATOM     90   O  SGN C   5      92.348  49.686  67.2200  0.00  0.00     0.000 O
ATOM     91   S  SGN C   5      92.791  50.847  68.2350  0.00  0.00     0.000 S
ATOM     92   O  SGN C   5      94.130  51.223  67.8640  0.00  0.00     0.000 OA
ATOM     93   O  SGN C   5      91.852  51.928  68.0780  0.00  0.00     0.000 OA
ATOM     94   O  SGN C   5      92.711  50.209  69.5210  0.00  0.00     0.000 OA
ENDBRANCH 79 89
BRANCH 75 95
ATOM     95  O4  BDP C   6      94.087  46.320  65.2190  0.00  0.00     0.000 O
BRANCH 95 99
ATOM     96  C1  BDP C   6      96.895  45.004  68.1900  0.00  0.00     0.000 C
ATOM     97  C2  BDP C   6      95.475  44.518  68.2730  0.00  0.00     0.000 C
ATOM     98  C3  BDP C   6      94.660  44.720  66.9870  0.00  0.00     0.000 C
ATOM     99  C4  BDP C   6      94.808  46.138  66.4560  0.00  0.00     0.000 C
ATOM    100  C5  BDP C   6      96.318  46.471  66.3980  0.00  0.00     0.000 C
ATOM    101  O5  BDP C   6      96.743  46.345  67.7650  0.00  0.00     0.000 O
BRANCH 100 102
ATOM    102   C  BDP C   6      96.584  47.888  65.9580  0.00  0.00     0.000 C
ATOM    103   O  BDP C   6      96.062  48.375  64.9450  0.00  0.00     0.000 OA
ATOM    104   O  BDP C   6      97.346  48.559  66.6640  0.00  0.00     0.000 OA
ENDBRANCH 100 102
ENDBRANCH 95 99
ENDBRANCH 75 95
ENDBRANCH 74 78
ENDBRANCH 58 74
ENDBRANCH 57 61
ENDBRANCH 37 57
ENDBRANCH 36 40
ENDBRANCH 23 36
ENDBRANCH 22 26
ENDBRANCH 1 22
TORSDOF 20
ENDMDL
MODEL 85
REMARK VINA RESULT:       1.2     18.040     20.953
ROOT
ATOM      1  C1  NGY C   1       7.420  25.916  29.6460  0.00  0.00     0.000 C
ATOM      2  C2  NGY C   1       6.671  25.104  30.6930  0.00  0.00     0.000 C
ATOM      3  C3  NGY C   1       6.069  23.853  30.0610  0.00  0.00     0.000 C
ATOM      4  C4  NGY C   1       5.215  24.280  28.8820  0.00  0.00     0.000 C
ATOM      5  C5  NGY C   1       6.100  25.007  27.8740  0.00  0.00     0.000 C
ATOM      6  O5  NGY C   1       6.629  26.199  28.5110  0.00  0.00     0.000 O
ATOM      7   O  NGY C   1       5.316  23.152  31.0400  0.00  0.00     0.000 O
ATOM      9  HD  NGY C   1       4.805  23.347  31.7120  0.00  0.00     0.000 HD
ATOM      9   O  NGY C   1       4.598  23.157  28.2700  0.00  0.00     0.000 O
ATOM     11  HD  NGY C   1       4.087  23.352  28.9410  0.00  0.00     0.000 HD
ENDROOT
BRANCH 2 13
ATOM     11   N  NGY C   1       7.138  25.667  31.9380  0.00  0.00     0.000 N
ATOM     13  HD  NGY C   1       7.085  24.959  32.4340  0.00  0.00     0.000 HD
ATOM     13   C  NGY C   1       7.234  24.932  33.0450  0.00  0.00     0.000 C
ATOM     14   O  NGY C   1       6.793  23.782  33.0850  0.00  0.00     0.000 OA
ATOM     15   C  NGY C   1       7.924  25.564  34.2150  0.00  0.00     0.000 C
ENDBRANCH 2 13
BRANCH 5 16
ATOM     16   C  NGY C   1       5.400  25.485  26.6420  0.00  0.00     0.000 C
ATOM     17   O  NGY C   1       2.918  28.187  26.6120  0.00  0.00     0.000 OA
ATOM     18   O  NGY C   1       4.357  26.385  27.0260  0.00  0.00     0.000 O
ATOM     19   S  NGY C   1       3.813  27.321  25.8870  0.00  0.00     0.000 S
ATOM     20   O  NGY C   1       3.120  26.483  24.9430  0.00  0.00     0.000 OA
ATOM     21   O  NGY C   1       5.000  27.956  25.3380  0.00  0.00     0.000 OA
ENDBRANCH 5 16
BRANCH 1 22
ATOM     22  O4  BDP C   2       8.565  25.273  29.3340  0.00  0.00     0.000 O
BRANCH 22 26
ATOM     23  C1  BDP C   2      12.554  25.342  28.3110  0.00  0.00     0.000 C
ATOM     24  C2  BDP C   2      12.161  26.244  29.4560  0.00  0.00     0.000 C
ATOM     25  C3  BDP C   2      10.794  25.859  29.9580  0.00  0.00     0.000 C
ATOM     26  C4  BDP C   2       9.796  25.833  28.8060  0.00  0.00     0.000 C
ATOM     27  C5  BDP C   2      10.372  25.039  27.6410  0.00  0.00     0.000 C
ATOM     28  O5  BDP C   2      11.651  25.555  27.1890  0.00  0.00     0.000 O
ATOM     29   O  BDP C   2      13.000  26.071  30.5980  0.00  0.00     0.000 O
ATOM     31  HD  BDP C   2      12.620  26.142  31.3730  0.00  0.00     0.000 HD
ATOM     31   O  BDP C   2      10.412  26.841  30.9140  0.00  0.00     0.000 O
ATOM     33  HD  BDP C   2      10.032  26.912  31.6880  0.00  0.00     0.000 HD
BRANCH 27 33
ATOM     33   C  BDP C   2       9.472  25.057  26.4280  0.00  0.00     0.000 C
ATOM     34   O  BDP C   2       9.013  26.125  25.9560  0.00  0.00     0.000 OA
ATOM     35   O  BDP C   2       9.160  23.992  25.9210  0.00  0.00     0.000 OA
ENDBRANCH 27 33
BRANCH 23 36
ATOM     36  O4  SGN C   3      13.818  25.501  27.8540  0.00  0.00     0.000 O
BRANCH 36 40
ATOM     37  C1  SGN C   3      17.243  23.372  26.7780  0.00  0.00     0.000 C
ATOM     38  C2  SGN C   3      16.404  23.992  25.6490  0.00  0.00     0.000 C
ATOM     39  C3  SGN C   3      15.480  25.067  26.2020  0.00  0.00     0.000 C
ATOM     40  C4  SGN C   3      14.624  24.462  27.2930  0.00  0.00     0.000 C
ATOM     41  C5  SGN C   3      15.528  23.857  28.3440  0.00  0.00     0.000 C
ATOM     42  O5  SGN C   3      16.354  22.844  27.7500  0.00  0.00     0.000 O
ATOM     43   O  SGN C   3      14.675  25.581  25.1480  0.00  0.00     0.000 O
ATOM     45  HD  SGN C   3      14.260  25.663  25.9040  0.00  0.00     0.000 HD
BRANCH 38 47
ATOM     45   N  SGN C   3      16.930  22.935  24.7670  0.00  0.00     0.000 N
ATOM     47  HD  SGN C   3      16.361  23.175  25.3750  0.00  0.00     0.000 HD
ATOM     47   S  SGN C   3      17.870  23.521  23.6280  0.00  0.00     0.000 S
ATOM     48   O  SGN C   3      17.139  24.331  22.7190  0.00  0.00     0.000 OA
ATOM     49   O  SGN C   3      18.977  24.134  24.2860  0.00  0.00     0.000 OA
ATOM     50   O  SGN C   3      18.271  22.306  22.9190  0.00  0.00     0.000 OA
ENDBRANCH 38 47
BRANCH 41 51
ATOM     51   C  SGN C   3      14.795  23.222  29.4950  0.00  0.00     0.000 C
ATOM     52   O  SGN C   3      14.917  24.230  33.0790  0.00  0.00     0.000 OA
ATOM     53   O  SGN C   3      13.099  23.325  31.8120  0.00  0.00     0.000 OA
ATOM     54   O  SGN C   3      15.074  22.018  32.2100  0.00  0.00     0.000 OA
ATOM     55   O  SGN C   3      15.083  23.943  30.6720  0.00  0.00     0.000 O
ATOM     56   S  SGN C   3      14.488  23.319  32.0740  0.00  0.00     0.000 S
ENDBRANCH 41 51
BRANCH 37 57
ATOM     57  O4  IDS C   4      18.084  24.235  27.3980  0.00  0.00     0.000 O
BRANCH 57 61
ATOM     58  C1  IDS C   4      21.636  23.602  28.6040  0.00  0.00     0.000 C
ATOM     59  C2  IDS C   4      20.909  22.500  27.9010  0.00  0.00     0.000 C
ATOM     60  C3  IDS C   4      19.435  22.411  28.3040  0.00  0.00     0.000 C
ATOM     61  C4  IDS C   4      18.725  23.728  28.5840  0.00  0.00     0.000 C
ATOM     62  C5  IDS C   4      19.701  24.759  29.1640  0.00  0.00     0.000 C
ATOM     63  O5  IDS C   4      20.914  24.808  28.4270  0.00  0.00     0.000 O
ATOM     64   O  IDS C   4      19.420  21.636  29.4890  0.00  0.00     0.000 O
ATOM     66  HD  IDS C   4      19.176  22.119  30.1640  0.00  0.00     0.000 HD
BRANCH 59 66
ATOM     66   O  IDS C   4      20.931  22.683  26.4370  0.00  0.00     0.000 O
ATOM     67   S  IDS C   4      21.884  21.711  25.6130  0.00  0.00     0.000 S
ATOM     68   O  IDS C   4      21.295  20.411  25.8310  0.00  0.00     0.000 OA
ATOM     69   O  IDS C   4      21.817  22.191  24.2470  0.00  0.00     0.000 OA
ATOM     70   O  IDS C   4      23.210  21.805  26.2040  0.00  0.00     0.000 OA
ENDBRANCH 59 66
BRANCH 62 71
ATOM     71   C  IDS C   4      19.153  26.173  29.1440  0.00  0.00     0.000 C
ATOM     72   O  IDS C   4      19.721  27.039  28.5070  0.00  0.00     0.000 OA
ATOM     73   O  IDS C   4      18.177  26.442  29.8730  0.00  0.00     0.000 OA
ENDBRANCH 62 71
BRANCH 58 74
ATOM     74  O4  SGN C   5      22.104  23.282  29.8440  0.00  0.00     0.000 O
BRANCH 74 78
ATOM     75  C1  SGN C   5      26.037  22.877  31.1920  0.00  0.00     0.000 C
ATOM     76  C2  SGN C   5      24.978  23.164  32.2730  0.00  0.00     0.000 C
ATOM     77  C3  SGN C   5      23.563  22.951  31.7180  0.00  0.00     0.000 C
ATOM     78  C4  SGN C   5      23.378  23.647  30.3760  0.00  0.00     0.000 C
ATOM     79  C5  SGN C   5      24.493  23.229  29.4290  0.00  0.00     0.000 C
ATOM     80  O5  SGN C   5      25.776  23.602  29.9970  0.00  0.00     0.000 O
ATOM     81   O  SGN C   5      22.617  23.434  32.6660  0.00  0.00     0.000 O
ATOM     83  HD  SGN C   5      22.741  23.343  33.5180  0.00  0.00     0.000 HD
BRANCH 76 85
ATOM     83   N  SGN C   5      25.236  22.246  33.3890  0.00  0.00     0.000 N
ATOM     85  HD  SGN C   5      25.328  22.070  34.2320  0.00  0.00     0.000 HD
ATOM     85   S  SGN C   5      26.114  22.474  34.7200  0.00  0.00     0.000 S
ATOM     86   O  SGN C   5      26.053  21.327  35.5590  0.00  0.00     0.000 OA
ATOM     87   O  SGN C   5      27.401  22.903  34.3040  0.00  0.00     0.000 OA
ATOM     88   O  SGN C   5      25.259  23.603  35.2910  0.00  0.00     0.000 OA
ENDBRANCH 76 85
BRANCH 79 89
ATOM     89   C  SGN C   5      24.382  23.853  28.0530  0.00  0.00     0.000 C
ATOM     90   O  SGN C   5      25.115  25.101  28.0200  0.00  0.00     0.000 O
ATOM     91   S  SGN C   5      25.775  25.514  26.6160  0.00  0.00     0.000 S
ATOM     92   O  SGN C   5      26.557  24.384  26.1870  0.00  0.00     0.000 OA
ATOM     93   O  SGN C   5      24.694  25.810  25.7120  0.00  0.00     0.000 OA
ATOM     94   O  SGN C   5      26.568  26.665  26.9490  0.00  0.00     0.000 OA
ENDBRANCH 79 89
BRANCH 75 95
ATOM     95  O4  BDP C   6      25.958  21.536  30.9420  0.00  0.00     0.000 O
BRANCH 95 99
ATOM     96  C1  BDP C   6      28.955  18.538  30.2500  0.00  0.00     0.000 C
ATOM     97  C2  BDP C   6      29.097  19.438  31.4450  0.00  0.00     0.000 C
ATOM     98  C3  BDP C   6      27.817  20.199  31.8210  0.00  0.00     0.000 C
ATOM     99  C4  BDP C   6      27.191  20.864  30.6040  0.00  0.00     0.000 C
ATOM    100  C5  BDP C   6      27.082  19.803  29.4840  0.00  0.00     0.000 C
ATOM    101  O5  BDP C   6      28.445  19.410  29.2590  0.00  0.00     0.000 O
BRANCH 100 102
ATOM    102   C  BDP C   6      26.543  20.372  28.1950  0.00  0.00     0.000 C
ATOM    103   O  BDP C   6      25.465  20.002  27.7080  0.00  0.00     0.000 OA
ATOM    104   O  BDP C   6      27.224  21.243  27.6420  0.00  0.00     0.000 OA
ENDBRANCH 100 102
ENDBRANCH 95 99
ENDBRANCH 75 95
ENDBRANCH 74 78
ENDBRANCH 58 74
ENDBRANCH 57 61
ENDBRANCH 37 57
ENDBRANCH 36 40
ENDBRANCH 23 36
ENDBRANCH 22 26
ENDBRANCH 1 22
TORSDOF 20
ENDMDL
MODEL 86
REMARK VINA RESULT:       1.7     86.168     93.596
ROOT
ATOM      1  C1  NGY C   1      66.806  36.844 110.0230  0.00  0.00     0.000 C
ATOM      2  C2  NGY C   1      65.384  36.964 109.4920  0.00  0.00     0.000 C
ATOM      3  C3  NGY C   1      64.383  36.896 110.6410  0.00  0.00     0.000 C
ATOM      4  C4  NGY C   1      64.645  35.625 111.4260  0.00  0.00     0.000 C
ATOM      5  C5  NGY C   1      66.070  35.669 111.9690  0.00  0.00     0.000 C
ATOM      6  O5  NGY C   1      66.985  35.709 110.8430  0.00  0.00     0.000 O
ATOM      7   O  NGY C   1      63.065  36.937 110.1150  0.00  0.00     0.000 O
ATOM      9  HD  NGY C   1      62.647  36.636 109.4190  0.00  0.00     0.000 HD
ATOM      9   O  NGY C   1      63.719  35.487 112.4940  0.00  0.00     0.000 O
ATOM     11  HD  NGY C   1      63.301  35.186 111.7980  0.00  0.00     0.000 HD
ENDROOT
BRANCH 2 13
ATOM     11   N  NGY C   1      65.479  38.105 108.6130  0.00  0.00     0.000 N
ATOM     13  HD  NGY C   1      64.850  37.897 108.0550  0.00  0.00     0.000 HD
ATOM     13   C  NGY C   1      64.681  38.239 107.5540  0.00  0.00     0.000 C
ATOM     14   O  NGY C   1      63.931  37.327 107.2030  0.00  0.00     0.000 OA
ATOM     15   C  NGY C   1      64.727  39.555 106.8390  0.00  0.00     0.000 C
ENDBRANCH 2 13
BRANCH 5 16
ATOM     16   C  NGY C   1      66.478  34.481 112.7800  0.00  0.00     0.000 C
ATOM     17   O  NGY C   1      67.237  31.188 111.3510  0.00  0.00     0.000 OA
ATOM     18   O  NGY C   1      66.482  33.327 111.9340  0.00  0.00     0.000 O
ATOM     19   S  NGY C   1      67.296  32.095 112.4690  0.00  0.00     0.000 S
ATOM     20   O  NGY C   1      66.597  31.590 113.6210  0.00  0.00     0.000 OA
ATOM     21   O  NGY C   1      68.612  32.632 112.7780  0.00  0.00     0.000 OA
ENDBRANCH 5 16
BRANCH 1 22
ATOM     22  O4  BDP C   2      67.134  37.994 110.6490  0.00  0.00     0.000 O
BRANCH 22 26
ATOM     23  C1  BDP C   2      69.894  40.825 111.8030  0.00  0.00     0.000 C
ATOM     24  C2  BDP C   2      69.748  40.629 110.3120  0.00  0.00     0.000 C
ATOM     25  C3  BDP C   2      68.484  39.862 110.0250  0.00  0.00     0.000 C
ATOM     26  C4  BDP C   2      68.453  38.571 110.8360  0.00  0.00     0.000 C
ATOM     27  C5  BDP C   2      68.786  38.868 112.2920  0.00  0.00     0.000 C
ATOM     28  O5  BDP C   2      70.065  39.533 112.4510  0.00  0.00     0.000 O
ATOM     29   O  BDP C   2      69.559  41.862 109.6180  0.00  0.00     0.000 O
ATOM     31  HD  BDP C   2      69.029  41.844 108.9330  0.00  0.00     0.000 HD
ATOM     31   O  BDP C   2      68.488  39.565 108.6340  0.00  0.00     0.000 O
ATOM     33  HD  BDP C   2      67.958  39.547 107.9490  0.00  0.00     0.000 HD
BRANCH 27 33
ATOM     33   C  BDP C   2      68.868  37.616 113.1320  0.00  0.00     0.000 C
ATOM     34   O  BDP C   2      68.249  37.500 114.2170  0.00  0.00     0.000 OA
ATOM     35   O  BDP C   2      69.589  36.708 112.7520  0.00  0.00     0.000 OA
ENDBRANCH 27 33
BRANCH 23 36
ATOM     36  O4  SGN C   3      70.925  41.614 112.1860  0.00  0.00     0.000 O
BRANCH 36 40
ATOM     37  C1  SGN C   3      72.261  44.393 115.0000  0.00  0.00     0.000 C
ATOM     38  C2  SGN C   3      72.365  42.902 115.3630  0.00  0.00     0.000 C
ATOM     39  C3  SGN C   3      72.261  42.042 114.1130  0.00  0.00     0.000 C
ATOM     40  C4  SGN C   3      70.969  42.374 113.3970  0.00  0.00     0.000 C
ATOM     41  C5  SGN C   3      70.943  43.857 113.1010  0.00  0.00     0.000 C
ATOM     42  O5  SGN C   3      71.028  44.598 114.3280  0.00  0.00     0.000 O
ATOM     43   O  SGN C   3      72.300  40.669 114.4830  0.00  0.00     0.000 O
ATOM     45  HD  SGN C   3      71.858  40.763 113.7440  0.00  0.00     0.000 HD
BRANCH 38 47
ATOM     45   N  SGN C   3      72.425  43.556 116.6830  0.00  0.00     0.000 N
ATOM     47  HD  SGN C   3      71.976  43.388 115.9610  0.00  0.00     0.000 HD
ATOM     47   S  SGN C   3      73.634  43.017 117.5620  0.00  0.00     0.000 S
ATOM     48   O  SGN C   3      73.452  41.653 117.9120  0.00  0.00     0.000 OA
ATOM     49   O  SGN C   3      74.830  43.342 116.8550  0.00  0.00     0.000 OA
ATOM     50   O  SGN C   3      73.495  43.813 118.7800  0.00  0.00     0.000 OA
ENDBRANCH 38 47
BRANCH 41 51
ATOM     51   C  SGN C   3      69.705  44.319 112.3820  0.00  0.00     0.000 C
ATOM     52   O  SGN C   3      69.489  45.731 108.9410  0.00  0.00     0.000 OA
ATOM     53   O  SGN C   3      67.926  44.358 110.1260  0.00  0.00     0.000 OA
ATOM     54   O  SGN C   3      68.431  46.574 110.9010  0.00  0.00     0.000 OA
ATOM     55   O  SGN C   3      70.061  44.735 111.0830  0.00  0.00     0.000 O
ATOM     56   S  SGN C   3      68.864  45.413 110.1800  0.00  0.00     0.000 S
ENDBRANCH 41 51
BRANCH 37 57
ATOM     57  O4  IDS C   4      73.259  44.852 114.2060  0.00  0.00     0.000 O
BRANCH 57 61
ATOM     58  C1  IDS C   4      76.259  47.044 113.3900  0.00  0.00     0.000 C
ATOM     59  C2  IDS C   4      76.281  46.236 114.6480  0.00  0.00     0.000 C
ATOM     60  C3  IDS C   4      74.927  46.215 115.3620  0.00  0.00     0.000 C
ATOM     61  C4  IDS C   4      73.690  46.200 114.4750  0.00  0.00     0.000 C
ATOM     62  C5  IDS C   4      73.948  46.963 113.1700  0.00  0.00     0.000 C
ATOM     63  O5  IDS C   4      75.186  46.595 112.5800  0.00  0.00     0.000 O
ATOM     64   O  IDS C   4      74.900  47.394 116.1450  0.00  0.00     0.000 O
ATOM     66  HD  IDS C   4      74.299  47.942 115.8470  0.00  0.00     0.000 HD
BRANCH 59 66
ATOM     66   O  IDS C   4      76.636  44.828 114.3830  0.00  0.00     0.000 O
ATOM     67   S  IDS C   4      78.040  44.332 114.9450  0.00  0.00     0.000 S
ATOM     68   O  IDS C   4      77.874  44.426 116.3750  0.00  0.00     0.000 OA
ATOM     69   O  IDS C   4      78.190  42.983 114.4350  0.00  0.00     0.000 OA
ATOM     70   O  IDS C   4      79.050  45.260 114.4600  0.00  0.00     0.000 OA
ENDBRANCH 59 66
BRANCH 62 71
ATOM     71   C  IDS C   4      72.895  46.701 112.1100  0.00  0.00     0.000 C
ATOM     72   O  IDS C   4      73.181  46.073 111.1090  0.00  0.00     0.000 OA
ATOM     73   O  IDS C   4      71.774  47.231 112.2430  0.00  0.00     0.000 OA
ENDBRANCH 62 71
BRANCH 58 74
ATOM     74  O4  SGN C   5      76.449  48.383 113.5630  0.00  0.00     0.000 O
BRANCH 74 78
ATOM     75  C1  SGN C   5      78.295  51.851 112.1460  0.00  0.00     0.000 C
ATOM     76  C2  SGN C   5      77.211  51.243 111.2360  0.00  0.00     0.000 C
ATOM     77  C3  SGN C   5      76.384  50.200 112.0000  0.00  0.00     0.000 C
ATOM     78  C4  SGN C   5      77.273  49.221 112.7540  0.00  0.00     0.000 C
ATOM     79  C5  SGN C   5      78.261  49.993 113.6170  0.00  0.00     0.000 C
ATOM     80  O5  SGN C   5      79.080  50.845 112.7720  0.00  0.00     0.000 O
ATOM     81   O  SGN C   5      75.548  49.508 111.0780  0.00  0.00     0.000 O
ATOM     83  HD  SGN C   5      75.179  49.913 110.4070  0.00  0.00     0.000 HD
BRANCH 76 85
ATOM     83   N  SGN C   5      77.455  52.442 110.4250  0.00  0.00     0.000 N
ATOM     85  HD  SGN C   5      77.218  53.208 110.0990  0.00  0.00     0.000 HD
ATOM     85   S  SGN C   5      76.454  53.231 109.4400  0.00  0.00     0.000 S
ATOM     86   O  SGN C   5      77.098  54.372 108.8880  0.00  0.00     0.000 OA
ATOM     87   O  SGN C   5      75.929  52.281 108.5260  0.00  0.00     0.000 OA
ATOM     88   O  SGN C   5      75.455  53.646 110.5170  0.00  0.00     0.000 OA
ENDBRANCH 76 85
BRANCH 79 89
ATOM     89   C  SGN C   5      79.179  49.102 114.4280  0.00  0.00     0.000 C
ATOM     90   O  SGN C   5      80.378  48.812 113.6680  0.00  0.00     0.000 O
ATOM     91   S  SGN C   5      81.728  48.593 114.5070  0.00  0.00     0.000 S
ATOM     92   O  SGN C   5      81.864  49.741 115.3660  0.00  0.00     0.000 OA
ATOM     93   O  SGN C   5      81.573  47.367 115.2470  0.00  0.00     0.000 OA
ATOM     94   O  SGN C   5      82.741  48.517 113.4890  0.00  0.00     0.000 OA
ENDBRANCH 79 89
BRANCH 75 95
ATOM     95  O4  BDP C   6      77.623  52.567 113.0970  0.00  0.00     0.000 O
BRANCH 95 99
ATOM     96  C1  BDP C   6      78.892  56.064 115.2430  0.00  0.00     0.000 C
ATOM     97  C2  BDP C   6      79.496  55.787 113.8950  0.00  0.00     0.000 C
ATOM     98  C3  BDP C   6      78.722  54.760 113.0540  0.00  0.00     0.000 C
ATOM     99  C4  BDP C   6      78.396  53.514 113.8660  0.00  0.00     0.000 C
ATOM    100  C5  BDP C   6      77.754  53.967 115.1980  0.00  0.00     0.000 C
ATOM    101  O5  BDP C   6      78.777  54.771 115.8080  0.00  0.00     0.000 O
BRANCH 100 102
ATOM    102   C  BDP C   6      77.459  52.813 116.1220  0.00  0.00     0.000 C
ATOM    103   O  BDP C   6      78.346  52.055 116.5400  0.00  0.00     0.000 OA
ATOM    104   O  BDP C   6      76.280  52.657 116.4630  0.00  0.00     0.000 OA
ENDBRANCH 100 102
ENDBRANCH 95 99
ENDBRANCH 75 95
ENDBRANCH 74 78
ENDBRANCH 58 74
ENDBRANCH 57 61
ENDBRANCH 37 57
ENDBRANCH 36 40
ENDBRANCH 23 36
ENDBRANCH 22 26
ENDBRANCH 1 22
TORSDOF 20
ENDMDL
MODEL 87
REMARK VINA RESULT:       1.8     94.956    102.059
ROOT
ATOM      1  C1  NGY C   1      65.094  84.206  85.6600  0.00  0.00     0.000 C
ATOM      2  C2  NGY C   1      65.465  82.877  85.0160  0.00  0.00     0.000 C
ATOM      3  C3  NGY C   1      64.497  82.550  83.8840  0.00  0.00     0.000 C
ATOM      4  C4  NGY C   1      63.085  82.596  84.4370  0.00  0.00     0.000 C
ATOM      5  C5  NGY C   1      62.815  83.998  84.9730  0.00  0.00     0.000 C
ATOM      6  O5  NGY C   1      63.741  84.255  86.0610  0.00  0.00     0.000 O
ATOM      7   O  NGY C   1      64.820  81.274  83.3480  0.00  0.00     0.000 O
ATOM      9  HD  NGY C   1      65.104  80.512  83.6450  0.00  0.00     0.000 HD
ATOM      9   O  NGY C   1      62.136  82.265  83.4340  0.00  0.00     0.000 O
ATOM     11  HD  NGY C   1      62.420  81.502  83.7300  0.00  0.00     0.000 HD
ENDROOT
BRANCH 2 13
ATOM     11   N  NGY C   1      66.880  83.020  84.7690  0.00  0.00     0.000 N
ATOM     13  HD  NGY C   1      67.115  82.191  84.8480  0.00  0.00     0.000 HD
ATOM     13   C  NGY C   1      67.702  81.972  84.7870  0.00  0.00     0.000 C
ATOM     14   O  NGY C   1      67.311  80.863  85.1560  0.00  0.00     0.000 OA
ATOM     15   C  NGY C   1      69.104  82.207  84.3130  0.00  0.00     0.000 C
ENDBRANCH 2 13
BRANCH 5 16
ATOM     16   C  NGY C   1      61.450  84.206  85.5470  0.00  0.00     0.000 C
ATOM     17   O  NGY C   1      60.274  82.650  88.6540  0.00  0.00     0.000 OA
ATOM     18   O  NGY C   1      61.261  83.290  86.6290  0.00  0.00     0.000 O
ATOM     19   S  NGY C   1      60.101  83.645  87.6270  0.00  0.00     0.000 S
ATOM     20   O  NGY C   1      58.862  83.487  86.9120  0.00  0.00     0.000 OA
ATOM     21   O  NGY C   1      60.369  85.017  88.0260  0.00  0.00     0.000 OA
ENDBRANCH 5 16
BRANCH 1 22
ATOM     22  O4  BDP C   2      65.421  85.205  84.8140  0.00  0.00     0.000 O
BRANCH 22 26
ATOM     23  C1  BDP C   2      66.694  89.053  84.0810  0.00  0.00     0.000 C
ATOM     24  C2  BDP C   2      67.652  88.191  84.8670  0.00  0.00     0.000 C
ATOM     25  C3  BDP C   2      67.246  86.745  84.7480  0.00  0.00     0.000 C
ATOM     26  C4  BDP C   2      65.781  86.575  85.1360  0.00  0.00     0.000 C
ATOM     27  C5  BDP C   2      64.930  87.611  84.4130  0.00  0.00     0.000 C
ATOM     28  O5  BDP C   2      65.366  88.971  84.6710  0.00  0.00     0.000 O
ATOM     29   O  BDP C   2      68.974  88.214  84.3280  0.00  0.00     0.000 O
ATOM     31  HD  BDP C   2      69.422  87.475  84.3700  0.00  0.00     0.000 HD
ATOM     31   O  BDP C   2      68.076  86.008  85.6370  0.00  0.00     0.000 O
ATOM     33  HD  BDP C   2      68.524  85.269  85.6790  0.00  0.00     0.000 HD
BRANCH 27 33
ATOM     33   C  BDP C   2      63.480  87.560  84.8290  0.00  0.00     0.000 C
ATOM     34   O  BDP C   2      63.130  87.598  86.0330  0.00  0.00     0.000 OA
ATOM     35   O  BDP C   2      62.631  87.442  83.9600  0.00  0.00     0.000 OA
ENDBRANCH 27 33
BRANCH 23 36
ATOM     36  O4  SGN C   3      67.025  90.363  84.0000  0.00  0.00     0.000 O
BRANCH 36 40
ATOM     37  C1  SGN C   3      67.227  93.706  81.5070  0.00  0.00     0.000 C
ATOM     38  C2  SGN C   3      65.873  93.384  82.1620  0.00  0.00     0.000 C
ATOM     39  C3  SGN C   3      66.064  92.443  83.3420  0.00  0.00     0.000 C
ATOM     40  C4  SGN C   3      66.785  91.201  82.8660  0.00  0.00     0.000 C
ATOM     41  C5  SGN C   3      68.089  91.612  82.2180  0.00  0.00     0.000 C
ATOM     42  O5  SGN C   3      67.825  92.483  81.1070  0.00  0.00     0.000 O
ATOM     43   O  SGN C   3      64.793  92.115  83.8900  0.00  0.00     0.000 O
ATOM     45  HD  SGN C   3      65.354  91.473  84.0410  0.00  0.00     0.000 HD
BRANCH 38 47
ATOM     45   N  SGN C   3      65.420  94.725  82.5720  0.00  0.00     0.000 N
ATOM     47  HD  SGN C   3      65.957  94.057  82.6950  0.00  0.00     0.000 HD
ATOM     47   S  SGN C   3      64.497  95.405  81.4710  0.00  0.00     0.000 S
ATOM     48   O  SGN C   3      65.226  95.687  80.2860  0.00  0.00     0.000 OA
ATOM     49   O  SGN C   3      63.345  94.575  81.3330  0.00  0.00     0.000 OA
ATOM     50   O  SGN C   3      64.169  96.681  82.1060  0.00  0.00     0.000 OA
ENDBRANCH 38 47
BRANCH 41 51
ATOM     51   C  SGN C   3      68.910  90.462  81.7020  0.00  0.00     0.000 C
ATOM     52   O  SGN C   3      67.736  87.614  79.6070  0.00  0.00     0.000 OA
ATOM     53   O  SGN C   3      69.853  88.733  79.6110  0.00  0.00     0.000 OA
ATOM     54   O  SGN C   3      69.129  87.491  81.5340  0.00  0.00     0.000 OA
ATOM     55   O  SGN C   3      68.088  89.635  80.9090  0.00  0.00     0.000 O
ATOM     56   S  SGN C   3      68.766  88.237  80.3660  0.00  0.00     0.000 S
ENDBRANCH 41 51
BRANCH 37 57
ATOM     57  O4  IDS C   4      68.100  94.363  82.3090  0.00  0.00     0.000 O
BRANCH 57 61
ATOM     58  C1  IDS C   4      70.057  97.574  82.8860  0.00  0.00     0.000 C
ATOM     59  C2  IDS C   4      68.765  97.645  82.1340  0.00  0.00     0.000 C
ATOM     60  C3  IDS C   4      68.577  96.472  81.1690  0.00  0.00     0.000 C
ATOM     61  C4  IDS C   4      69.115  95.122  81.6240  0.00  0.00     0.000 C
ATOM     62  C5  IDS C   4      70.355  95.301  82.5080  0.00  0.00     0.000 C
ATOM     63  O5  IDS C   4      70.157  96.300  83.4980  0.00  0.00     0.000 O
ATOM     64   O  IDS C   4      69.260  96.848  79.9880  0.00  0.00     0.000 O
ATOM     66  HD  IDS C   4      69.950  96.340  79.8610  0.00  0.00     0.000 HD
BRANCH 59 66
ATOM     66   O  IDS C   4      67.605  97.627  83.0460  0.00  0.00     0.000 O
ATOM     67   S  IDS C   4      66.815  98.997  83.2190  0.00  0.00     0.000 S
ATOM     68   O  IDS C   4      66.270  99.230  81.9030  0.00  0.00     0.000 OA
ATOM     69   O  IDS C   4      65.832  98.733  84.2500  0.00  0.00     0.000 OA
ATOM     70   O  IDS C   4      67.791 100.013  83.5820  0.00  0.00     0.000 OA
ENDBRANCH 59 66
BRANCH 62 71
ATOM     71   C  IDS C   4      70.732  94.043  83.2650  0.00  0.00     0.000 C
ATOM     72   O  IDS C   4      70.619  94.002  84.4750  0.00  0.00     0.000 OA
ATOM     73   O  IDS C   4      71.253  93.102  82.6320  0.00  0.00     0.000 OA
ENDBRANCH 62 71
BRANCH 58 74
ATOM     74  O4  SGN C   5      71.135  98.082  82.2250  0.00  0.00     0.000 O
BRANCH 74 78
ATOM     75  C1  SGN C   5      74.680 100.273  82.5100  0.00  0.00     0.000 C
ATOM     76  C2  SGN C   5      74.722  98.843  83.0810  0.00  0.00     0.000 C
ATOM     77  C3  SGN C   5      73.500  98.038  82.6180  0.00  0.00     0.000 C
ATOM     78  C4  SGN C   5      72.207  98.817  82.8160  0.00  0.00     0.000 C
ATOM     79  C5  SGN C   5      72.337 100.188  82.1690  0.00  0.00     0.000 C
ATOM     80  O5  SGN C   5      73.439 100.911  82.7800  0.00  0.00     0.000 O
ATOM     81   O  SGN C   5      73.458  96.809  83.3350  0.00  0.00     0.000 O
ATOM     83  HD  SGN C   5      74.181  96.377  83.5400  0.00  0.00     0.000 HD
BRANCH 76 85
ATOM     83   N  SGN C   5      76.074  98.633  82.5490  0.00  0.00     0.000 N
ATOM     85  HD  SGN C   5      76.815  98.189  82.4920  0.00  0.00     0.000 HD
ATOM     85   S  SGN C   5      77.407  98.141  83.3080  0.00  0.00     0.000 S
ATOM     86   O  SGN C   5      78.489  98.033  82.3920  0.00  0.00     0.000 OA
ATOM     87   O  SGN C   5      77.591  98.994  84.4270  0.00  0.00     0.000 OA
ATOM     88   O  SGN C   5      76.881  96.758  83.6850  0.00  0.00     0.000 OA
ENDBRANCH 76 85
BRANCH 79 89
ATOM     89   C  SGN C   5      71.086 101.035  82.2930  0.00  0.00     0.000 C
ATOM     90   O  SGN C   5      71.237 101.976  83.3840  0.00  0.00     0.000 O
ATOM     91   S  SGN C   5      70.482 103.384  83.2300  0.00  0.00     0.000 S
ATOM     92   O  SGN C   5      70.882 103.922  81.9560  0.00  0.00     0.000 OA
ATOM     93   O  SGN C   5      69.069 103.117  83.2960  0.00  0.00     0.000 OA
ATOM     94   O  SGN C   5      70.969 104.143  84.3500  0.00  0.00     0.000 OA
ENDBRANCH 79 89
BRANCH 75 95
ATOM     95  O4  BDP C   6      74.842 100.139  81.1600  0.00  0.00     0.000 O
BRANCH 95 99
ATOM     96  C1  BDP C   6      76.612 102.719  78.2170  0.00  0.00     0.000 C
ATOM     97  C2  BDP C   6      77.326 102.518  79.5240  0.00  0.00     0.000 C
ATOM     98  C3  BDP C   6      76.833 101.311  80.3370  0.00  0.00     0.000 C
ATOM     99  C4  BDP C   6      75.315 101.299  80.4420  0.00  0.00     0.000 C
ATOM    100  C5  BDP C   6      74.736 101.480  79.0190  0.00  0.00     0.000 C
ATOM    101  O5  BDP C   6      75.251 102.756  78.6060  0.00  0.00     0.000 O
BRANCH 100 102
ATOM    102   C  BDP C   6      73.231 101.562  79.0100  0.00  0.00     0.000 C
ATOM    103   O  BDP C   6      72.521 100.651  78.5600  0.00  0.00     0.000 OA
ATOM    104   O  BDP C   6      72.724 102.583  79.4880  0.00  0.00     0.000 OA
ENDBRANCH 100 102
ENDBRANCH 95 99
ENDBRANCH 75 95
ENDBRANCH 74 78
ENDBRANCH 58 74
ENDBRANCH 57 61
ENDBRANCH 37 57
ENDBRANCH 36 40
ENDBRANCH 23 36
ENDBRANCH 22 26
ENDBRANCH 1 22
TORSDOF 20
ENDMDL
MODEL 88
REMARK VINA RESULT:       1.8     51.856     60.058
ROOT
ATOM      1  C1  NGY C   1      47.951  48.968  66.6550  0.00  0.00     0.000 C
ATOM      2  C2  NGY C   1      47.624  48.128  65.4280  0.00  0.00     0.000 C
ATOM      3  C3  NGY C   1      46.210  47.567  65.5330  0.00  0.00     0.000 C
ATOM      4  C4  NGY C   1      46.092  46.816  66.8460  0.00  0.00     0.000 C
ATOM      5  C5  NGY C   1      46.361  47.788  67.9910  0.00  0.00     0.000 C
ATOM      6  O5  NGY C   1      47.722  48.276  67.8640  0.00  0.00     0.000 O
ATOM      7   O  NGY C   1      45.956  46.730  64.4140  0.00  0.00     0.000 O
ATOM      9  HD  NGY C   1      46.398  46.168  63.9250  0.00  0.00     0.000 HD
ATOM      9   O  NGY C   1      44.802  46.239  66.9870  0.00  0.00     0.000 O
ATOM     11  HD  NGY C   1      45.244  45.678  66.4980  0.00  0.00     0.000 HD
ENDROOT
BRANCH 2 13
ATOM     11   N  NGY C   1      48.029  48.989  64.3420  0.00  0.00     0.000 N
ATOM     13  HD  NGY C   1      48.234  48.383  63.7590  0.00  0.00     0.000 HD
ATOM     13   C  NGY C   1      48.450  48.495  63.1790  0.00  0.00     0.000 C
ATOM     14   O  NGY C   1      48.646  47.288  63.0330  0.00  0.00     0.000 OA
ATOM     15   C  NGY C   1      48.642  49.476  62.0620  0.00  0.00     0.000 C
ENDBRANCH 2 13
BRANCH 5 16
ATOM     16   C  NGY C   1      46.271  47.195  69.3610  0.00  0.00     0.000 C
ATOM     17   O  NGY C   1      43.344  47.521  71.5490  0.00  0.00     0.000 OA
ATOM     18   O  NGY C   1      45.096  47.696  70.0030  0.00  0.00     0.000 O
ATOM     19   S  NGY C   1      44.593  46.870  71.2410  0.00  0.00     0.000 S
ATOM     20   O  NGY C   1      45.568  47.033  72.2870  0.00  0.00     0.000 OA
ATOM     21   O  NGY C   1      44.489  45.504  70.7520  0.00  0.00     0.000 OA
ENDBRANCH 5 16
BRANCH 1 22
ATOM     22  O4  BDP C   2      47.264  50.128  66.5830  0.00  0.00     0.000 O
BRANCH 22 26
ATOM     23  C1  BDP C   2      46.936  54.173  67.2840  0.00  0.00     0.000 C
ATOM     24  C2  BDP C   2      48.181  53.740  66.5480  0.00  0.00     0.000 C
ATOM     25  C3  BDP C   2      48.006  52.333  66.0420  0.00  0.00     0.000 C
ATOM     26  C4  BDP C   2      47.595  51.408  67.1830  0.00  0.00     0.000 C
ATOM     27  C5  BDP C   2      46.444  52.029  67.9620  0.00  0.00     0.000 C
ATOM     28  O5  BDP C   2      46.760  53.350  68.4720  0.00  0.00     0.000 O
ATOM     29   O  BDP C   2      48.403  54.500  65.3600  0.00  0.00     0.000 O
ATOM     31  HD  BDP C   2      48.740  54.075  64.6850  0.00  0.00     0.000 HD
ATOM     31   O  BDP C   2      49.261  51.925  65.5100  0.00  0.00     0.000 O
ATOM     33  HD  BDP C   2      49.598  51.500  64.8350  0.00  0.00     0.000 HD
BRANCH 27 33
ATOM     33   C  BDP C   2      46.053  51.208  69.1680  0.00  0.00     0.000 C
ATOM     34   O  BDP C   2      44.856  50.948  69.4360  0.00  0.00     0.000 OA
ATOM     35   O  BDP C   2      46.935  50.818  69.9150  0.00  0.00     0.000 OA
ENDBRANCH 27 33
BRANCH 23 36
ATOM     36  O4  SGN C   3      46.915  55.468  67.6770  0.00  0.00     0.000 O
BRANCH 36 40
ATOM     37  C1  SGN C   3      44.582  58.911  68.0400  0.00  0.00     0.000 C
ATOM     38  C2  SGN C   3      44.469  57.851  69.1480  0.00  0.00     0.000 C
ATOM     39  C3  SGN C   3      45.660  56.906  69.1050  0.00  0.00     0.000 C
ATOM     40  C4  SGN C   3      45.747  56.292  67.7250  0.00  0.00     0.000 C
ATOM     41  C5  SGN C   3      45.833  57.402  66.7010  0.00  0.00     0.000 C
ATOM     42  O5  SGN C   3      44.669  58.238  66.7940  0.00  0.00     0.000 O
ATOM     43   O  SGN C   3      45.499  55.903  70.1000  0.00  0.00     0.000 O
ATOM     45  HD  SGN C   3      45.979  55.597  69.4480  0.00  0.00     0.000 HD
BRANCH 38 47
ATOM     45   N  SGN C   3      43.229  58.632  69.3090  0.00  0.00     0.000 N
ATOM     47  HD  SGN C   3      43.718  58.117  68.8140  0.00  0.00     0.000 HD
ATOM     47   S  SGN C   3      42.976  59.046  70.8230  0.00  0.00     0.000 S
ATOM     48   O  SGN C   3      42.721  57.909  71.6350  0.00  0.00     0.000 OA
ATOM     49   O  SGN C   3      44.071  59.875  71.2080  0.00  0.00     0.000 OA
ATOM     50   O  SGN C   3      41.733  59.808  70.7190  0.00  0.00     0.000 OA
ENDBRANCH 38 47
BRANCH 41 51
ATOM     51   C  SGN C   3      45.929  56.922  65.2780  0.00  0.00     0.000 C
ATOM     52   O  SGN C   3      43.809  54.346  63.6200  0.00  0.00     0.000 OA
ATOM     53   O  SGN C   3      44.804  56.321  62.7040  0.00  0.00     0.000 OA
ATOM     54   O  SGN C   3      46.181  54.529  63.5140  0.00  0.00     0.000 OA
ATOM     55   O  SGN C   3      44.907  55.978  65.0460  0.00  0.00     0.000 O
ATOM     56   S  SGN C   3      44.929  55.223  63.5840  0.00  0.00     0.000 S
ENDBRANCH 41 51
BRANCH 37 57
ATOM     57  O4  IDS C   4      45.654  59.734  68.1520  0.00  0.00     0.000 O
BRANCH 57 61
ATOM     58  C1  IDS C   4      47.331  63.115  68.6290  0.00  0.00     0.000 C
ATOM     59  C2  IDS C   4      46.268  62.698  69.5960  0.00  0.00     0.000 C
ATOM     60  C3  IDS C   4      45.095  61.988  68.9150  0.00  0.00     0.000 C
ATOM     61  C4  IDS C   4      45.434  61.094  67.7310  0.00  0.00     0.000 C
ATOM     62  C5  IDS C   4      46.651  61.635  66.9720  0.00  0.00     0.000 C
ATOM     63  O5  IDS C   4      47.707  61.990  67.8530  0.00  0.00     0.000 O
ATOM     64   O  IDS C   4      44.245  63.025  68.4620  0.00  0.00     0.000 O
ATOM     66  HD  IDS C   4      44.230  63.048  67.5960  0.00  0.00     0.000 HD
BRANCH 59 66
ATOM     66   O  IDS C   4      46.793  61.761  70.6080  0.00  0.00     0.000 O
ATOM     67   S  IDS C   4      46.929  62.322  72.0910  0.00  0.00     0.000 S
ATOM     68   O  IDS C   4      45.561  62.577  72.4730  0.00  0.00     0.000 OA
ATOM     69   O  IDS C   4      47.583  61.261  72.8320  0.00  0.00     0.000 OA
ATOM     70   O  IDS C   4      47.704  63.551  72.0170  0.00  0.00     0.000 OA
ENDBRANCH 59 66
BRANCH 62 71
ATOM     71   C  IDS C   4      47.246  60.629  66.0060  0.00  0.00     0.000 C
ATOM     72   O  IDS C   4      46.664  60.357  64.9730  0.00  0.00     0.000 OA
ATOM     73   O  IDS C   4      48.280  60.019  66.3450  0.00  0.00     0.000 OA
ENDBRANCH 62 71
BRANCH 58 74
ATOM     74  O4  SGN C   5      47.107  64.308  68.0080  0.00  0.00     0.000 O
BRANCH 74 78
ATOM     75  C1  SGN C   5      48.759  67.902  66.6680  0.00  0.00     0.000 C
ATOM     76  C2  SGN C   5      49.115  66.647  65.8480  0.00  0.00     0.000 C
ATOM     77  C3  SGN C   5      48.195  65.477  66.2200  0.00  0.00     0.000 C
ATOM     78  C4  SGN C   5      48.092  65.302  67.7290  0.00  0.00     0.000 C
ATOM     79  C5  SGN C   5      47.710  66.629  68.3680  0.00  0.00     0.000 C
ATOM     80  O5  SGN C   5      48.721  67.625  68.0620  0.00  0.00     0.000 O
ATOM     81   O  SGN C   5      48.690  64.289  65.6120  0.00  0.00     0.000 O
ATOM     83  HD  SGN C   5      49.045  64.296  64.8220  0.00  0.00     0.000 HD
BRANCH 76 85
ATOM     83   N  SGN C   5      49.782  66.462  64.5530  0.00  0.00     0.000 N
ATOM     85  HD  SGN C   5      50.314  66.721  63.9210  0.00  0.00     0.000 HD
ATOM     85   S  SGN C   5      50.055  67.533  63.3810  0.00  0.00     0.000 S
ATOM     86   O  SGN C   5      50.777  66.930  62.3150  0.00  0.00     0.000 OA
ATOM     87   O  SGN C   5      48.808  68.130  63.0600  0.00  0.00     0.000 OA
ATOM     88   O  SGN C   5      50.966  68.445  64.1990  0.00  0.00     0.000 OA
ENDBRANCH 76 85
BRANCH 79 89
ATOM     89   C  SGN C   5      47.558  66.552  69.8740  0.00  0.00     0.000 C
ATOM     90   O  SGN C   5      48.737  67.100  70.5130  0.00  0.00     0.000 O
ATOM     91   S  SGN C   5      48.520  67.815  71.9340  0.00  0.00     0.000 S
ATOM     92   O  SGN C   5      47.473  68.785  71.7450  0.00  0.00     0.000 OA
ATOM     93   O  SGN C   5      48.155  66.787  72.8740  0.00  0.00     0.000 OA
ATOM     94   O  SGN C   5      49.803  68.404  72.2070  0.00  0.00     0.000 OA
ENDBRANCH 79 89
BRANCH 75 95
ATOM     95  O4  BDP C   6      47.519  68.285  66.2420  0.00  0.00     0.000 O
BRANCH 95 99
ATOM     96  C1  BDP C   6      45.704  72.160  65.8740  0.00  0.00     0.000 C
ATOM     97  C2  BDP C   6      47.134  71.990  65.4470  0.00  0.00     0.000 C
ATOM     98  C3  BDP C   6      47.569  70.529  65.2530  0.00  0.00     0.000 C
ATOM     99  C4  BDP C   6      47.160  69.669  66.4410  0.00  0.00     0.000 C
ATOM    100  C5  BDP C   6      45.664  69.932  66.7290  0.00  0.00     0.000 C
ATOM    101  O5  BDP C   6      45.619  71.337  67.0230  0.00  0.00     0.000 O
BRANCH 100 102
ATOM    102   C  BDP C   6      45.166  69.188  67.9410  0.00  0.00     0.000 C
ATOM    103   O  BDP C   6      44.348  68.259  67.8590  0.00  0.00     0.000 OA
ATOM    104   O  BDP C   6      45.621  69.536  69.0370  0.00  0.00     0.000 OA
ENDBRANCH 100 102
ENDBRANCH 95 99
ENDBRANCH 75 95
ENDBRANCH 74 78
ENDBRANCH 58 74
ENDBRANCH 57 61
ENDBRANCH 37 57
ENDBRANCH 36 40
ENDBRANCH 23 36
ENDBRANCH 22 26
ENDBRANCH 1 22
TORSDOF 20
ENDMDL
MODEL 89
REMARK VINA RESULT:       1.8     49.193     54.927
ROOT
ATOM      1  C1  NGY C   1      30.173  20.159  88.6550  0.00  0.00     0.000 C
ATOM      2  C2  NGY C   1      29.250  19.300  87.8010  0.00  0.00     0.000 C
ATOM      3  C3  NGY C   1      29.297  19.759  86.3470  0.00  0.00     0.000 C
ATOM      4  C4  NGY C   1      28.977  21.241  86.3050  0.00  0.00     0.000 C
ATOM      5  C5  NGY C   1      30.020  21.991  87.1290  0.00  0.00     0.000 C
ATOM      6  O5  NGY C   1      29.923  21.540  88.5050  0.00  0.00     0.000 O
ATOM      7   O  NGY C   1      28.375  18.992  85.5860  0.00  0.00     0.000 O
ATOM      9  HD  NGY C   1      27.591  18.643  85.6990  0.00  0.00     0.000 HD
ATOM      9   O  NGY C   1      28.972  21.723  84.9690  0.00  0.00     0.000 O
ATOM     11  HD  NGY C   1      28.188  21.373  85.0820  0.00  0.00     0.000 HD
ENDROOT
BRANCH 2 13
ATOM     11   N  NGY C   1      28.493  18.103  87.5210  0.00  0.00     0.000 N
ATOM     13  HD  NGY C   1      28.884  17.564  88.0750  0.00  0.00     0.000 HD
ATOM     13   C  NGY C   1      28.741  16.957  88.1520  0.00  0.00     0.000 C
ATOM     14   O  NGY C   1      29.718  16.836  88.8940  0.00  0.00     0.000 OA
ATOM     15   C  NGY C   1      27.763  15.843  87.9340  0.00  0.00     0.000 C
ENDBRANCH 2 13
BRANCH 5 16
ATOM     16   C  NGY C   1      29.845  23.475  87.1770  0.00  0.00     0.000 C
ATOM     17   O  NGY C   1      27.077  25.158  88.8980  0.00  0.00     0.000 OA
ATOM     18   O  NGY C   1      28.562  23.769  87.7350  0.00  0.00     0.000 O
ATOM     19   S  NGY C   1      28.375  25.232  88.2760  0.00  0.00     0.000 S
ATOM     20   O  NGY C   1      28.387  26.111  87.1360  0.00  0.00     0.000 OA
ATOM     21   O  NGY C   1      29.496  25.436  89.1780  0.00  0.00     0.000 OA
ENDBRANCH 5 16
BRANCH 1 22
ATOM     22  O4  BDP C   2      31.452  19.830  88.3770  0.00  0.00     0.000 O
BRANCH 22 26
ATOM     23  C1  BDP C   2      35.430  19.559  89.4120  0.00  0.00     0.000 C
ATOM     24  C2  BDP C   2      34.516  18.554  90.0730  0.00  0.00     0.000 C
ATOM     25  C3  BDP C   2      33.196  18.519  89.3500  0.00  0.00     0.000 C
ATOM     26  C4  BDP C   2      32.614  19.924  89.2430  0.00  0.00     0.000 C
ATOM     27  C5  BDP C   2      33.677  20.886  88.7300  0.00  0.00     0.000 C
ATOM     28  O5  BDP C   2      34.871  20.895  89.5550  0.00  0.00     0.000 O
ATOM     29   O  BDP C   2      35.001  17.217  89.9530  0.00  0.00     0.000 O
ATOM     31  HD  BDP C   2      34.406  16.596  89.8520  0.00  0.00     0.000 HD
ATOM     31   O  BDP C   2      32.329  17.688  90.1120  0.00  0.00     0.000 O
ATOM     33  HD  BDP C   2      31.733  17.067  90.0110  0.00  0.00     0.000 HD
BRANCH 27 33
ATOM     33   C  BDP C   2      33.194  22.316  88.6940  0.00  0.00     0.000 C
ATOM     34   O  BDP C   2      33.406  23.067  87.7110  0.00  0.00     0.000 OA
ATOM     35   O  BDP C   2      32.609  22.756  89.6700  0.00  0.00     0.000 OA
ENDBRANCH 27 33
BRANCH 23 36
ATOM     36  O4  SGN C   3      36.696  19.592  89.8890  0.00  0.00     0.000 O
BRANCH 36 40
ATOM     37  C1  SGN C   3      40.740  19.811  88.8760  0.00  0.00     0.000 C
ATOM     38  C2  SGN C   3      39.951  21.128  88.9510  0.00  0.00     0.000 C
ATOM     39  C3  SGN C   3      38.662  20.932  89.7360  0.00  0.00     0.000 C
ATOM     40  C4  SGN C   3      37.865  19.816  89.0950  0.00  0.00     0.000 C
ATOM     41  C5  SGN C   3      38.723  18.572  89.0420  0.00  0.00     0.000 C
ATOM     42  O5  SGN C   3      39.908  18.832  88.2730  0.00  0.00     0.000 O
ATOM     43   O  SGN C   3      37.925  22.148  89.7390  0.00  0.00     0.000 O
ATOM     45  HD  SGN C   3      37.385  21.476  89.8170  0.00  0.00     0.000 HD
BRANCH 38 47
ATOM     45   N  SGN C   3      40.378  22.304  88.1720  0.00  0.00     0.000 N
ATOM     47  HD  SGN C   3      39.742  21.766  88.4070  0.00  0.00     0.000 HD
ATOM     47   S  SGN C   3      41.805  22.835  88.6270  0.00  0.00     0.000 S
ATOM     48   O  SGN C   3      41.768  23.351  89.9500  0.00  0.00     0.000 OA
ATOM     49   O  SGN C   3      42.733  21.781  88.3770  0.00  0.00     0.000 OA
ATOM     50   O  SGN C   3      42.009  23.959  87.7150  0.00  0.00     0.000 OA
ENDBRANCH 38 47
BRANCH 41 51
ATOM     51   C  SGN C   3      38.041  17.380  88.4270  0.00  0.00     0.000 C
ATOM     52   O  SGN C   3      36.239  17.245  85.1690  0.00  0.00     0.000 OA
ATOM     53   O  SGN C   3      37.542  15.559  86.2610  0.00  0.00     0.000 OA
ATOM     54   O  SGN C   3      35.501  16.350  87.2490  0.00  0.00     0.000 OA
ATOM     55   O  SGN C   3      37.528  17.749  87.1660  0.00  0.00     0.000 O
ATOM     56   S  SGN C   3      36.617  16.619  86.3900  0.00  0.00     0.000 S
ENDBRANCH 41 51
BRANCH 37 57
ATOM     57  O4  IDS C   4      41.158  19.333  90.0730  0.00  0.00     0.000 O
BRANCH 57 61
ATOM     58  C1  IDS C   4      44.328  18.337  91.9250  0.00  0.00     0.000 C
ATOM     59  C2  IDS C   4      44.446  19.220  90.7240  0.00  0.00     0.000 C
ATOM     60  C3  IDS C   4      43.498  18.812  89.5930  0.00  0.00     0.000 C
ATOM     61  C4  IDS C   4      42.135  18.276  90.0080  0.00  0.00     0.000 C
ATOM     62  C5  IDS C   4      42.227  17.533  91.3460  0.00  0.00     0.000 C
ATOM     63  O5  IDS C   4      42.966  18.270  92.3090  0.00  0.00     0.000 O
ATOM     64   O  IDS C   4      44.180  17.794  88.8850  0.00  0.00     0.000 O
ATOM     66  HD  IDS C   4      43.774  17.035  88.9780  0.00  0.00     0.000 HD
BRANCH 59 66
ATOM     66   O  IDS C   4      44.128  20.624  91.0490  0.00  0.00     0.000 O
ATOM     67   S  IDS C   4      45.356  21.635  91.1090  0.00  0.00     0.000 S
ATOM     68   O  IDS C   4      45.834  21.653  89.7480  0.00  0.00     0.000 OA
ATOM     69   O  IDS C   4      44.787  22.885  91.5740  0.00  0.00     0.000 OA
ATOM     70   O  IDS C   4      46.340  21.064  92.0160  0.00  0.00     0.000 OA
ENDBRANCH 59 66
BRANCH 62 71
ATOM     71   C  IDS C   4      40.873  17.276  91.9780  0.00  0.00     0.000 C
ATOM     72   O  IDS C   4      40.525  17.912  92.9540  0.00  0.00     0.000 OA
ATOM     73   O  IDS C   4      40.181  16.335  91.5390  0.00  0.00     0.000 OA
ENDBRANCH 62 71
BRANCH 58 74
ATOM     74  O4  SGN C   5      45.061  17.188  91.8680  0.00  0.00     0.000 O
BRANCH 74 78
ATOM     75  C1  SGN C   5      47.523  14.523  93.9360  0.00  0.00     0.000 C
ATOM     76  C2  SGN C   5      46.017  14.434  94.2490  0.00  0.00     0.000 C
ATOM     77  C3  SGN C   5      45.199  15.201  93.2010  0.00  0.00     0.000 C
ATOM     78  C4  SGN C   5      45.766  16.592  92.9570  0.00  0.00     0.000 C
ATOM     79  C5  SGN C   5      47.251  16.487  92.6390  0.00  0.00     0.000 C
ATOM     80  O5  SGN C   5      47.943  15.869  93.7560  0.00  0.00     0.000 O
ATOM     81   O  SGN C   5      43.847  15.282  93.6400  0.00  0.00     0.000 O
ATOM     83  HD  SGN C   5      43.466  14.628  94.0600  0.00  0.00     0.000 HD
BRANCH 76 85
ATOM     83   N  SGN C   5      45.941  12.967  94.2560  0.00  0.00     0.000 N
ATOM     85  HD  SGN C   5      45.573  12.220  94.4910  0.00  0.00     0.000 HD
ATOM     85   S  SGN C   5      45.589  11.967  95.4680  0.00  0.00     0.000 S
ATOM     86   O  SGN C   5      45.586  10.619  95.0150  0.00  0.00     0.000 OA
ATOM     87   O  SGN C   5      46.462  12.285  96.5410  0.00  0.00     0.000 OA
ATOM     88   O  SGN C   5      44.163  12.465  95.6850  0.00  0.00     0.000 OA
ENDBRANCH 76 85
BRANCH 79 89
ATOM     89   C  SGN C   5      47.904  17.824  92.3550  0.00  0.00     0.000 C
ATOM     90   O  SGN C   5      48.695  18.235  93.4960  0.00  0.00     0.000 O
ATOM     91   S  SGN C   5      50.003  19.114  93.1890  0.00  0.00     0.000 S
ATOM     92   O  SGN C   5      50.760  18.384  92.2050  0.00  0.00     0.000 OA
ATOM     93   O  SGN C   5      49.550  20.390  92.6990  0.00  0.00     0.000 OA
ATOM     94   O  SGN C   5      50.654  19.195  94.4670  0.00  0.00     0.000 OA
ENDBRANCH 79 89
BRANCH 75 95
ATOM     95  O4  BDP C   6      47.703  13.827  92.7750  0.00  0.00     0.000 O
BRANCH 95 99
ATOM     96  C1  BDP C   6      51.038  11.539  91.3260  0.00  0.00     0.000 C
ATOM     97  C2  BDP C   6      50.669  11.437  92.7800  0.00  0.00     0.000 C
ATOM     98  C3  BDP C   6      49.269  11.969  93.1170  0.00  0.00     0.000 C
ATOM     99  C4  BDP C   6      49.037  13.343  92.5050  0.00  0.00     0.000 C
ATOM    100  C5  BDP C   6      49.427  13.272  91.0100  0.00  0.00     0.000 C
ATOM    101  O5  BDP C   6      50.817  12.908  91.0420  0.00  0.00     0.000 O
BRANCH 100 102
ATOM    102   C  BDP C   6      49.312  14.605  90.3160  0.00  0.00     0.000 C
ATOM    103   O  BDP C   6      48.455  14.828  89.4490  0.00  0.00     0.000 OA
ATOM    104   O  BDP C   6      50.110  15.485  90.6590  0.00  0.00     0.000 OA
ENDBRANCH 100 102
ENDBRANCH 95 99
ENDBRANCH 75 95
ENDBRANCH 74 78
ENDBRANCH 58 74
ENDBRANCH 57 61
ENDBRANCH 37 57
ENDBRANCH 36 40
ENDBRANCH 23 36
ENDBRANCH 22 26
ENDBRANCH 1 22
TORSDOF 20
ENDMDL
MODEL 90
REMARK VINA RESULT:       1.8     84.991     92.221
ROOT
ATOM      1  C1  NGY C   1      68.637  36.221 107.7580  0.00  0.00     0.000 C
ATOM      2  C2  NGY C   1      67.189  36.221 107.2890  0.00  0.00     0.000 C
ATOM      3  C3  NGY C   1      66.248  36.073 108.4800  0.00  0.00     0.000 C
ATOM      4  C4  NGY C   1      66.648  34.829 109.2500  0.00  0.00     0.000 C
ATOM      5  C5  NGY C   1      68.087  34.993 109.7310  0.00  0.00     0.000 C
ATOM      6  O5  NGY C   1      68.946  35.107 108.5670  0.00  0.00     0.000 O
ATOM      7   O  NGY C   1      64.909  36.002 108.0110  0.00  0.00     0.000 O
ATOM      9  HD  NGY C   1      64.488  35.666 107.3330  0.00  0.00     0.000 HD
ATOM      9   O  NGY C   1      65.784  34.616 110.3570  0.00  0.00     0.000 O
ATOM     11  HD  NGY C   1      65.363  34.280 109.6790  0.00  0.00     0.000 HD
ENDROOT
BRANCH 2 13
ATOM     11   N  NGY C   1      67.235  36.639 105.9070  0.00  0.00     0.000 N
ATOM     13  HD  NGY C   1      66.518  37.124 105.8890  0.00  0.00     0.000 HD
ATOM     13   C  NGY C   1      66.299  37.430 105.3850  0.00  0.00     0.000 C
ATOM     14   O  NGY C   1      65.283  37.719 106.0200  0.00  0.00     0.000 OA
ATOM     15   C  NGY C   1      66.560  37.965 104.0100  0.00  0.00     0.000 C
ENDBRANCH 2 13
BRANCH 5 16
ATOM     16   C  NGY C   1      68.628  33.844 110.5210  0.00  0.00     0.000 C
ATOM     17   O  NGY C   1      71.580  31.896 109.5480  0.00  0.00     0.000 OA
ATOM     18   O  NGY C   1      69.637  33.190 109.7480  0.00  0.00     0.000 O
ATOM     19   S  NGY C   1      70.618  32.264 110.5550  0.00  0.00     0.000 S
ATOM     20   O  NGY C   1      69.852  31.137 111.0200  0.00  0.00     0.000 OA
ATOM     21   O  NGY C   1      71.118  33.108 111.6280  0.00  0.00     0.000 OA
ENDBRANCH 5 16
BRANCH 1 22
ATOM     22  O4  BDP C   2      68.895  37.396 108.3710  0.00  0.00     0.000 O
BRANCH 22 26
ATOM     23  C1  BDP C   2      71.456  40.450 109.4090  0.00  0.00     0.000 C
ATOM     24  C2  BDP C   2      71.263  40.240 107.9260  0.00  0.00     0.000 C
ATOM     25  C3  BDP C   2      70.056  39.369 107.6920  0.00  0.00     0.000 C
ATOM     26  C4  BDP C   2      70.168  38.082 108.5010  0.00  0.00     0.000 C
ATOM     27  C5  BDP C   2      70.537  38.408 109.9420  0.00  0.00     0.000 C
ATOM     28  O5  BDP C   2      71.762  39.178 110.0470  0.00  0.00     0.000 O
ATOM     29   O  BDP C   2      70.942  41.451 107.2420  0.00  0.00     0.000 O
ATOM     31  HD  BDP C   2      70.386  41.388 106.5820  0.00  0.00     0.000 HD
ATOM     31   O  BDP C   2      70.025  39.072 106.3020  0.00  0.00     0.000 O
ATOM     33  HD  BDP C   2      69.469  39.008 105.6410  0.00  0.00     0.000 HD
BRANCH 27 33
ATOM     33   C  BDP C   2      70.760  37.168 110.7760  0.00  0.00     0.000 C
ATOM     34   O  BDP C   2      70.200  37.003 111.8860  0.00  0.00     0.000 OA
ATOM     35   O  BDP C   2      71.537  36.323 110.3630  0.00  0.00     0.000 OA
ENDBRANCH 27 33
BRANCH 23 36
ATOM     36  O4  SGN C   3      72.433  41.323 109.7490  0.00  0.00     0.000 O
BRANCH 36 40
ATOM     37  C1  SGN C   3      73.653  44.209 112.5080  0.00  0.00     0.000 C
ATOM     38  C2  SGN C   3      73.896  42.733 112.8630  0.00  0.00     0.000 C
ATOM     39  C3  SGN C   3      73.811  41.864 111.6170  0.00  0.00     0.000 C
ATOM     40  C4  SGN C   3      72.466  42.086 110.9580  0.00  0.00     0.000 C
ATOM     41  C5  SGN C   3      72.303  43.561 110.6660  0.00  0.00     0.000 C
ATOM     42  O5  SGN C   3      72.379  44.309 111.8900  0.00  0.00     0.000 O
ATOM     43   O  SGN C   3      73.980  40.501 111.9830  0.00  0.00     0.000 O
ATOM     45  HD  SGN C   3      73.501  40.555 111.2640  0.00  0.00     0.000 HD
BRANCH 38 47
ATOM     45   N  SGN C   3      73.948  43.376 114.1880  0.00  0.00     0.000 N
ATOM     47  HD  SGN C   3      73.487  43.170 113.4850  0.00  0.00     0.000 HD
ATOM     47   S  SGN C   3      75.246  42.956 115.0050  0.00  0.00     0.000 S
ATOM     48   O  SGN C   3      75.221  41.578 115.3440  0.00  0.00     0.000 OA
ATOM     49   O  SGN C   3      76.368  43.411 114.2510  0.00  0.00     0.000 OA
ATOM     50   O  SGN C   3      75.080  43.722 116.2390  0.00  0.00     0.000 OA
ENDBRANCH 38 47
BRANCH 41 51
ATOM     51   C  SGN C   3      71.001  43.917 110.0020  0.00  0.00     0.000 C
ATOM     52   O  SGN C   3      70.520  45.299 106.5770  0.00  0.00     0.000 OA
ATOM     53   O  SGN C   3      69.129  43.803 107.8250  0.00  0.00     0.000 OA
ATOM     54   O  SGN C   3      69.480  46.054 108.5820  0.00  0.00     0.000 OA
ATOM     55   O  SGN C   3      71.264  44.359 108.6890  0.00  0.00     0.000 O
ATOM     56   S  SGN C   3      69.977  44.933 107.8400  0.00  0.00     0.000 S
ENDBRANCH 41 51
BRANCH 37 57
ATOM     57  O4  IDS C   4      74.573  44.748 111.6720  0.00  0.00     0.000 O
BRANCH 57 61
ATOM     58  C1  IDS C   4      77.342  47.181 110.7310  0.00  0.00     0.000 C
ATOM     59  C2  IDS C   4      77.486  46.380 111.9860  0.00  0.00     0.000 C
ATOM     60  C3  IDS C   4      76.170  46.248 112.7570  0.00  0.00     0.000 C
ATOM     61  C4  IDS C   4      74.902  46.128 111.9240  0.00  0.00     0.000 C
ATOM     62  C5  IDS C   4      75.038  46.908 110.6110  0.00  0.00     0.000 C
ATOM     63  O5  IDS C   4      76.276  46.643 109.9670  0.00  0.00     0.000 O
ATOM     64   O  IDS C   4      76.079  47.421 113.5420  0.00  0.00     0.000 O
ATOM     66  HD  IDS C   4      75.422  47.917 113.2720  0.00  0.00     0.000 HD
BRANCH 59 66
ATOM     66   O  IDS C   4      77.945  45.007 111.7030  0.00  0.00     0.000 O
ATOM     67   S  IDS C   4      79.459  44.675 112.0670  0.00  0.00     0.000 S
ATOM     68   O  IDS C   4      79.487  44.804 113.5040  0.00  0.00     0.000 OA
ATOM     69   O  IDS C   4      79.675  43.331 111.5700  0.00  0.00     0.000 OA
ATOM     70   O  IDS C   4      80.287  45.681 111.4220  0.00  0.00     0.000 OA
ENDBRANCH 59 66
BRANCH 62 71
ATOM     71   C  IDS C   4      73.966  46.557 109.5970  0.00  0.00     0.000 C
ATOM     72   O  IDS C   4      74.260  45.953 108.5830  0.00  0.00     0.000 OA
ATOM     73   O  IDS C   4      72.811  46.991 109.7790  0.00  0.00     0.000 OA
ENDBRANCH 62 71
BRANCH 58 74
ATOM     74  O4  SGN C   5      77.426  48.532 110.8980  0.00  0.00     0.000 O
BRANCH 74 78
ATOM     75  C1  SGN C   5      78.913  52.140 109.4090  0.00  0.00     0.000 C
ATOM     76  C2  SGN C   5      77.846  51.441 108.5460  0.00  0.00     0.000 C
ATOM     77  C3  SGN C   5      77.142  50.335 109.3430  0.00  0.00     0.000 C
ATOM     78  C4  SGN C   5      78.143  49.435 110.0550  0.00  0.00     0.000 C
ATOM     79  C5  SGN C   5      79.098  50.288 110.8760  0.00  0.00     0.000 C
ATOM     80  O5  SGN C   5      79.806  51.204 109.9990  0.00  0.00     0.000 O
ATOM     81   O  SGN C   5      76.328  49.574 108.4570  0.00  0.00     0.000 O
ATOM     83  HD  SGN C   5      75.899  49.945 107.8030  0.00  0.00     0.000 HD
BRANCH 76 85
ATOM     83   N  SGN C   5      77.953  52.655 107.7260  0.00  0.00     0.000 N
ATOM     85  HD  SGN C   5      77.640  53.399 107.4120  0.00  0.00     0.000 HD
ATOM     85   S  SGN C   5      76.849  53.356 106.7880  0.00  0.00     0.000 S
ATOM     86   O  SGN C   5      77.370  54.546 106.2100  0.00  0.00     0.000 OA
ATOM     87   O  SGN C   5      76.365  52.364 105.8960  0.00  0.00     0.000 OA
ATOM     88   O  SGN C   5      75.866  53.688 107.9080  0.00  0.00     0.000 OA
ENDBRANCH 76 85
BRANCH 79 89
ATOM     89   C  SGN C   5      80.122  49.479 111.6460  0.00  0.00     0.000 C
ATOM     90   O  SGN C   5      81.075  48.893 110.7250  0.00  0.00     0.000 O
ATOM     91   S  SGN C   5      82.571  48.688 111.2700  0.00  0.00     0.000 S
ATOM     92   O  SGN C   5      82.992  49.963 111.7900  0.00  0.00     0.000 OA
ATOM     93   O  SGN C   5      82.515  47.670 112.2880  0.00  0.00     0.000 OA
ATOM     94   O  SGN C   5      83.296  48.279 110.0980  0.00  0.00     0.000 OA
ENDBRANCH 79 89
BRANCH 75 95
ATOM     95  O4  BDP C   6      78.226  52.799 110.3890  0.00  0.00     0.000 O
BRANCH 95 99
ATOM     96  C1  BDP C   6      79.290  56.393 112.4850  0.00  0.00     0.000 C
ATOM     97  C2  BDP C   6      79.856  56.165 111.1120  0.00  0.00     0.000 C
ATOM     98  C3  BDP C   6      79.135  55.075 110.3030  0.00  0.00     0.000 C
ATOM     99  C4  BDP C   6      78.950  53.809 111.1260  0.00  0.00     0.000 C
ATOM    100  C5  BDP C   6      78.331  54.208 112.4860  0.00  0.00     0.000 C
ATOM    101  O5  BDP C   6      79.308  55.096 113.0520  0.00  0.00     0.000 O
BRANCH 100 102
ATOM    102   C  BDP C   6      78.173  53.035 113.4190  0.00  0.00     0.000 C
ATOM    103   O  BDP C   6      77.112  52.401 113.5120  0.00  0.00     0.000 OA
ATOM    104   O  BDP C   6      79.162  52.718 114.0900  0.00  0.00     0.000 OA
ENDBRANCH 100 102
ENDBRANCH 95 99
ENDBRANCH 75 95
ENDBRANCH 74 78
ENDBRANCH 58 74
ENDBRANCH 57 61
ENDBRANCH 37 57
ENDBRANCH 36 40
ENDBRANCH 23 36
ENDBRANCH 22 26
ENDBRANCH 1 22
TORSDOF 20
ENDMDL
MODEL 91
REMARK VINA RESULT:       1.8     86.201     93.915
ROOT
ATOM      1  C1  NGY C   1      66.806  36.844 110.0230  0.00  0.00     0.000 C
ATOM      2  C2  NGY C   1      65.396  36.761 109.4550  0.00  0.00     0.000 C
ATOM      3  C3  NGY C   1      64.400  36.425 110.5610  0.00  0.00     0.000 C
ATOM      4  C4  NGY C   1      64.864  35.156 111.2500  0.00  0.00     0.000 C
ATOM      5  C5  NGY C   1      66.249  35.400 111.8430  0.00  0.00     0.000 C
ATOM      6  O5  NGY C   1      67.164  35.691 110.7550  0.00  0.00     0.000 O
ATOM      7   O  NGY C   1      63.105  36.283 109.9950  0.00  0.00     0.000 O
ATOM      9  HD  NGY C   1      62.760  35.974 109.2630  0.00  0.00     0.000 HD
ATOM      9   O  NGY C   1      63.956  34.771 112.2720  0.00  0.00     0.000 O
ATOM     11  HD  NGY C   1      63.611  34.462 111.5400  0.00  0.00     0.000 HD
ENDROOT
BRANCH 2 13
ATOM     11   N  NGY C   1      65.490  37.304 108.1210  0.00  0.00     0.000 N
ATOM     13  HD  NGY C   1      64.733  37.725 108.0940  0.00  0.00     0.000 HD
ATOM     13   C  NGY C   1      64.519  38.056 107.6030  0.00  0.00     0.000 C
ATOM     14   O  NGY C   1      63.443  38.198 108.1870  0.00  0.00     0.000 OA
ATOM     15   C  NGY C   1      64.815  38.733 106.3000  0.00  0.00     0.000 C
ENDBRANCH 2 13
BRANCH 5 16
ATOM     16   C  NGY C   1      66.842  34.235 112.5690  0.00  0.00     0.000 C
ATOM     17   O  NGY C   1      70.016  32.644 111.6440  0.00  0.00     0.000 OA
ATOM     18   O  NGY C   1      67.954  33.742 111.8170  0.00  0.00     0.000 O
ATOM     19   S  NGY C   1      68.963  32.835 112.6090  0.00  0.00     0.000 S
ATOM     20   O  NGY C   1      68.277  31.609 112.9220  0.00  0.00     0.000 OA
ATOM     21   O  NGY C   1      69.316  33.618 113.7820  0.00  0.00     0.000 OA
ENDBRANCH 5 16
BRANCH 1 22
ATOM     22  O4  BDP C   2      66.916  37.976 110.7500  0.00  0.00     0.000 O
BRANCH 22 26
ATOM     23  C1  BDP C   2      69.116  41.133 112.2200  0.00  0.00     0.000 C
ATOM     24  C2  BDP C   2      69.035  41.042 110.7140  0.00  0.00     0.000 C
ATOM     25  C3  BDP C   2      67.931  40.095 110.3230  0.00  0.00     0.000 C
ATOM     26  C4  BDP C   2      68.110  38.754 111.0270  0.00  0.00     0.000 C
ATOM     27  C5  BDP C   2      68.357  38.979 112.5130  0.00  0.00     0.000 C
ATOM     28  O5  BDP C   2      69.497  39.840 112.7670  0.00  0.00     0.000 O
ATOM     29   O  BDP C   2      68.648  42.278 110.1140  0.00  0.00     0.000 O
ATOM     31  HD  BDP C   2      68.142  42.226 109.4130  0.00  0.00     0.000 HD
ATOM     31   O  BDP C   2      68.014  39.923 108.9140  0.00  0.00     0.000 O
ATOM     33  HD  BDP C   2      67.508  39.871 108.2130  0.00  0.00     0.000 HD
BRANCH 27 33
ATOM     33   C  BDP C   2      68.640  37.694 113.2520  0.00  0.00     0.000 C
ATOM     34   O  BDP C   2      68.030  37.382 114.3030  0.00  0.00     0.000 OA
ATOM     35   O  BDP C   2      69.516  36.959 112.8250  0.00  0.00     0.000 OA
ENDBRANCH 27 33
BRANCH 23 36
ATOM     36  O4  SGN C   3      69.985  42.053 112.6990  0.00  0.00     0.000 O
BRANCH 36 40
ATOM     37  C1  SGN C   3      70.761  44.772 115.7710  0.00  0.00     0.000 C
ATOM     38  C2  SGN C   3      71.116  43.296 116.0160  0.00  0.00     0.000 C
ATOM     39  C3  SGN C   3      71.189  42.540 114.6980  0.00  0.00     0.000 C
ATOM     40  C4  SGN C   3      69.873  42.703 113.9680  0.00  0.00     0.000 C
ATOM     41  C5  SGN C   3      69.593  44.179 113.7910  0.00  0.00     0.000 C
ATOM     42  O5  SGN C   3      69.524  44.817 115.0750  0.00  0.00     0.000 O
ATOM     43   O  SGN C   3      71.459  41.168 114.9590  0.00  0.00     0.000 O
ATOM     45  HD  SGN C   3      71.023  41.246 114.2150  0.00  0.00     0.000 HD
BRANCH 38 47
ATOM     45   N  SGN C   3      71.026  43.819 117.3910  0.00  0.00     0.000 N
ATOM     47  HD  SGN C   3      70.630  43.638 116.6420  0.00  0.00     0.000 HD
ATOM     47   S  SGN C   3      72.303  43.441 118.2590  0.00  0.00     0.000 S
ATOM     48   O  SGN C   3      72.384  42.040 118.4770  0.00  0.00     0.000 OA
ATOM     49   O  SGN C   3      73.423  44.057 117.6270  0.00  0.00     0.000 OA
ATOM     50   O  SGN C   3      71.991  44.075 119.5390  0.00  0.00     0.000 OA
ENDBRANCH 38 47
BRANCH 41 51
ATOM     51   C  SGN C   3      68.308  44.480 113.0690  0.00  0.00     0.000 C
ATOM     52   O  SGN C   3      67.916  46.119 109.7470  0.00  0.00     0.000 OA
ATOM     53   O  SGN C   3      66.594  44.402 110.7640  0.00  0.00     0.000 OA
ATOM     54   O  SGN C   3      66.689  46.598 111.7310  0.00  0.00     0.000 OA
ATOM     55   O  SGN C   3      68.611  45.060 111.8200  0.00  0.00     0.000 O
ATOM     56   S  SGN C   3      67.332  45.596 110.9340  0.00  0.00     0.000 S
ENDBRANCH 41 51
BRANCH 37 57
ATOM     57  O4  IDS C   4      71.678  45.462 115.0500  0.00  0.00     0.000 O
BRANCH 57 61
ATOM     58  C1  IDS C   4      74.265  48.199 114.5140  0.00  0.00     0.000 C
ATOM     59  C2  IDS C   4      74.403  47.303 115.7040  0.00  0.00     0.000 C
ATOM     60  C3  IDS C   4      73.060  46.989 116.3670  0.00  0.00     0.000 C
ATOM     61  C4  IDS C   4      71.862  46.836 115.4400  0.00  0.00     0.000 C
ATOM     62  C5  IDS C   4      72.008  47.740 114.2100  0.00  0.00     0.000 C
ATOM     63  O5  IDS C   4      73.302  47.642 113.6350  0.00  0.00     0.000 O
ATOM     64   O  IDS C   4      72.812  48.075 117.2400  0.00  0.00     0.000 O
ATOM     66  HD  IDS C   4      72.131  48.534 116.9670  0.00  0.00     0.000 HD
BRANCH 59 66
ATOM     66   O  IDS C   4      75.003  46.006 115.3390  0.00  0.00     0.000 O
ATOM     67   S  IDS C   4      76.515  45.774 115.7790  0.00  0.00     0.000 S
ATOM     68   O  IDS C   4      76.441  45.774 117.2210  0.00  0.00     0.000 OA
ATOM     69   O  IDS C   4      76.885  44.503 115.1870  0.00  0.00     0.000 OA
ATOM     70   O  IDS C   4      77.286  46.902 115.2810  0.00  0.00     0.000 OA
ENDBRANCH 59 66
BRANCH 62 71
ATOM     71   C  IDS C   4      71.038  47.391 113.0970  0.00  0.00     0.000 C
ATOM     72   O  IDS C   4      71.448  46.908 112.0590  0.00  0.00     0.000 OA
ATOM     73   O  IDS C   4      69.839  47.706 113.2340  0.00  0.00     0.000 OA
ENDBRANCH 62 71
BRANCH 58 74
ATOM     74  O4  SGN C   5      74.214  49.531 114.8000  0.00  0.00     0.000 O
BRANCH 74 78
ATOM     75  C1  SGN C   5      75.453  53.373 113.7280  0.00  0.00     0.000 C
ATOM     76  C2  SGN C   5      74.510  52.666 112.7370  0.00  0.00     0.000 C
ATOM     77  C3  SGN C   5      73.863  51.436 113.3860  0.00  0.00     0.000 C
ATOM     78  C4  SGN C   5      74.895  50.565 114.0890  0.00  0.00     0.000 C
ATOM     79  C5  SGN C   5      75.715  51.420 115.0430  0.00  0.00     0.000 C
ATOM     80  O5  SGN C   5      76.390  52.468 114.2980  0.00  0.00     0.000 O
ATOM     81   O  SGN C   5      73.179  50.691 112.3840  0.00  0.00     0.000 O
ATOM     83  HD  SGN C   5      72.759  51.081 111.7350  0.00  0.00     0.000 HD
BRANCH 76 85
ATOM     83   N  SGN C   5      74.557  53.954 112.0320  0.00  0.00     0.000 N
ATOM     85  HD  SGN C   5      74.196  54.693 111.7610  0.00  0.00     0.000 HD
ATOM     85   S  SGN C   5      73.453  54.639 111.0800  0.00  0.00     0.000 S
ATOM     86   O  SGN C   5      73.898  55.917 110.6430  0.00  0.00     0.000 OA
ATOM     87   O  SGN C   5      73.120  53.693 110.0760  0.00  0.00     0.000 OA
ATOM     88   O  SGN C   5      72.376  54.783 112.1530  0.00  0.00     0.000 OA
ENDBRANCH 76 85
BRANCH 79 89
ATOM     89   C  SGN C   5      76.759  50.635 115.8120  0.00  0.00     0.000 C
ATOM     90   O  SGN C   5      77.818  50.219 114.9150  0.00  0.00     0.000 O
ATOM     91   S  SGN C   5      79.289  50.095 115.5440  0.00  0.00     0.000 S
ATOM     92   O  SGN C   5      79.558  51.349 116.1970  0.00  0.00     0.000 OA
ATOM     93   O  SGN C   5      79.264  48.988 116.4660  0.00  0.00     0.000 OA
ATOM     94   O  SGN C   5      80.121  49.858 114.3950  0.00  0.00     0.000 OA
ENDBRANCH 79 89
BRANCH 75 95
ATOM     95  O4  BDP C   6      74.649  53.879 114.7100  0.00  0.00     0.000 O
BRANCH 95 99
ATOM     96  C1  BDP C   6      75.245  57.348 117.1710  0.00  0.00     0.000 C
ATOM     97  C2  BDP C   6      75.914  57.294 115.8260  0.00  0.00     0.000 C
ATOM     98  C3  BDP C   6      75.348  56.224 114.8800  0.00  0.00     0.000 C
ATOM     99  C4  BDP C   6      75.229  54.877 115.5780  0.00  0.00     0.000 C
ATOM    100  C5  BDP C   6      74.492  55.098 116.9200  0.00  0.00     0.000 C
ATOM    101  O5  BDP C   6      75.346  56.012 117.6260  0.00  0.00     0.000 O
BRANCH 100 102
ATOM    102   C  BDP C   6      74.385  53.836 117.7380  0.00  0.00     0.000 C
ATOM    103   O  BDP C   6      73.383  53.107 117.7020  0.00  0.00     0.000 OA
ATOM    104   O  BDP C   6      75.355  53.546 118.4480  0.00  0.00     0.000 OA
ENDBRANCH 100 102
ENDBRANCH 95 99
ENDBRANCH 75 95
ENDBRANCH 74 78
ENDBRANCH 58 74
ENDBRANCH 57 61
ENDBRANCH 37 57
ENDBRANCH 36 40
ENDBRANCH 23 36
ENDBRANCH 22 26
ENDBRANCH 1 22
TORSDOF 20
ENDMDL
MODEL 92
REMARK VINA RESULT:       1.8    111.627    117.755
ROOT
ATOM      1  C1  NGY C   1      86.042  94.597  73.8980  0.00  0.00     0.000 C
ATOM      2  C2  NGY C   1      86.630  94.001  72.6260  0.00  0.00     0.000 C
ATOM      3  C3  NGY C   1      85.933  94.583  71.4000  0.00  0.00     0.000 C
ATOM      4  C4  NGY C   1      84.440  94.365  71.5520  0.00  0.00     0.000 C
ATOM      5  C5  NGY C   1      83.968  95.078  72.8160  0.00  0.00     0.000 C
ATOM      6  O5  NGY C   1      84.637  94.477  73.9550  0.00  0.00     0.000 O
ATOM      7   O  NGY C   1      86.447  93.959  70.2310  0.00  0.00     0.000 O
ATOM      9  HD  NGY C   1      86.721  93.172  69.9970  0.00  0.00     0.000 HD
ATOM      9   O  NGY C   1      83.736  94.857  70.4210  0.00  0.00     0.000 O
ATOM     11  HD  NGY C   1      84.010  94.069  70.1870  0.00  0.00     0.000 HD
ENDROOT
BRANCH 2 13
ATOM     11   N  NGY C   1      88.012  93.928  73.0360  0.00  0.00     0.000 N
ATOM     13  HD  NGY C   1      88.327  93.475  72.3690  0.00  0.00     0.000 HD
ATOM     13   C  NGY C   1      88.926  93.298  72.3000  0.00  0.00     0.000 C
ATOM     14   O  NGY C   1      88.603  92.631  71.3160  0.00  0.00     0.000 OA
ATOM     15   C  NGY C   1      90.356  93.466  72.7160  0.00  0.00     0.000 C
ENDBRANCH 2 13
BRANCH 5 16
ATOM     16   C  NGY C   1      82.504  94.963  73.1010  0.00  0.00     0.000 C
ATOM     17   O  NGY C   1      81.105  93.053  75.9030  0.00  0.00     0.000 OA
ATOM     18   O  NGY C   1      82.310  93.980  74.1210  0.00  0.00     0.000 O
ATOM     19   S  NGY C   1      80.926  94.034  74.8630  0.00  0.00     0.000 S
ATOM     20   O  NGY C   1      79.918  93.645  73.9110  0.00  0.00     0.000 OA
ATOM     21   O  NGY C   1      80.803  95.412  75.3080  0.00  0.00     0.000 OA
ENDBRANCH 5 16
BRANCH 1 22
ATOM     22  O4  BDP C   2      86.460  95.875  74.0120  0.00  0.00     0.000 O
BRANCH 22 26
ATOM     23  C1  BDP C   2      87.952  98.908  76.3660  0.00  0.00     0.000 C
ATOM     24  C2  BDP C   2      88.440  97.520  76.7070  0.00  0.00     0.000 C
ATOM     25  C3  BDP C   2      88.123  96.579  75.5740  0.00  0.00     0.000 C
ATOM     26  C4  BDP C   2      86.641  96.657  75.2220  0.00  0.00     0.000 C
ATOM     27  C5  BDP C   2      86.222  98.114  75.0720  0.00  0.00     0.000 C
ATOM     28  O5  BDP C   2      86.501  98.902  76.2570  0.00  0.00     0.000 O
ATOM     29   O  BDP C   2      89.862  97.453  76.8120  0.00  0.00     0.000 O
ATOM     31  HD  BDP C   2      90.238  96.724  76.5340  0.00  0.00     0.000 HD
ATOM     31   O  BDP C   2      88.451  95.269  76.0210  0.00  0.00     0.000 O
ATOM     33  HD  BDP C   2      88.826  94.540  75.7430  0.00  0.00     0.000 HD
BRANCH 27 33
ATOM     33   C  BDP C   2      84.741  98.265  74.8180  0.00  0.00     0.000 C
ATOM     34   O  BDP C   2      84.282  99.152  74.0600  0.00  0.00     0.000 OA
ATOM     35   O  BDP C   2      83.973  97.517  75.4010  0.00  0.00     0.000 OA
ENDBRANCH 27 33
BRANCH 23 36
ATOM     36  O4  SGN C   3      88.293  99.875  77.2480  0.00  0.00     0.000 O
BRANCH 36 40
ATOM     37  C1  SGN C   3      89.008 103.954  77.7780  0.00  0.00     0.000 C
ATOM     38  C2  SGN C   3      87.544 103.486  77.7340  0.00  0.00     0.000 C
ATOM     39  C3  SGN C   3      87.458 101.986  77.9770  0.00  0.00     0.000 C
ATOM     40  C4  SGN C   3      88.323 101.275  76.9580  0.00  0.00     0.000 C
ATOM     41  C5  SGN C   3      89.734 101.813  77.0560  0.00  0.00     0.000 C
ATOM     42  O5  SGN C   3      89.733 103.226  76.8000  0.00  0.00     0.000 O
ATOM     43   O  SGN C   3      86.102 101.571  77.8720  0.00  0.00     0.000 O
ATOM     45  HD  SGN C   3      86.628 100.915  77.6670  0.00  0.00     0.000 HD
BRANCH 38 47
ATOM     45   N  SGN C   3      87.423 104.920  77.4200  0.00  0.00     0.000 N
ATOM     47  HD  SGN C   3      87.720 104.138  77.1970  0.00  0.00     0.000 HD
ATOM     47   S  SGN C   3      86.320 105.636  78.3120  0.00  0.00     0.000 S
ATOM     48   O  SGN C   3      85.018 105.154  78.0130  0.00  0.00     0.000 OA
ATOM     49   O  SGN C   3      86.750 105.518  79.6670  0.00  0.00     0.000 OA
ATOM     50   O  SGN C   3      86.404 107.016  77.8380  0.00  0.00     0.000 OA
ENDBRANCH 38 47
BRANCH 41 51
ATOM     51   C  SGN C   3      90.701 101.181  76.0930  0.00  0.00     0.000 C
ATOM     52   O  SGN C   3      93.396  98.733  76.8820  0.00  0.00     0.000 OA
ATOM     53   O  SGN C   3      92.031  98.918  74.9240  0.00  0.00     0.000 OA
ATOM     54   O  SGN C   3      93.578 100.662  75.4990  0.00  0.00     0.000 OA
ATOM     55   O  SGN C   3      91.521 100.276  76.7980  0.00  0.00     0.000 O
ATOM     56   S  SGN C   3      92.746  99.584  75.9450  0.00  0.00     0.000 S
ENDBRANCH 41 51
BRANCH 37 57
ATOM     57  O4  IDS C   4      89.621 103.783  78.9750  0.00  0.00     0.000 O
BRANCH 57 61
ATOM     58  C1  IDS C   4      91.410 104.995  82.1060  0.00  0.00     0.000 C
ATOM     59  C2  IDS C   4      90.122 105.649  81.7160  0.00  0.00     0.000 C
ATOM     60  C3  IDS C   4      90.000 105.861  80.2050  0.00  0.00     0.000 C
ATOM     61  C4  IDS C   4      90.601 104.782  79.3150  0.00  0.00     0.000 C
ATOM     62  C5  IDS C   4      91.825 104.145  79.9840  0.00  0.00     0.000 C
ATOM     63  O5  IDS C   4      91.570 103.812  81.3410  0.00  0.00     0.000 O
ATOM     64   O  IDS C   4      90.672 107.079  79.9450  0.00  0.00     0.000 O
ATOM     66  HD  IDS C   4      91.387 106.937  79.4770  0.00  0.00     0.000 HD
BRANCH 59 66
ATOM     66   O  IDS C   4      88.958 104.837  82.1200  0.00  0.00     0.000 O
ATOM     67   S  IDS C   4      88.072 105.409  83.3110  0.00  0.00     0.000 S
ATOM     68   O  IDS C   4      87.524 106.624  82.7590  0.00  0.00     0.000 OA
ATOM     69   O  IDS C   4      87.100 104.370  83.5860  0.00  0.00     0.000 OA
ATOM     70   O  IDS C   4      88.970 105.683  84.4230  0.00  0.00     0.000 OA
ENDBRANCH 59 66
BRANCH 62 71
ATOM     71   C  IDS C   4      92.259 102.852  79.3210  0.00  0.00     0.000 C
ATOM     72   O  IDS C   4      92.047 101.785  79.8650  0.00  0.00     0.000 OA
ATOM     73   O  IDS C   4      92.923 102.918  78.2670  0.00  0.00     0.000 OA
ENDBRANCH 62 71
BRANCH 58 74
ATOM     74  O4  SGN C   5      92.467 105.845  82.2470  0.00  0.00     0.000 O
BRANCH 74 78
ATOM     75  C1  SGN C   5      95.841 106.866  84.4870  0.00  0.00     0.000 C
ATOM     76  C2  SGN C   5      95.898 105.509  83.7590  0.00  0.00     0.000 C
ATOM     77  C3  SGN C   5      94.777 105.405  82.7170  0.00  0.00     0.000 C
ATOM     78  C4  SGN C   5      93.430 105.813  83.2990  0.00  0.00     0.000 C
ATOM     79  C5  SGN C   5      93.554 107.181  83.9530  0.00  0.00     0.000 C
ATOM     80  O5  SGN C   5      94.546 107.125  85.0130  0.00  0.00     0.000 O
ATOM     81   O  SGN C   5      94.725 104.070  82.2260  0.00  0.00     0.000 O
ATOM     83  HD  SGN C   5      95.444 103.603  82.1030  0.00  0.00     0.000 HD
BRANCH 76 85
ATOM     83   N  SGN C   5      97.243 105.360  84.3280  0.00  0.00     0.000 N
ATOM     85  HD  SGN C   5      98.107 105.400  84.2770  0.00  0.00     0.000 HD
ATOM     85   S  SGN C   5      98.578 104.761  83.6550  0.00  0.00     0.000 S
ATOM     86   O  SGN C   5      99.673 104.850  84.5580  0.00  0.00     0.000 OA
ATOM     87   O  SGN C   5      98.254 103.472  83.1570  0.00  0.00     0.000 OA
ATOM     88   O  SGN C   5      98.698 105.816  82.5580  0.00  0.00     0.000 OA
ENDBRANCH 76 85
BRANCH 79 89
ATOM     89   C  SGN C   5      92.254 107.688  84.5450  0.00  0.00     0.000 C
ATOM     90   O  SGN C   5      91.922 106.920  85.7280  0.00  0.00     0.000 O
ATOM     91   S  SGN C   5      91.120 107.691  86.8850  0.00  0.00     0.000 S
ATOM     92   O  SGN C   5      91.872 108.884  87.1740  0.00  0.00     0.000 OA
ATOM     93   O  SGN C   5      89.806 107.978  86.3710  0.00  0.00     0.000 OA
ATOM     94   O  SGN C   5      91.112 106.744  87.9670  0.00  0.00     0.000 OA
ENDBRANCH 79 89
BRANCH 75 95
ATOM     95  O4  BDP C   6      96.151 107.807  83.5460  0.00  0.00     0.000 O
BRANCH 95 99
ATOM     96  C1  BDP C   6      98.152 111.590  83.9010  0.00  0.00     0.000 C
ATOM     97  C2  BDP C   6      98.625 110.441  84.7470  0.00  0.00     0.000 C
ATOM     98  C3  BDP C   6      98.122 109.065  84.2850  0.00  0.00     0.000 C
ATOM     99  C4  BDP C   6      96.622 109.083  84.0310  0.00  0.00     0.000 C
ATOM    100  C5  BDP C   6      96.305 110.294  83.1230  0.00  0.00     0.000 C
ATOM    101  O5  BDP C   6      96.747 111.420  83.8990  0.00  0.00     0.000 O
BRANCH 100 102
ATOM    102   C  BDP C   6      94.828 110.458  82.8660  0.00  0.00     0.000 C
ATOM    103   O  BDP C   6      94.013 110.636  83.7830  0.00  0.00     0.000 OA
ATOM    104   O  BDP C   6      94.458 110.420  81.6870  0.00  0.00     0.000 OA
ENDBRANCH 100 102
ENDBRANCH 95 99
ENDBRANCH 75 95
ENDBRANCH 74 78
ENDBRANCH 58 74
ENDBRANCH 57 61
ENDBRANCH 37 57
ENDBRANCH 36 40
ENDBRANCH 23 36
ENDBRANCH 22 26
ENDBRANCH 1 22
TORSDOF 20
ENDMDL
MODEL 93
REMARK VINA RESULT:       1.8    104.918    110.915
ROOT
ATOM      1  C1  NGY C   1      32.895  96.986 116.3070  0.00  0.00     0.000 C
ATOM      2  C2  NGY C   1      34.301  96.512 116.6490  0.00  0.00     0.000 C
ATOM      3  C3  NGY C   1      34.307  95.005 116.8850  0.00  0.00     0.000 C
ATOM      4  C4  NGY C   1      33.272  94.686 117.9470  0.00  0.00     0.000 C
ATOM      5  C5  NGY C   1      31.902  95.135 117.4460  0.00  0.00     0.000 C
ATOM      6  O5  NGY C   1      31.937  96.574 117.2590  0.00  0.00     0.000 O
ATOM      7   O  NGY C   1      35.612  94.599 117.2730  0.00  0.00     0.000 O
ATOM      9  HD  NGY C   1      36.264  94.917 117.7470  0.00  0.00     0.000 HD
ATOM      9   O  NGY C   1      33.254  93.295 118.2370  0.00  0.00     0.000 O
ATOM     11  HD  NGY C   1      33.905  93.613 118.7110  0.00  0.00     0.000 HD
ENDROOT
BRANCH 2 13
ATOM     11   N  NGY C   1      35.097  97.136 115.6180  0.00  0.00     0.000 N
ATOM     13  HD  NGY C   1      35.843  97.208 116.0510  0.00  0.00     0.000 HD
ATOM     13   C  NGY C   1      36.373  97.460 115.8220  0.00  0.00     0.000 C
ATOM     14   O  NGY C   1      36.882  97.371 116.9400  0.00  0.00     0.000 OA
ATOM     15   C  NGY C   1      37.153  97.905 114.6230  0.00  0.00     0.000 C
ENDBRANCH 2 13
BRANCH 5 16
ATOM     16   C  NGY C   1      30.767  94.877 118.3840  0.00  0.00     0.000 C
ATOM     17   O  NGY C   1      30.186  96.775 121.4700  0.00  0.00     0.000 OA
ATOM     18   O  NGY C   1      30.970  95.645 119.5740  0.00  0.00     0.000 O
ATOM     19   S  NGY C   1      29.698  95.859 120.4700  0.00  0.00     0.000 S
ATOM     20   O  NGY C   1      29.348  94.578 121.0260  0.00  0.00     0.000 OA
ATOM     21   O  NGY C   1      28.695  96.391 119.5620  0.00  0.00     0.000 OA
ENDBRANCH 5 16
BRANCH 1 22
ATOM     22  O4  BDP C   2      32.592  96.580 115.0560  0.00  0.00     0.000 O
BRANCH 22 26
ATOM     23  C1  BDP C   2      30.644  97.079 111.4610  0.00  0.00     0.000 C
ATOM     24  C2  BDP C   2      31.631  98.164 111.8210  0.00  0.00     0.000 C
ATOM     25  C3  BDP C   2      32.519  97.688 112.9410  0.00  0.00     0.000 C
ATOM     26  C4  BDP C   2      31.675  97.191 114.1100  0.00  0.00     0.000 C
ATOM     27  C5  BDP C   2      30.601  96.236 113.6030  0.00  0.00     0.000 C
ATOM     28  O5  BDP C   2      29.755  96.833 112.5870  0.00  0.00     0.000 O
ATOM     29   O  BDP C   2      32.546  98.441 110.7610  0.00  0.00     0.000 O
ATOM     31  HD  BDP C   2      33.356  98.643 110.9910  0.00  0.00     0.000 HD
ATOM     31   O  BDP C   2      33.306  98.801 113.3460  0.00  0.00     0.000 O
ATOM     33  HD  BDP C   2      34.116  99.003 113.5760  0.00  0.00     0.000 HD
BRANCH 27 33
ATOM     33   C  BDP C   2      29.668  95.782 114.6990  0.00  0.00     0.000 C
ATOM     34   O  BDP C   2      29.403  94.571 114.8890  0.00  0.00     0.000 OA
ATOM     35   O  BDP C   2      29.133  96.630 115.3940  0.00  0.00     0.000 OA
ENDBRANCH 27 33
BRANCH 23 36
ATOM     36  O4  SGN C   3      29.873  97.333 110.3780  0.00  0.00     0.000 O
BRANCH 36 40
ATOM     37  C1  SGN C   3      28.068  95.702 106.9850  0.00  0.00     0.000 C
ATOM     38  C2  SGN C   3      27.347  95.528 108.3320  0.00  0.00     0.000 C
ATOM     39  C3  SGN C   3      27.880  96.521 109.3540  0.00  0.00     0.000 C
ATOM     40  C4  SGN C   3      29.378  96.342 109.4740  0.00  0.00     0.000 C
ATOM     41  C5  SGN C   3      30.000  96.507 108.1050  0.00  0.00     0.000 C
ATOM     42  O5  SGN C   3      29.459  95.527 107.2050  0.00  0.00     0.000 O
ATOM     43   O  SGN C   3      27.238  96.297 110.6030  0.00  0.00     0.000 O
ATOM     45  HD  SGN C   3      28.024  96.639 110.7320  0.00  0.00     0.000 HD
BRANCH 38 47
ATOM     45   N  SGN C   3      26.748  94.466 107.5040  0.00  0.00     0.000 N
ATOM     47  HD  SGN C   3      27.452  94.799 107.8810  0.00  0.00     0.000 HD
ATOM     47   S  SGN C   3      25.160  94.468 107.5870  0.00  0.00     0.000 S
ATOM     48   O  SGN C   3      24.709  94.122 108.8880  0.00  0.00     0.000 OA
ATOM     49   O  SGN C   3      24.726  95.725 107.0710  0.00  0.00     0.000 OA
ATOM     50   O  SGN C   3      24.814  93.369 106.6880  0.00  0.00     0.000 OA
ENDBRANCH 38 47
BRANCH 41 51
ATOM     51   C  SGN C   3      31.497  96.357 108.0870  0.00  0.00     0.000 C
ATOM     52   O  SGN C   3      33.490  93.864 106.1650  0.00  0.00     0.000 OA
ATOM     53   O  SGN C   3      34.024  96.125 106.7400  0.00  0.00     0.000 OA
ATOM     54   O  SGN C   3      33.772  94.462 108.4530  0.00  0.00     0.000 OA
ATOM     55   O  SGN C   3      31.840  95.324 107.1900  0.00  0.00     0.000 O
ATOM     56   S  SGN C   3      33.431  94.905 107.1330  0.00  0.00     0.000 S
ENDBRANCH 41 51
BRANCH 37 57
ATOM     57  O4  IDS C   4      27.880  96.908 106.3950  0.00  0.00     0.000 O
BRANCH 57 61
ATOM     58  C1  IDS C   4      26.669  99.207 103.6170  0.00  0.00     0.000 C
ATOM     59  C2  IDS C   4      25.715  98.207 104.1890  0.00  0.00     0.000 C
ATOM     60  C3  IDS C   4      26.374  96.855 104.4710  0.00  0.00     0.000 C
ATOM     61  C4  IDS C   4      27.816  96.888 104.9560  0.00  0.00     0.000 C
ATOM     62  C5  IDS C   4      28.564  98.085 104.3570  0.00  0.00     0.000 C
ATOM     63  O5  IDS C   4      27.807  99.283 104.4580  0.00  0.00     0.000 O
ATOM     64   O  IDS C   4      26.333  96.157 103.2410  0.00  0.00     0.000 O
ATOM     66  HD  IDS C   4      27.134  96.046 102.9290  0.00  0.00     0.000 HD
BRANCH 59 66
ATOM     66   O  IDS C   4      25.147  98.671 105.4690  0.00  0.00     0.000 O
ATOM     67   S  IDS C   4      23.602  99.056 105.4630  0.00  0.00     0.000 S
ATOM     68   O  IDS C   4      22.952  97.798 105.1840  0.00  0.00     0.000 OA
ATOM     69   O  IDS C   4      23.347  99.595 106.7840  0.00  0.00     0.000 OA
ATOM     70   O  IDS C   4      23.402 100.014 104.3870  0.00  0.00     0.000 OA
ENDBRANCH 59 66
BRANCH 62 71
ATOM     71   C  IDS C   4      29.880  98.373 105.0540  0.00  0.00     0.000 C
ATOM     72   O  IDS C   4      30.830  97.630 104.8950  0.00  0.00     0.000 OA
ATOM     73   O  IDS C   4      29.929  99.319 105.8650  0.00  0.00     0.000 OA
ENDBRANCH 62 71
BRANCH 58 74
ATOM     74  O4  SGN C   5      26.843  99.129 102.2670  0.00  0.00     0.000 O
BRANCH 74 78
ATOM     75  C1  SGN C   5      27.294 101.231  98.6860  0.00  0.00     0.000 C
ATOM     76  C2  SGN C   5      28.516 101.223  99.6230  0.00  0.00     0.000 C
ATOM     77  C3  SGN C   5      28.355 100.158 100.7160  0.00  0.00     0.000 C
ATOM     78  C4  SGN C   5      26.986 100.237 101.3770  0.00  0.00     0.000 C
ATOM     79  C5  SGN C   5      25.903 100.207 100.3080  0.00  0.00     0.000 C
ATOM     80  O5  SGN C   5      26.076 101.337  99.4120  0.00  0.00     0.000 O
ATOM     81   O  SGN C   5      29.387 100.328 101.6820  0.00  0.00     0.000 O
ATOM     83  HD  SGN C   5      30.188 100.564 101.4540  0.00  0.00     0.000 HD
BRANCH 76 85
ATOM     83   N  SGN C   5      29.918 101.620  99.4420  0.00  0.00     0.000 N
ATOM     85  HD  SGN C   5      30.539 102.095  99.0700  0.00  0.00     0.000 HD
ATOM     85   S  SGN C   5      30.718 101.959  98.0860  0.00  0.00     0.000 S
ATOM     86   O  SGN C   5      32.055 102.343  98.3810  0.00  0.00     0.000 OA
ATOM     87   O  SGN C   5      30.541 100.858  97.2090  0.00  0.00     0.000 OA
ATOM     88   O  SGN C   5      29.882 103.176  97.7010  0.00  0.00     0.000 OA
ENDBRANCH 76 85
BRANCH 79 89
ATOM     89   C  SGN C   5      24.497 100.257 100.8710  0.00  0.00     0.000 C
ATOM     90   O  SGN C   5      23.956 101.592 100.7210  0.00  0.00     0.000 O
ATOM     91   S  SGN C   5      22.370 101.707 100.5070  0.00  0.00     0.000 S
ATOM     92   O  SGN C   5      22.043 100.835  99.4100  0.00  0.00     0.000 OA
ATOM     93   O  SGN C   5      21.746 101.299 101.7400  0.00  0.00     0.000 OA
ATOM     94   O  SGN C   5      22.177 103.100 100.2080  0.00  0.00     0.000 OA
ENDBRANCH 79 89
BRANCH 75 95
ATOM     95  O4  BDP C   6      27.329 100.039  98.0190  0.00  0.00     0.000 O
BRANCH 95 99
ATOM     96  C1  BDP C   6      26.095  98.967  94.0480  0.00  0.00     0.000 C
ATOM     97  C2  BDP C   6      26.804 100.275  94.2540  0.00  0.00     0.000 C
ATOM     98  C3  BDP C   6      27.533 100.396  95.6010  0.00  0.00     0.000 C
ATOM     99  C4  BDP C   6      26.633  99.979  96.7550  0.00  0.00     0.000 C
ATOM    100  C5  BDP C   6      26.012  98.606  96.4050  0.00  0.00     0.000 C
ATOM    101  O5  BDP C   6      25.277  98.867  95.1980  0.00  0.00     0.000 O
BRANCH 100 102
ATOM    102   C  BDP C   6      25.035  98.127  97.4490  0.00  0.00     0.000 C
ATOM    103   O  BDP C   6      23.954  98.697  97.6560  0.00  0.00     0.000 OA
ATOM    104   O  BDP C   6      25.354  97.120  98.0920  0.00  0.00     0.000 OA
ENDBRANCH 100 102
ENDBRANCH 95 99
ENDBRANCH 75 95
ENDBRANCH 74 78
ENDBRANCH 58 74
ENDBRANCH 57 61
ENDBRANCH 37 57
ENDBRANCH 36 40
ENDBRANCH 23 36
ENDBRANCH 22 26
ENDBRANCH 1 22
TORSDOF 20
ENDMDL
MODEL 94
REMARK VINA RESULT:       1.8     90.527     97.199
ROOT
ATOM      1  C1  NGY C   1      64.942  82.127  86.0330  0.00  0.00     0.000 C
ATOM      2  C2  NGY C   1      65.228  80.633  85.9700  0.00  0.00     0.000 C
ATOM      3  C3  NGY C   1      64.218  79.941  85.0600  0.00  0.00     0.000 C
ATOM      4  C4  NGY C   1      62.824  80.283  85.5490  0.00  0.00     0.000 C
ATOM      5  C5  NGY C   1      62.641  81.797  85.4850  0.00  0.00     0.000 C
ATOM      6  O5  NGY C   1      63.603  82.410  86.3810  0.00  0.00     0.000 O
ATOM      7   O  NGY C   1      64.460  78.541  85.0750  0.00  0.00     0.000 O
ATOM      9  HD  NGY C   1      64.710  77.944  85.6500  0.00  0.00     0.000 HD
ATOM      9   O  NGY C   1      61.835  79.638  84.7600  0.00  0.00     0.000 O
ATOM     11  HD  NGY C   1      62.085  79.041  85.3350  0.00  0.00     0.000 HD
ENDROOT
BRANCH 2 13
ATOM     11   N  NGY C   1      66.649  80.602  85.7180  0.00  0.00     0.000 N
ATOM     13  HD  NGY C   1      66.834  79.841  86.0870  0.00  0.00     0.000 HD
ATOM     13   C  NGY C   1      67.407  79.583  86.1200  0.00  0.00     0.000 C
ATOM     14   O  NGY C   1      66.952  78.698  86.8460  0.00  0.00     0.000 OA
ATOM     15   C  NGY C   1      68.821  79.560  85.6230  0.00  0.00     0.000 C
ENDBRANCH 2 13
BRANCH 5 16
ATOM     16   C  NGY C   1      61.302  82.295  85.9290  0.00  0.00     0.000 C
ATOM     17   O  NGY C   1      58.593  83.216  83.6340  0.00  0.00     0.000 OA
ATOM     18   O  NGY C   1      60.581  82.758  84.7850  0.00  0.00     0.000 O
ATOM     19   S  NGY C   1      59.027  82.896  84.9700  0.00  0.00     0.000 S
ATOM     20   O  NGY C   1      58.802  83.977  85.8930  0.00  0.00     0.000 OA
ATOM     21   O  NGY C   1      58.603  81.601  85.4780  0.00  0.00     0.000 OA
ENDBRANCH 5 16
BRANCH 1 22
ATOM     22  O4  BDP C   2      65.304  82.689  84.8600  0.00  0.00     0.000 O
BRANCH 22 26
ATOM     23  C1  BDP C   2      66.798  85.850  82.6840  0.00  0.00     0.000 C
ATOM     24  C2  BDP C   2      67.660  85.388  83.8350  0.00  0.00     0.000 C
ATOM     25  C3  BDP C   2      67.197  84.033  84.3020  0.00  0.00     0.000 C
ATOM     26  C4  BDP C   2      65.703  84.062  84.6060  0.00  0.00     0.000 C
ATOM     27  C5  BDP C   2      64.952  84.707  83.4480  0.00  0.00     0.000 C
ATOM     28  O5  BDP C   2      65.431  86.043  83.1450  0.00  0.00     0.000 O
ATOM     29   O  BDP C   2      69.015  85.165  83.4450  0.00  0.00     0.000 O
ATOM     31  HD  BDP C   2      69.426  84.506  83.8300  0.00  0.00     0.000 HD
ATOM     31   O  BDP C   2      67.930  83.730  85.4820  0.00  0.00     0.000 O
ATOM     33  HD  BDP C   2      68.340  83.071  85.8670  0.00  0.00     0.000 HD
BRANCH 27 33
ATOM     33   C  BDP C   2      63.476  84.855  83.7280  0.00  0.00     0.000 C
ATOM     34   O  BDP C   2      63.047  85.327  84.8080  0.00  0.00     0.000 OA
ATOM     35   O  BDP C   2      62.684  84.468  82.8850  0.00  0.00     0.000 OA
ENDBRANCH 27 33
BRANCH 23 36
ATOM     36  O4  SGN C   3      67.194  86.999  82.0880  0.00  0.00     0.000 O
BRANCH 36 40
ATOM     37  C1  SGN C   3      67.695  88.985  78.4510  0.00  0.00     0.000 C
ATOM     38  C2  SGN C   3      66.290  88.981  79.0740  0.00  0.00     0.000 C
ATOM     39  C3  SGN C   3      66.364  88.620  80.5510  0.00  0.00     0.000 C
ATOM     40  C4  SGN C   3      67.064  87.286  80.6930  0.00  0.00     0.000 C
ATOM     41  C5  SGN C   3      68.423  87.374  80.0350  0.00  0.00     0.000 C
ATOM     42  O5  SGN C   3      68.268  87.701  78.6450  0.00  0.00     0.000 O
ATOM     43   O  SGN C   3      65.048  88.566  81.0870  0.00  0.00     0.000 O
ATOM     45  HD  SGN C   3      65.571  88.041  81.5350  0.00  0.00     0.000 HD
BRANCH 38 47
ATOM     45   N  SGN C   3      65.071  89.146  78.2620  0.00  0.00     0.000 N
ATOM     47  HD  SGN C   3      65.491  88.715  78.8850  0.00  0.00     0.000 HD
ATOM     47   S  SGN C   3      65.046  90.540  77.4990  0.00  0.00     0.000 S
ATOM     48   O  SGN C   3      64.948  91.626  78.4090  0.00  0.00     0.000 OA
ATOM     49   O  SGN C   3      66.166  90.543  76.6160  0.00  0.00     0.000 OA
ATOM     50   O  SGN C   3      63.784  90.456  76.7680  0.00  0.00     0.000 OA
ENDBRANCH 38 47
BRANCH 41 51
ATOM     51   C  SGN C   3      69.227  86.105  80.1110  0.00  0.00     0.000 C
ATOM     52   O  SGN C   3      68.077  82.654  79.3110  0.00  0.00     0.000 OA
ATOM     53   O  SGN C   3      70.233  83.649  79.0110  0.00  0.00     0.000 OA
ATOM     54   O  SGN C   3      69.333  83.336  81.2150  0.00  0.00     0.000 OA
ATOM     55   O  SGN C   3      68.426  85.030  79.6740  0.00  0.00     0.000 O
ATOM     56   S  SGN C   3      69.080  83.527  79.8180  0.00  0.00     0.000 S
ENDBRANCH 41 51
BRANCH 37 57
ATOM     57  O4  IDS C   4      68.541  89.909  78.9690  0.00  0.00     0.000 O
BRANCH 57 61
ATOM     58  C1  IDS C   4      70.616  92.978  78.1030  0.00  0.00     0.000 C
ATOM     59  C2  IDS C   4      69.451  92.630  77.2320  0.00  0.00     0.000 C
ATOM     60  C3  IDS C   4      69.319  91.123  76.9940  0.00  0.00     0.000 C
ATOM     61  C4  IDS C   4      69.692  90.215  78.1580  0.00  0.00     0.000 C
ATOM     62  C5  IDS C   4      70.806  90.845  79.0030  0.00  0.00     0.000 C
ATOM     63  O5  IDS C   4      70.541  92.210  79.2920  0.00  0.00     0.000 O
ATOM     64   O  IDS C   4      70.185  90.839  75.9120  0.00  0.00     0.000 O
ATOM     66  HD  IDS C   4      70.848  90.348  76.1750  0.00  0.00     0.000 HD
BRANCH 59 66
ATOM     66   O  IDS C   4      68.176  93.072  77.8290  0.00  0.00     0.000 O
ATOM     67   S  IDS C   4      67.419  94.260  77.0880  0.00  0.00     0.000 S
ATOM     68   O  IDS C   4      67.069  93.681  75.8130  0.00  0.00     0.000 OA
ATOM     69   O  IDS C   4      66.293  94.577  77.9440  0.00  0.00     0.000 OA
ATOM     70   O  IDS C   4      68.370  95.350  76.9390  0.00  0.00     0.000 OA
ENDBRANCH 59 66
BRANCH 62 71
ATOM     71   C  IDS C   4      70.985  90.169  80.3490  0.00  0.00     0.000 C
ATOM     72   O  IDS C   4      71.465  89.054  80.4130  0.00  0.00     0.000 OA
ATOM     73   O  IDS C   4      70.535  90.739  81.3640  0.00  0.00     0.000 OA
ENDBRANCH 62 71
BRANCH 58 74
ATOM     74  O4  SGN C   5      71.809  93.083  77.4520  0.00  0.00     0.000 O
BRANCH 74 78
ATOM     75  C1  SGN C   5      75.279  95.337  76.8860  0.00  0.00     0.000 C
ATOM     76  C2  SGN C   5      75.216  94.509  78.1830  0.00  0.00     0.000 C
ATOM     77  C3  SGN C   5      74.079  93.481  78.1150  0.00  0.00     0.000 C
ATOM     78  C4  SGN C   5      72.777  94.114  77.6430  0.00  0.00     0.000 C
ATOM     79  C5  SGN C   5      73.021  94.867  76.3430  0.00  0.00     0.000 C
ATOM     80  O5  SGN C   5      74.016  95.902  76.5610  0.00  0.00     0.000 O
ATOM     81   O  SGN C   5      73.911  92.892  79.4010  0.00  0.00     0.000 O
ATOM     83  HD  SGN C   5      74.587  92.724  79.9150  0.00  0.00     0.000 HD
BRANCH 76 85
ATOM     83   N  SGN C   5      76.515  95.064  78.5850  0.00  0.00     0.000 N
ATOM     85  HD  SGN C   5      77.380  95.045  78.6160  0.00  0.00     0.000 HD
ATOM     85   S  SGN C   5      77.822  94.305  79.1400  0.00  0.00     0.000 S
ATOM     86   O  SGN C   5      78.877  95.232  79.3620  0.00  0.00     0.000 OA
ATOM     87   O  SGN C   5      77.411  93.518  80.2470  0.00  0.00     0.000 OA
ATOM     88   O  SGN C   5      78.085  93.483  77.8810  0.00  0.00     0.000 OA
ENDBRANCH 76 85
BRANCH 79 89
ATOM     89   C  SGN C   5      71.774  95.515  75.7770  0.00  0.00     0.000 C
ATOM     90   O  SGN C   5      71.902  95.653  74.3410  0.00  0.00     0.000 O
ATOM     91   S  SGN C   5      70.548  95.565  73.4840  0.00  0.00     0.000 S
ATOM     92   O  SGN C   5      69.894  94.346  73.8820  0.00  0.00     0.000 OA
ATOM     93   O  SGN C   5      69.770  96.735  73.8010  0.00  0.00     0.000 OA
ATOM     94   O  SGN C   5      71.017  95.547  72.1260  0.00  0.00     0.000 OA
ENDBRANCH 79 89
BRANCH 75 95
ATOM     95  O4  BDP C   6      75.657  94.464  75.9050  0.00  0.00     0.000 O
BRANCH 95 99
ATOM     96  C1  BDP C   6      78.020  95.158  72.3870  0.00  0.00     0.000 C
ATOM     97  C2  BDP C   6      78.257  96.018  73.5960  0.00  0.00     0.000 C
ATOM     98  C3  BDP C   6      77.658  95.462  74.8960  0.00  0.00     0.000 C
ATOM     99  C4  BDP C   6      76.210  95.037  74.7000  0.00  0.00     0.000 C
ATOM    100  C5  BDP C   6      76.142  94.135  73.4460  0.00  0.00     0.000 C
ATOM    101  O5  BDP C   6      76.615  94.988  72.3910  0.00  0.00     0.000 O
BRANCH 100 102
ATOM    102   C  BDP C   6      74.735  93.714  73.1070  0.00  0.00     0.000 C
ATOM    103   O  BDP C   6      74.244  92.652  73.5160  0.00  0.00     0.000 OA
ATOM    104   O  BDP C   6      74.074  94.488  72.4050  0.00  0.00     0.000 OA
ENDBRANCH 100 102
ENDBRANCH 95 99
ENDBRANCH 75 95
ENDBRANCH 74 78
ENDBRANCH 58 74
ENDBRANCH 57 61
ENDBRANCH 37 57
ENDBRANCH 36 40
ENDBRANCH 23 36
ENDBRANCH 22 26
ENDBRANCH 1 22
TORSDOF 20
ENDMDL
MODEL 95
REMARK VINA RESULT:       1.9     48.444     58.763
ROOT
ATOM      1  C1  NGY C   1      29.857  21.423  85.6620  0.00  0.00     0.000 C
ATOM      2  C2  NGY C   1      29.916  20.251  84.6910  0.00  0.00     0.000 C
ATOM      3  C3  NGY C   1      30.752  20.619  83.4700  0.00  0.00     0.000 C
ATOM      4  C4  NGY C   1      30.184  21.891  82.8700  0.00  0.00     0.000 C
ATOM      5  C5  NGY C   1      30.259  23.001  83.9140  0.00  0.00     0.000 C
ATOM      6  O5  NGY C   1      29.432  22.619  85.0440  0.00  0.00     0.000 O
ATOM      7   O  NGY C   1      30.732  19.539  82.5480  0.00  0.00     0.000 O
ATOM      9  HD  NGY C   1      30.165  18.943  82.2760  0.00  0.00     0.000 HD
ATOM      9   O  NGY C   1      30.902  22.268  81.7040  0.00  0.00     0.000 O
ATOM     11  HD  NGY C   1      30.335  21.673  81.4330  0.00  0.00     0.000 HD
ENDROOT
BRANCH 2 13
ATOM     11   N  NGY C   1      30.255  19.149  85.5590  0.00  0.00     0.000 N
ATOM     13  HD  NGY C   1      29.886  18.506  85.1110  0.00  0.00     0.000 HD
ATOM     13   C  NGY C   1      29.885  17.900  85.2790  0.00  0.00     0.000 C
ATOM     14   O  NGY C   1      29.118  17.657  84.3460  0.00  0.00     0.000 OA
ATOM     15   C  NGY C   1      30.468  16.817  86.1350  0.00  0.00     0.000 C
ENDBRANCH 2 13
BRANCH 5 16
ATOM     16   C  NGY C   1      29.741  24.331  83.4660  0.00  0.00     0.000 C
ATOM     17   O  NGY C   1      31.878  27.080  82.3130  0.00  0.00     0.000 OA
ATOM     18   O  NGY C   1      30.847  25.222  83.2970  0.00  0.00     0.000 O
ATOM     19   S  NGY C   1      30.566  26.495  82.4200  0.00  0.00     0.000 S
ATOM     20   O  NGY C   1      29.653  27.327  83.1590  0.00  0.00     0.000 OA
ATOM     21   O  NGY C   1      30.005  25.972  81.1850  0.00  0.00     0.000 OA
ENDBRANCH 5 16
BRANCH 1 22
ATOM     22  O4  BDP C   2      31.057  21.548  86.2650  0.00  0.00     0.000 O
BRANCH 22 26
ATOM     23  C1  BDP C   2      33.357  22.489  89.5500  0.00  0.00     0.000 C
ATOM     24  C2  BDP C   2      32.233  21.513  89.8020  0.00  0.00     0.000 C
ATOM     25  C3  BDP C   2      31.720  20.982  88.4890  0.00  0.00     0.000 C
ATOM     26  C4  BDP C   2      31.357  22.135  87.5590  0.00  0.00     0.000 C
ATOM     27  C5  BDP C   2      32.496  23.145  87.5190  0.00  0.00     0.000 C
ATOM     28  O5  BDP C   2      32.847  23.648  88.8340  0.00  0.00     0.000 O
ATOM     29   O  BDP C   2      32.673  20.341  90.4890  0.00  0.00     0.000 O
ATOM     31  HD  BDP C   2      32.291  19.596  90.2680  0.00  0.00     0.000 HD
ATOM     31   O  BDP C   2      30.564  20.207  88.7800  0.00  0.00     0.000 O
ATOM     33  HD  BDP C   2      30.182  19.461  88.5590  0.00  0.00     0.000 HD
BRANCH 27 33
ATOM     33   C  BDP C   2      32.160  24.362  86.6900  0.00  0.00     0.000 C
ATOM     34   O  BDP C   2      31.073  24.975  86.8180  0.00  0.00     0.000 OA
ATOM     35   O  BDP C   2      32.964  24.732  85.8500  0.00  0.00     0.000 OA
ENDBRANCH 27 33
BRANCH 23 36
ATOM     36  O4  SGN C   3      33.993  22.939  90.6570  0.00  0.00     0.000 O
BRANCH 36 40
ATOM     37  C1  SGN C   3      37.686  23.906  92.3470  0.00  0.00     0.000 C
ATOM     38  C2  SGN C   3      37.022  24.951  91.4360  0.00  0.00     0.000 C
ATOM     39  C3  SGN C   3      35.541  24.646  91.2670  0.00  0.00     0.000 C
ATOM     40  C4  SGN C   3      35.390  23.237  90.7360  0.00  0.00     0.000 C
ATOM     41  C5  SGN C   3      36.089  22.283  91.6780  0.00  0.00     0.000 C
ATOM     42  O5  SGN C   3      37.480  22.625  91.7720  0.00  0.00     0.000 O
ATOM     43   O  SGN C   3      34.966  25.592  90.3740  0.00  0.00     0.000 O
ATOM     45  HD  SGN C   3      34.522  24.849  90.3420  0.00  0.00     0.000 HD
BRANCH 38 47
ATOM     45   N  SGN C   3      37.236  26.221  92.1520  0.00  0.00     0.000 N
ATOM     47  HD  SGN C   3      36.804  25.473  92.0880  0.00  0.00     0.000 HD
ATOM     47   S  SGN C   3      38.594  26.927  91.7240  0.00  0.00     0.000 S
ATOM     48   O  SGN C   3      39.723  26.165  92.1250  0.00  0.00     0.000 OA
ATOM     49   O  SGN C   3      38.481  27.221  90.3330  0.00  0.00     0.000 OA
ATOM     50   O  SGN C   3      38.565  28.143  92.5360  0.00  0.00     0.000 OA
ENDBRANCH 38 47
BRANCH 41 51
ATOM     51   C  SGN C   3      36.008  20.839  91.2640  0.00  0.00     0.000 C
ATOM     52   O  SGN C   3      36.738  19.414  87.9000  0.00  0.00     0.000 OA
ATOM     53   O  SGN C   3      37.089  18.461  90.0680  0.00  0.00     0.000 OA
ATOM     54   O  SGN C   3      34.866  18.919  89.2860  0.00  0.00     0.000 OA
ATOM     55   O  SGN C   3      36.415  20.727  89.9180  0.00  0.00     0.000 O
ATOM     56   S  SGN C   3      36.261  19.241  89.2300  0.00  0.00     0.000 S
ENDBRANCH 41 51
BRANCH 37 57
ATOM     57  O4  IDS C   4      37.212  23.881  93.6170  0.00  0.00     0.000 O
BRANCH 57 61
ATOM     58  C1  IDS C   4      37.999  24.360  97.3080  0.00  0.00     0.000 C
ATOM     59  C2  IDS C   4      38.782  25.139  96.3000  0.00  0.00     0.000 C
ATOM     60  C3  IDS C   4      39.137  24.314  95.0600  0.00  0.00     0.000 C
ATOM     61  C4  IDS C   4      38.098  23.303  94.5950  0.00  0.00     0.000 C
ATOM     62  C5  IDS C   4      37.311  22.745  95.7860  0.00  0.00     0.000 C
ATOM     63  O5  IDS C   4      36.880  23.776  96.6620  0.00  0.00     0.000 O
ATOM     64   O  IDS C   4      40.318  23.614  95.4050  0.00  0.00     0.000 O
ATOM     66  HD  IDS C   4      40.163  22.763  95.4510  0.00  0.00     0.000 HD
BRANCH 59 66
ATOM     66   O  IDS C   4      38.030  26.314  95.8190  0.00  0.00     0.000 O
ATOM     67   S  IDS C   4      38.641  27.741  96.1700  0.00  0.00     0.000 S
ATOM     68   O  IDS C   4      39.886  27.754  95.4410  0.00  0.00     0.000 OA
ATOM     69   O  IDS C   4      37.652  28.694  95.7070  0.00  0.00     0.000 OA
ATOM     70   O  IDS C   4      38.861  27.773  97.6080  0.00  0.00     0.000 OA
ENDBRANCH 59 66
BRANCH 62 71
ATOM     71   C  IDS C   4      36.053  22.006  95.3740  0.00  0.00     0.000 C
ATOM     72   O  IDS C   4      36.133  20.935  94.8040  0.00  0.00     0.000 OA
ATOM     73   O  IDS C   4      34.952  22.569  95.5390  0.00  0.00     0.000 OA
ENDBRANCH 62 71
BRANCH 58 74
ATOM     74  O4  SGN C   5      38.748  23.602  98.1580  0.00  0.00     0.000 O
BRANCH 74 78
ATOM     75  C1  SGN C   5      39.045  21.986 101.9980  0.00  0.00     0.000 C
ATOM     76  C2  SGN C   5      38.314  21.120 100.9550  0.00  0.00     0.000 C
ATOM     77  C3  SGN C   5      38.567  21.649  99.5370  0.00  0.00     0.000 C
ATOM     78  C4  SGN C   5      38.347  23.153  99.4520  0.00  0.00     0.000 C
ATOM     79  C5  SGN C   5      39.162  23.846 100.5350  0.00  0.00     0.000 C
ATOM     80  O5  SGN C   5      38.742  23.366 101.8390  0.00  0.00     0.000 O
ATOM     81   O  SGN C   5      37.707  20.967  98.6290  0.00  0.00     0.000 O
ATOM     83  HD  SGN C   5      37.518  20.127  98.7270  0.00  0.00     0.000 HD
BRANCH 76 85
ATOM     83   N  SGN C   5      38.932  19.850 101.3550  0.00  0.00     0.000 N
ATOM     85  HD  SGN C   5      38.947  18.985 101.4020  0.00  0.00     0.000 HD
ATOM     85   S  SGN C   5      38.246  18.525 101.9630  0.00  0.00     0.000 S
ATOM     86   O  SGN C   5      39.221  17.509 102.1650  0.00  0.00     0.000 OA
ATOM     87   O  SGN C   5      37.488  18.927 103.0930  0.00  0.00     0.000 OA
ATOM     88   O  SGN C   5      37.385  18.209 100.7420  0.00  0.00     0.000 OA
ENDBRANCH 76 85
BRANCH 79 89
ATOM     89   C  SGN C   5      39.028  25.355 100.5170  0.00  0.00     0.000 C
ATOM     90   O  SGN C   5      37.665  25.730 100.8340  0.00  0.00     0.000 O
ATOM     91   S  SGN C   5      37.461  27.124 101.6040  0.00  0.00     0.000 S
ATOM     92   O  SGN C   5      38.321  27.079 102.7580  0.00  0.00     0.000 OA
ATOM     93   O  SGN C   5      37.825  28.172 100.6860  0.00  0.00     0.000 OA
ATOM     94   O  SGN C   5      36.061  27.117 101.9330  0.00  0.00     0.000 OA
ENDBRANCH 79 89
BRANCH 75 95
ATOM     95  O4  BDP C   6      40.379  21.781 101.7820  0.00  0.00     0.000 O
BRANCH 95 99
ATOM     96  C1  BDP C   6      43.725  21.735 104.4740  0.00  0.00     0.000 C
ATOM     97  C2  BDP C   6      42.446  21.071 104.9010  0.00  0.00     0.000 C
ATOM     98  C3  BDP C   6      41.458  20.803 103.7550  0.00  0.00     0.000 C
ATOM     99  C4  BDP C   6      41.265  22.041 102.8910  0.00  0.00     0.000 C
ATOM    100  C5  BDP C   6      42.664  22.580 102.5100  0.00  0.00     0.000 C
ATOM    101  O5  BDP C   6      43.267  22.880 103.7790  0.00  0.00     0.000 O
BRANCH 100 102
ATOM    102   C  BDP C   6      42.598  23.858 101.7130  0.00  0.00     0.000 C
ATOM    103   O  BDP C   6      42.946  23.916 100.5250  0.00  0.00     0.000 OA
ATOM    104   O  BDP C   6      42.163  24.858 102.2960  0.00  0.00     0.000 OA
ENDBRANCH 100 102
ENDBRANCH 95 99
ENDBRANCH 75 95
ENDBRANCH 74 78
ENDBRANCH 58 74
ENDBRANCH 57 61
ENDBRANCH 37 57
ENDBRANCH 36 40
ENDBRANCH 23 36
ENDBRANCH 22 26
ENDBRANCH 1 22
TORSDOF 20
ENDMDL
MODEL 96
REMARK VINA RESULT:       2.0     23.621     30.461
ROOT
ATOM      1  C1  NGY C   1       7.158  25.506  28.0250  0.00  0.00     0.000 C
ATOM      2  C2  NGY C   1       6.647  24.423  27.0850  0.00  0.00     0.000 C
ATOM      3  C3  NGY C   1       7.727  23.371  26.8540  0.00  0.00     0.000 C
ATOM      4  C4  NGY C   1       8.978  24.074  26.3640  0.00  0.00     0.000 C
ATOM      5  C5  NGY C   1       9.430  25.068  27.4300  0.00  0.00     0.000 C
ATOM      6  O5  NGY C   1       8.384  26.060  27.5980  0.00  0.00     0.000 O
ATOM      7   O  NGY C   1       7.252  22.413  25.9190  0.00  0.00     0.000 O
ATOM      9  HD  NGY C   1       6.759  22.407  25.2060  0.00  0.00     0.000 HD
ATOM      9   O  NGY C   1      10.015  23.139  26.0980  0.00  0.00     0.000 O
ATOM     11  HD  NGY C   1       9.522  23.134  25.3860  0.00  0.00     0.000 HD
ENDROOT
BRANCH 2 13
ATOM     11   N  NGY C   1       5.611  23.442  27.3130  0.00  0.00     0.000 N
ATOM     13  HD  NGY C   1       4.948  23.859  26.9430  0.00  0.00     0.000 HD
ATOM     13   C  NGY C   1       4.358  23.643  26.9070  0.00  0.00     0.000 C
ATOM     14   O  NGY C   1       4.003  24.731  26.4510  0.00  0.00     0.000 OA
ATOM     15   C  NGY C   1       3.423  22.477  27.0100  0.00  0.00     0.000 C
ENDBRANCH 2 13
BRANCH 5 16
ATOM     16   C  NGY C   1      10.667  25.839  27.0960  0.00  0.00     0.000 C
ATOM     17   O  NGY C   1      13.648  25.956  29.2330  0.00  0.00     0.000 OA
ATOM     18   O  NGY C   1      11.531  25.838  28.2370  0.00  0.00     0.000 O
ATOM     19   S  NGY C   1      13.034  26.196  27.9510  0.00  0.00     0.000 S
ATOM     20   O  NGY C   1      13.077  27.584  27.5740  0.00  0.00     0.000 OA
ATOM     21   O  NGY C   1      13.429  25.292  26.8830  0.00  0.00     0.000 OA
ENDBRANCH 5 16
BRANCH 1 22
ATOM     22  O4  BDP C   2       7.224  25.000  29.2750  0.00  0.00     0.000 O
BRANCH 22 26
ATOM     23  C1  BDP C   2       5.970  25.980  33.0740  0.00  0.00     0.000 C
ATOM     24  C2  BDP C   2       5.716  27.027  32.0160  0.00  0.00     0.000 C
ATOM     25  C3  BDP C   2       5.876  26.414  30.6490  0.00  0.00     0.000 C
ATOM     26  C4  BDP C   2       7.229  25.719  30.5370  0.00  0.00     0.000 C
ATOM     27  C5  BDP C   2       7.450  24.821  31.7460  0.00  0.00     0.000 C
ATOM     28  O5  BDP C   2       7.355  25.540  33.0030  0.00  0.00     0.000 O
ATOM     29   O  BDP C   2       4.366  27.491  32.0210  0.00  0.00     0.000 O
ATOM     31  HD  BDP C   2       4.018  27.679  31.2510  0.00  0.00     0.000 HD
ATOM     31   O  BDP C   2       5.792  27.477  29.7070  0.00  0.00     0.000 O
ATOM     33  HD  BDP C   2       5.444  27.665  28.9370  0.00  0.00     0.000 HD
BRANCH 27 33
ATOM     33   C  BDP C   2       8.816  24.177  31.7450  0.00  0.00     0.000 C
ATOM     34   O  BDP C   2       9.118  23.254  32.5380  0.00  0.00     0.000 OA
ATOM     35   O  BDP C   2       9.656  24.599  30.9670  0.00  0.00     0.000 OA
ENDBRANCH 27 33
BRANCH 23 36
ATOM     36  O4  SGN C   3       5.730  26.373  34.3470  0.00  0.00     0.000 O
BRANCH 36 40
ATOM     37  C1  SGN C   3       3.045  25.356  37.3780  0.00  0.00     0.000 C
ATOM     38  C2  SGN C   3       2.976  24.559  36.0660  0.00  0.00     0.000 C
ATOM     39  C3  SGN C   3       4.258  24.738  35.2660  0.00  0.00     0.000 C
ATOM     40  C4  SGN C   3       4.484  26.217  35.0310  0.00  0.00     0.000 C
ATOM     41  C5  SGN C   3       4.515  26.923  36.3690  0.00  0.00     0.000 C
ATOM     42  O5  SGN C   3       3.269  26.720  37.0540  0.00  0.00     0.000 O
ATOM     43   O  SGN C   3       4.142  24.039  34.0330  0.00  0.00     0.000 O
ATOM     45  HD  SGN C   3       4.687  24.706  33.9430  0.00  0.00     0.000 HD
BRANCH 38 47
ATOM     45   N  SGN C   3       1.538  24.256  36.1790  0.00  0.00     0.000 N
ATOM     47  HD  SGN C   3       2.162  24.779  35.8840  0.00  0.00     0.000 HD
ATOM     47   S  SGN C   3       1.279  22.765  36.6680  0.00  0.00     0.000 S
ATOM     48   O  SGN C   3       1.708  21.820  35.6990  0.00  0.00     0.000 OA
ATOM     49   O  SGN C   3       1.854  22.656  37.9680  0.00  0.00     0.000 OA
ATOM     50   O  SGN C   3      -0.182  22.720  36.7190  0.00  0.00     0.000 OA
ENDBRANCH 38 47
BRANCH 41 51
ATOM     51   C  SGN C   3       4.740  28.408  36.2750  0.00  0.00     0.000 C
ATOM     52   O  SGN C   3       3.042  31.074  38.2470  0.00  0.00     0.000 OA
ATOM     53   O  SGN C   3       5.287  30.985  37.4210  0.00  0.00     0.000 OA
ATOM     54   O  SGN C   3       3.433  31.063  35.8980  0.00  0.00     0.000 OA
ATOM     55   O  SGN C   3       3.929  29.052  37.2320  0.00  0.00     0.000 O
ATOM     56   S  SGN C   3       3.923  30.698  37.1940  0.00  0.00     0.000 S
ENDBRANCH 41 51
BRANCH 37 57
ATOM     57  O4  IDS C   4       4.021  24.958  38.2320  0.00  0.00     0.000 O
BRANCH 57 61
ATOM     58  C1  IDS C   4       5.033  24.123  41.8020  0.00  0.00     0.000 C
ATOM     59  C2  IDS C   4       3.627  23.847  41.3710  0.00  0.00     0.000 C
ATOM     60  C3  IDS C   4       3.055  24.951  40.4780  0.00  0.00     0.000 C
ATOM     61  C4  IDS C   4       4.026  25.617  39.5130  0.00  0.00     0.000 C
ATOM     62  C5  IDS C   4       5.440  25.654  40.1040  0.00  0.00     0.000 C
ATOM     63  O5  IDS C   4       5.815  24.399  40.6530  0.00  0.00     0.000 O
ATOM     64   O  IDS C   4       2.566  25.936  41.3690  0.00  0.00     0.000 O
ATOM     66  HD  IDS C   4       3.035  26.661  41.3050  0.00  0.00     0.000 HD
BRANCH 59 66
ATOM     66   O  IDS C   4       3.532  22.594  40.6000  0.00  0.00     0.000 O
ATOM     67   S  IDS C   4       2.709  21.408  41.2700  0.00  0.00     0.000 S
ATOM     68   O  IDS C   4       1.365  21.931  41.3250  0.00  0.00     0.000 OA
ATOM     69   O  IDS C   4       2.888  20.279  40.3790  0.00  0.00     0.000 OA
ATOM     70   O  IDS C   4       3.259  21.200  42.6000  0.00  0.00     0.000 OA
ENDBRANCH 59 66
BRANCH 62 71
ATOM     71   C  IDS C   4       6.506  25.985  39.0760  0.00  0.00     0.000 C
ATOM     72   O  IDS C   4       6.801  27.143  38.8540  0.00  0.00     0.000 OA
ATOM     73   O  IDS C   4       6.989  25.054  38.4000  0.00  0.00     0.000 OA
ENDBRANCH 62 71
BRANCH 58 74
ATOM     74  O4  SGN C   5       5.151  24.925  42.8980  0.00  0.00     0.000 O
BRANCH 74 78
ATOM     75  C1  SGN C   5       7.194  25.670  46.4640  0.00  0.00     0.000 C
ATOM     76  C2  SGN C   5       7.939  26.041  45.1680  0.00  0.00     0.000 C
ATOM     77  C3  SGN C   5       6.978  26.046  43.9720  0.00  0.00     0.000 C
ATOM     78  C4  SGN C   5       6.124  24.787  43.9340  0.00  0.00     0.000 C
ATOM     79  C5  SGN C   5       5.446  24.592  45.2820  0.00  0.00     0.000 C
ATOM     80  O5  SGN C   5       6.455  24.464  46.3180  0.00  0.00     0.000 O
ATOM     81   O  SGN C   5       7.735  26.174  42.7730  0.00  0.00     0.000 O
ATOM     83  HD  SGN C   5       8.443  26.671  42.7330  0.00  0.00     0.000 HD
BRANCH 76 85
ATOM     83   N  SGN C   5       8.681  26.874  46.1230  0.00  0.00     0.000 N
ATOM     85  HD  SGN C   5       9.109  27.595  46.3410  0.00  0.00     0.000 HD
ATOM     85   S  SGN C   5       9.990  27.783  45.8860  0.00  0.00     0.000 S
ATOM     86   O  SGN C   5      10.347  28.460  47.0840  0.00  0.00     0.000 OA
ATOM     87   O  SGN C   5      10.976  26.951  45.2950  0.00  0.00     0.000 OA
ATOM     88   O  SGN C   5       9.344  28.748  44.8950  0.00  0.00     0.000 OA
ENDBRANCH 76 85
BRANCH 79 89
ATOM     89   C  SGN C   5       4.550  23.371  45.3360  0.00  0.00     0.000 C
ATOM     90   O  SGN C   5       5.217  22.306  46.0570  0.00  0.00     0.000 O
ATOM     91   S  SGN C   5       4.280  21.297  46.8810  0.00  0.00     0.000 S
ATOM     92   O  SGN C   5       3.443  22.113  47.7210  0.00  0.00     0.000 OA
ATOM     93   O  SGN C   5       3.522  20.540  45.9180  0.00  0.00     0.000 OA
ATOM     94   O  SGN C   5       5.222  20.497  47.6160  0.00  0.00     0.000 OA
ENDBRANCH 79 89
BRANCH 75 95
ATOM     95  O4  BDP C   6       6.337  26.705  46.7100  0.00  0.00     0.000 O
BRANCH 95 99
ATOM     96  C1  BDP C   6       4.704  28.233  50.3770  0.00  0.00     0.000 C
ATOM     97  C2  BDP C   6       6.147  27.815  50.3480  0.00  0.00     0.000 C
ATOM     98  C3  BDP C   6       6.732  27.653  48.9370  0.00  0.00     0.000 C
ATOM     99  C4  BDP C   6       5.818  26.817  48.0530  0.00  0.00     0.000 C
ATOM    100  C5  BDP C   6       4.387  27.393  48.1650  0.00  0.00     0.000 C
ATOM    101  O5  BDP C   6       4.079  27.259  49.5620  0.00  0.00     0.000 O
BRANCH 100 102
ATOM    102   C  BDP C   6       3.375  26.592  47.3860  0.00  0.00     0.000 C
ATOM    103   O  BDP C   6       2.970  25.485  47.7700  0.00  0.00     0.000 OA
ATOM    104   O  BDP C   6       2.950  27.095  46.3400  0.00  0.00     0.000 OA
ENDBRANCH 100 102
ENDBRANCH 95 99
ENDBRANCH 75 95
ENDBRANCH 74 78
ENDBRANCH 58 74
ENDBRANCH 57 61
ENDBRANCH 37 57
ENDBRANCH 36 40
ENDBRANCH 23 36
ENDBRANCH 22 26
ENDBRANCH 1 22
TORSDOF 20
ENDMDL
MODEL 97
REMARK VINA RESULT:       2.3     24.790     31.449
ROOT
ATOM      1  C1  NGY C   1       7.174  25.462  27.9340  0.00  0.00     0.000 C
ATOM      2  C2  NGY C   1       6.667  24.358  27.0170  0.00  0.00     0.000 C
ATOM      3  C3  NGY C   1       7.754  23.310  26.8010  0.00  0.00     0.000 C
ATOM      4  C4  NGY C   1       8.999  24.012  26.2940  0.00  0.00     0.000 C
ATOM      5  C5  NGY C   1       9.447  25.030  27.3390  0.00  0.00     0.000 C
ATOM      6  O5  NGY C   1       8.394  26.018  27.4920  0.00  0.00     0.000 O
ATOM      7   O  NGY C   1       7.283  22.330  25.8870  0.00  0.00     0.000 O
ATOM      9  HD  NGY C   1       6.788  22.307  25.1770  0.00  0.00     0.000 HD
ATOM      9   O  NGY C   1      10.041  23.081  26.0420  0.00  0.00     0.000 O
ATOM     11  HD  NGY C   1       9.546  23.058  25.3320  0.00  0.00     0.000 HD
ENDROOT
BRANCH 2 13
ATOM     11   N  NGY C   1       5.672  23.315  27.1010  0.00  0.00     0.000 N
ATOM     13  HD  NGY C   1       4.971  23.781  26.8960  0.00  0.00     0.000 HD
ATOM     13   C  NGY C   1       4.384  23.558  26.8620  0.00  0.00     0.000 C
ATOM     14   O  NGY C   1       3.972  24.708  26.7020  0.00  0.00     0.000 OA
ATOM     15   C  NGY C   1       3.480  22.367  26.7740  0.00  0.00     0.000 C
ENDBRANCH 2 13
BRANCH 5 16
ATOM     16   C  NGY C   1      10.677  25.803  26.9860  0.00  0.00     0.000 C
ATOM     17   O  NGY C   1      11.194  29.334  27.8370  0.00  0.00     0.000 OA
ATOM     18   O  NGY C   1      10.450  27.186  27.2740  0.00  0.00     0.000 O
ATOM     19   S  NGY C   1      11.739  28.075  27.3970  0.00  0.00     0.000 S
ATOM     20   O  NGY C   1      12.324  28.160  26.0850  0.00  0.00     0.000 OA
ATOM     21   O  NGY C   1      12.575  27.378  28.3610  0.00  0.00     0.000 OA
ENDBRANCH 5 16
BRANCH 1 22
ATOM     22  O4  BDP C   2       7.247  24.982  29.1930  0.00  0.00     0.000 O
BRANCH 22 26
ATOM     23  C1  BDP C   2       5.794  26.082  32.8870  0.00  0.00     0.000 C
ATOM     24  C2  BDP C   2       5.659  27.121  31.7990  0.00  0.00     0.000 C
ATOM     25  C3  BDP C   2       5.879  26.478  30.4550  0.00  0.00     0.000 C
ATOM     26  C4  BDP C   2       7.203  25.721  30.4420  0.00  0.00     0.000 C
ATOM     27  C5  BDP C   2       7.303  24.834  31.6760  0.00  0.00     0.000 C
ATOM     28  O5  BDP C   2       7.159  25.578  32.9140  0.00  0.00     0.000 O
ATOM     29   O  BDP C   2       4.334  27.645  31.7090  0.00  0.00     0.000 O
ATOM     31  HD  BDP C   2       4.046  27.836  30.9150  0.00  0.00     0.000 HD
ATOM     31   O  BDP C   2       5.906  27.527  29.4950  0.00  0.00     0.000 O
ATOM     33  HD  BDP C   2       5.619  27.718  28.7000  0.00  0.00     0.000 HD
BRANCH 27 33
ATOM     33   C  BDP C   2       8.635  24.130  31.7740  0.00  0.00     0.000 C
ATOM     34   O  BDP C   2       8.802  23.118  32.4960  0.00  0.00     0.000 OA
ATOM     35   O  BDP C   2       9.581  24.587  31.1540  0.00  0.00     0.000 OA
ENDBRANCH 27 33
BRANCH 23 36
ATOM     36  O4  SGN C   3       5.490  26.506  34.1350  0.00  0.00     0.000 O
BRANCH 36 40
ATOM     37  C1  SGN C   3       2.706  25.765  37.1560  0.00  0.00     0.000 C
ATOM     38  C2  SGN C   3       2.809  24.742  36.0130  0.00  0.00     0.000 C
ATOM     39  C3  SGN C   3       4.121  24.913  35.2620  0.00  0.00     0.000 C
ATOM     40  C4  SGN C   3       4.219  26.341  34.7700  0.00  0.00     0.000 C
ATOM     41  C5  SGN C   3       4.085  27.275  35.9530  0.00  0.00     0.000 C
ATOM     42  O5  SGN C   3       2.819  27.064  36.5970  0.00  0.00     0.000 O
ATOM     43   O  SGN C   3       4.163  23.996  34.1760  0.00  0.00     0.000 O
ATOM     45  HD  SGN C   3       4.645  24.692  33.9930  0.00  0.00     0.000 HD
BRANCH 38 47
ATOM     45   N  SGN C   3       1.409  24.406  36.3280  0.00  0.00     0.000 N
ATOM     47  HD  SGN C   3       1.972  24.944  35.9480  0.00  0.00     0.000 HD
ATOM     47   S  SGN C   3       1.255  22.912  36.8470  0.00  0.00     0.000 S
ATOM     48   O  SGN C   3       1.564  21.975  35.8260  0.00  0.00     0.000 OA
ATOM     49   O  SGN C   3       2.010  22.818  38.0530  0.00  0.00     0.000 OA
ATOM     50   O  SGN C   3      -0.182  22.833  37.1040  0.00  0.00     0.000 OA
ENDBRANCH 38 47
BRANCH 41 51
ATOM     51   C  SGN C   3       4.171  28.734  35.5970  0.00  0.00     0.000 C
ATOM     52   O  SGN C   3       7.255  30.715  34.9300  0.00  0.00     0.000 OA
ATOM     53   O  SGN C   3       5.076  30.915  33.9600  0.00  0.00     0.000 OA
ATOM     54   O  SGN C   3       5.412  31.356  36.2960  0.00  0.00     0.000 OA
ATOM     55   O  SGN C   3       5.523  29.071  35.3790  0.00  0.00     0.000 O
ATOM     56   S  SGN C   3       5.845  30.664  35.1180  0.00  0.00     0.000 S
ENDBRANCH 41 51
BRANCH 37 57
ATOM     57  O4  IDS C   4       3.651  25.634  38.1190  0.00  0.00     0.000 O
BRANCH 57 61
ATOM     58  C1  IDS C   4       4.216  25.685  41.8810  0.00  0.00     0.000 C
ATOM     59  C2  IDS C   4       2.844  25.388  41.3650  0.00  0.00     0.000 C
ATOM     60  C3  IDS C   4       2.463  26.256  40.1630  0.00  0.00     0.000 C
ATOM     61  C4  IDS C   4       3.581  26.598  39.1880  0.00  0.00     0.000 C
ATOM     62  C5  IDS C   4       4.925  26.706  39.9180  0.00  0.00     0.000 C
ATOM     63  O5  IDS C   4       5.133  25.614  40.8020  0.00  0.00     0.000 O
ATOM     64   O  IDS C   4       1.970  27.462  40.7160  0.00  0.00     0.000 O
ATOM     66  HD  IDS C   4       2.502  28.120  40.5320  0.00  0.00     0.000 HD
BRANCH 59 66
ATOM     66   O  IDS C   4       2.723  23.985  40.9220  0.00  0.00     0.000 O
ATOM     67   S  IDS C   4       1.750  23.054  41.7700  0.00  0.00     0.000 S
ATOM     68   O  IDS C   4       0.452  23.644  41.5450  0.00  0.00     0.000 OA
ATOM     69   O  IDS C   4       1.923  21.728  41.2130  0.00  0.00     0.000 OA
ATOM     70   O  IDS C   4       2.155  23.164  43.1630  0.00  0.00     0.000 OA
ENDBRANCH 59 66
BRANCH 62 71
ATOM     71   C  IDS C   4       6.114  26.702  38.9770  0.00  0.00     0.000 C
ATOM     72   O  IDS C   4       6.435  27.721  38.3950  0.00  0.00     0.000 OA
ATOM     73   O  IDS C   4       6.681  25.617  38.7400  0.00  0.00     0.000 OA
ENDBRANCH 62 71
BRANCH 58 74
ATOM     74  O4  SGN C   5       4.289  26.734  42.7490  0.00  0.00     0.000 O
BRANCH 74 78
ATOM     75  C1  SGN C   5       6.003  28.248  46.2440  0.00  0.00     0.000 C
ATOM     76  C2  SGN C   5       6.906  28.242  44.9960  0.00  0.00     0.000 C
ATOM     77  C3  SGN C   5       6.078  27.995  43.7280  0.00  0.00     0.000 C
ATOM     78  C4  SGN C   5       5.135  26.811  43.8960  0.00  0.00     0.000 C
ATOM     79  C5  SGN C   5       4.308  26.997  45.1600  0.00  0.00     0.000 C
ATOM     80  O5  SGN C   5       5.191  27.083  46.3090  0.00  0.00     0.000 O
ATOM     81   O  SGN C   5       6.962  27.777  42.6340  0.00  0.00     0.000 O
ATOM     83  HD  SGN C   5       7.708  28.212  42.5590  0.00  0.00     0.000 HD
BRANCH 76 85
ATOM     83   N  SGN C   5       7.706  29.444  44.7310  0.00  0.00     0.000 N
ATOM     85  HD  SGN C   5       8.461  29.865  44.6670  0.00  0.00     0.000 HD
ATOM     85   S  SGN C   5       9.002  30.002  45.5070  0.00  0.00     0.000 S
ATOM     86   O  SGN C   5       9.488  31.181  44.8790  0.00  0.00     0.000 OA
ATOM     87   O  SGN C   5       8.660  30.096  46.8810  0.00  0.00     0.000 OA
ATOM     88   O  SGN C   5       9.908  28.813  45.1920  0.00  0.00     0.000 OA
ENDBRANCH 76 85
BRANCH 79 89
ATOM     89   C  SGN C   5       3.317  25.877  45.4030  0.00  0.00     0.000 C
ATOM     90   O  SGN C   5       3.794  25.024  46.4730  0.00  0.00     0.000 O
ATOM     91   S  SGN C   5       2.678  24.321  47.3860  0.00  0.00     0.000 S
ATOM     92   O  SGN C   5       1.805  25.371  47.8430  0.00  0.00     0.000 OA
ATOM     93   O  SGN C   5       1.996  23.360  46.5570  0.00  0.00     0.000 OA
ATOM     94   O  SGN C   5       3.447  23.716  48.4400  0.00  0.00     0.000 OA
ENDBRANCH 79 89
BRANCH 75 95
ATOM     95  O4  BDP C   6       5.210  29.354  46.1240  0.00  0.00     0.000 O
BRANCH 95 99
ATOM     96  C1  BDP C   6       3.454  31.844  49.1510  0.00  0.00     0.000 C
ATOM     97  C2  BDP C   6       4.781  31.196  49.4300  0.00  0.00     0.000 C
ATOM     98  C3  BDP C   6       5.497  30.655  48.1830  0.00  0.00     0.000 C
ATOM     99  C4  BDP C   6       4.558  29.821  47.3250  0.00  0.00     0.000 C
ATOM    100  C5  BDP C   6       3.263  30.637  47.1010  0.00  0.00     0.000 C
ATOM    101  O5  BDP C   6       2.760  30.842  48.4310  0.00  0.00     0.000 O
BRANCH 100 102
ATOM    102   C  BDP C   6       2.222  29.873  46.3230  0.00  0.00     0.000 C
ATOM    103   O  BDP C   6       1.614  28.905  46.8040  0.00  0.00     0.000 OA
ATOM    104   O  BDP C   6       1.984  30.263  45.1740  0.00  0.00     0.000 OA
ENDBRANCH 100 102
ENDBRANCH 95 99
ENDBRANCH 75 95
ENDBRANCH 74 78
ENDBRANCH 58 74
ENDBRANCH 57 61
ENDBRANCH 37 57
ENDBRANCH 36 40
ENDBRANCH 23 36
ENDBRANCH 22 26
ENDBRANCH 1 22
TORSDOF 20
ENDMDL
MODEL 98
REMARK VINA RESULT:       2.9     22.816     29.864
ROOT
ATOM      1  C1  NGY C   1       7.179  25.328  28.2280  0.00  0.00     0.000 C
ATOM      2  C2  NGY C   1       6.605  24.279  27.2870  0.00  0.00     0.000 C
ATOM      3  C3  NGY C   1       7.674  23.254  26.9210  0.00  0.00     0.000 C
ATOM      4  C4  NGY C   1       8.872  23.996  26.3620  0.00  0.00     0.000 C
ATOM      5  C5  NGY C   1       9.399  24.952  27.4290  0.00  0.00     0.000 C
ATOM      6  O5  NGY C   1       8.359  25.919  27.7260  0.00  0.00     0.000 O
ATOM      7   O  NGY C   1       7.135  22.329  25.9880  0.00  0.00     0.000 O
ATOM      9  HD  NGY C   1       6.585  22.346  25.3190  0.00  0.00     0.000 HD
ATOM      9   O  NGY C   1       9.894  23.091  25.9700  0.00  0.00     0.000 O
ATOM     11  HD  NGY C   1       9.344  23.108  25.3010  0.00  0.00     0.000 HD
ENDROOT
BRANCH 2 13
ATOM     11   N  NGY C   1       5.585  23.323  27.6510  0.00  0.00     0.000 N
ATOM     13  HD  NGY C   1       4.908  23.693  27.2590  0.00  0.00     0.000 HD
ATOM     13   C  NGY C   1       4.319  23.472  27.2650  0.00  0.00     0.000 C
ATOM     14   O  NGY C   1       3.941  24.502  26.7060  0.00  0.00     0.000 OA
ATOM     15   C  NGY C   1       3.398  22.318  27.5220  0.00  0.00     0.000 C
ENDBRANCH 2 13
BRANCH 5 16
ATOM     16   C  NGY C   1      10.595  25.755  27.0280  0.00  0.00     0.000 C
ATOM     17   O  NGY C   1      10.784  29.410  27.2690  0.00  0.00     0.000 OA
ATOM     18   O  NGY C   1      10.246  27.142  27.0490  0.00  0.00     0.000 O
ATOM     19   S  NGY C   1      11.453  28.146  27.0980  0.00  0.00     0.000 S
ATOM     20   O  NGY C   1      12.136  28.053  25.8340  0.00  0.00     0.000 OA
ATOM     21   O  NGY C   1      12.256  27.699  28.2250  0.00  0.00     0.000 OA
ENDBRANCH 5 16
BRANCH 1 22
ATOM     22  O4  BDP C   2       7.355  24.772  29.4450  0.00  0.00     0.000 O
BRANCH 22 26
ATOM     23  C1  BDP C   2       6.994  25.141  33.5310  0.00  0.00     0.000 C
ATOM     24  C2  BDP C   2       6.015  25.953  32.7160  0.00  0.00     0.000 C
ATOM     25  C3  BDP C   2       6.008  25.457  31.2940  0.00  0.00     0.000 C
ATOM     26  C4  BDP C   2       7.426  25.434  30.7350  0.00  0.00     0.000 C
ATOM     27  C5  BDP C   2       8.359  24.743  31.7210  0.00  0.00     0.000 C
ATOM     28  O5  BDP C   2       8.344  25.361  33.0340  0.00  0.00     0.000 O
ATOM     29   O  BDP C   2       4.666  25.768  33.1440  0.00  0.00     0.000 O
ATOM     31  HD  BDP C   2       4.059  25.772  32.5260  0.00  0.00     0.000 HD
ATOM     31   O  BDP C   2       5.202  26.359  30.5460  0.00  0.00     0.000 O
ATOM     33  HD  BDP C   2       4.595  26.364  29.9280  0.00  0.00     0.000 HD
BRANCH 27 33
ATOM     33   C  BDP C   2       9.800  24.773  31.2710  0.00  0.00     0.000 C
ATOM     34   O  BDP C   2      10.629  23.904  31.6320  0.00  0.00     0.000 OA
ATOM     35   O  BDP C   2      10.167  25.695  30.5610  0.00  0.00     0.000 OA
ENDBRANCH 27 33
BRANCH 23 36
ATOM     36  O4  SGN C   3       6.999  25.402  34.8590  0.00  0.00     0.000 O
BRANCH 36 40
ATOM     37  C1  SGN C   3       7.037  23.672  38.6580  0.00  0.00     0.000 C
ATOM     38  C2  SGN C   3       7.936  23.046  37.5790  0.00  0.00     0.000 C
ATOM     39  C3  SGN C   3       8.143  24.019  36.4290  0.00  0.00     0.000 C
ATOM     40  C4  SGN C   3       6.790  24.429  35.8860  0.00  0.00     0.000 C
ATOM     41  C5  SGN C   3       5.968  25.011  37.0160  0.00  0.00     0.000 C
ATOM     42  O5  SGN C   3       5.805  24.030  38.0520  0.00  0.00     0.000 O
ATOM     43   O  SGN C   3       8.927  23.394  35.4210  0.00  0.00     0.000 O
ATOM     45  HD  SGN C   3       8.416  23.996  35.0650  0.00  0.00     0.000 HD
BRANCH 38 47
ATOM     45   N  SGN C   3       7.803  21.913  38.5130  0.00  0.00     0.000 N
ATOM     47  HD  SGN C   3       7.430  22.449  37.9440  0.00  0.00     0.000 HD
ATOM     47   S  SGN C   3       9.216  21.324  38.9420  0.00  0.00     0.000 S
ATOM     48   O  SGN C   3       9.883  20.726  37.8400  0.00  0.00     0.000 OA
ATOM     49   O  SGN C   3       9.908  22.372  39.6180  0.00  0.00     0.000 OA
ATOM     50   O  SGN C   3       8.826  20.256  39.8600  0.00  0.00     0.000 OA
ENDBRANCH 38 47
BRANCH 41 51
ATOM     51   C  SGN C   3       4.594  25.465  36.6050  0.00  0.00     0.000 C
ATOM     52   O  SGN C   3       1.528  23.372  36.2910  0.00  0.00     0.000 OA
ATOM     53   O  SGN C   3       1.751  25.655  36.9750  0.00  0.00     0.000 OA
ATOM     54   O  SGN C   3       2.316  24.996  34.7370  0.00  0.00     0.000 OA
ATOM     55   O  SGN C   3       3.714  24.364  36.6650  0.00  0.00     0.000 O
ATOM     56   S  SGN C   3       2.184  24.622  36.1140  0.00  0.00     0.000 S
ENDBRANCH 41 51
BRANCH 37 57
ATOM     57  O4  IDS C   4       7.552  24.775  39.2540  0.00  0.00     0.000 O
BRANCH 57 61
ATOM     58  C1  IDS C   4       8.491  26.606  42.4530  0.00  0.00     0.000 C
ATOM     59  C2  IDS C   4       8.628  25.117  42.4110  0.00  0.00     0.000 C
ATOM     60  C3  IDS C   4       7.472  24.437  41.6740  0.00  0.00     0.000 C
ATOM     61  C4  IDS C   4       6.900  25.179  40.4730  0.00  0.00     0.000 C
ATOM     62  C5  IDS C   4       7.002  26.695  40.6720  0.00  0.00     0.000 C
ATOM     63  O5  IDS C   4       8.289  27.081  41.1330  0.00  0.00     0.000 O
ATOM     64   O  IDS C   4       6.447  24.295  42.6390  0.00  0.00     0.000 O
ATOM     66  HD  IDS C   4       5.770  24.796  42.4390  0.00  0.00     0.000 HD
BRANCH 59 66
ATOM     66   O  IDS C   4       9.865  24.705  41.7210  0.00  0.00     0.000 O
ATOM     67   S  IDS C   4      10.968  23.982  42.6100  0.00  0.00     0.000 S
ATOM     68   O  IDS C   4      10.319  22.755  43.0050  0.00  0.00     0.000 OA
ATOM     69   O  IDS C   4      12.107  23.814  41.7290  0.00  0.00     0.000 OA
ATOM     70   O  IDS C   4      11.231  24.842  43.7530  0.00  0.00     0.000 OA
ENDBRANCH 59 66
BRANCH 62 71
ATOM     71   C  IDS C   4       6.773  27.480  39.3940  0.00  0.00     0.000 C
ATOM     72   O  IDS C   4       5.645  27.786  39.0600  0.00  0.00     0.000 OA
ATOM     73   O  IDS C   4       7.750  27.706  38.6530  0.00  0.00     0.000 OA
ENDBRANCH 62 71
BRANCH 58 74
ATOM     74  O4  SGN C   5       7.707  27.084  43.4610  0.00  0.00     0.000 O
BRANCH 74 78
ATOM     75  C1  SGN C   5       7.206  30.328  46.0430  0.00  0.00     0.000 C
ATOM     76  C2  SGN C   5       7.840  30.645  44.6750  0.00  0.00     0.000 C
ATOM     77  C3  SGN C   5       7.657  29.468  43.7070  0.00  0.00     0.000 C
ATOM     78  C4  SGN C   5       8.047  28.145  44.3530  0.00  0.00     0.000 C
ATOM     79  C5  SGN C   5       7.310  27.990  45.6750  0.00  0.00     0.000 C
ATOM     80  O5  SGN C   5       7.665  29.085  46.5590  0.00  0.00     0.000 O
ATOM     81   O  SGN C   5       8.438  29.705  42.5410  0.00  0.00     0.000 O
ATOM     83  HD  SGN C   5       8.530  30.499  42.2090  0.00  0.00     0.000 HD
BRANCH 76 85
ATOM     83   N  SGN C   5       7.596  32.019  45.1330  0.00  0.00     0.000 N
ATOM     85  HD  SGN C   5       7.256  32.809  45.0380  0.00  0.00     0.000 HD
ATOM     85   S  SGN C   5       7.605  33.393  44.2930  0.00  0.00     0.000 S
ATOM     86   O  SGN C   5       7.270  34.490  45.1320  0.00  0.00     0.000 OA
ATOM     87   O  SGN C   5       8.847  33.458  43.6090  0.00  0.00     0.000 OA
ATOM     88   O  SGN C   5       6.434  33.037  43.3800  0.00  0.00     0.000 OA
ENDBRANCH 76 85
BRANCH 79 89
ATOM     89   C  SGN C   5       7.615  26.687  46.3860  0.00  0.00     0.000 C
ATOM     90   O  SGN C   5       6.378  26.032  46.7600  0.00  0.00     0.000 O
ATOM     91   S  SGN C   5       6.391  24.428  46.7900  0.00  0.00     0.000 S
ATOM     92   O  SGN C   5       6.895  24.002  45.5110  0.00  0.00     0.000 OA
ATOM     93   O  SGN C   5       7.248  24.032  47.8780  0.00  0.00     0.000 OA
ATOM     94   O  SGN C   5       5.010  24.089  47.0040  0.00  0.00     0.000 OA
ENDBRANCH 79 89
BRANCH 75 95
ATOM     95  O4  BDP C   6       5.859  30.264  45.8230  0.00  0.00     0.000 O
BRANCH 95 99
ATOM     96  C1  BDP C   6       2.510  31.238  48.3290  0.00  0.00     0.000 C
ATOM     97  C2  BDP C   6       3.695  32.162  48.3170  0.00  0.00     0.000 C
ATOM     98  C3  BDP C   6       4.653  31.949  47.1350  0.00  0.00     0.000 C
ATOM     99  C4  BDP C   6       5.001  30.477  46.9640  0.00  0.00     0.000 C
ATOM    100  C5  BDP C   6       3.681  29.671  46.9620  0.00  0.00     0.000 C
ATOM    101  O5  BDP C   6       3.109  29.958  48.2480  0.00  0.00     0.000 O
BRANCH 100 102
ATOM    102   C  BDP C   6       3.909  28.183  46.8760  0.00  0.00     0.000 C
ATOM    103   O  BDP C   6       3.718  27.543  45.8310  0.00  0.00     0.000 OA
ATOM    104   O  BDP C   6       4.311  27.619  47.9000  0.00  0.00     0.000 OA
ENDBRANCH 100 102
ENDBRANCH 95 99
ENDBRANCH 75 95
ENDBRANCH 74 78
ENDBRANCH 58 74
ENDBRANCH 57 61
ENDBRANCH 37 57
ENDBRANCH 36 40
ENDBRANCH 23 36
ENDBRANCH 22 26
ENDBRANCH 1 22
TORSDOF 20
ENDMDL
MODEL 99
REMARK VINA RESULT:       3.8     19.718     27.076
ROOT
ATOM      1  C1  NGY C   1       7.298  25.191  28.8680  0.00  0.00     0.000 C
ATOM      2  C2  NGY C   1       6.242  24.270  28.2710  0.00  0.00     0.000 C
ATOM      3  C3  NGY C   1       6.907  23.144  27.4870  0.00  0.00     0.000 C
ATOM      4  C4  NGY C   1       7.838  23.762  26.4620  0.00  0.00     0.000 C
ATOM      5  C5  NGY C   1       8.892  24.589  27.1930  0.00  0.00     0.000 C
ATOM      6  O5  NGY C   1       8.217  25.659  27.9040  0.00  0.00     0.000 O
ATOM      7   O  NGY C   1       5.903  22.342  26.8810  0.00  0.00     0.000 O
ATOM      9  HD  NGY C   1       5.128  22.461  26.5140  0.00  0.00     0.000 HD
ATOM      9   O  NGY C   1       8.464  22.761  25.6730  0.00  0.00     0.000 O
ATOM     11  HD  NGY C   1       7.689  22.880  25.3070  0.00  0.00     0.000 HD
ENDROOT
BRANCH 2 13
ATOM     11   N  NGY C   1       4.799  24.307  28.2650  0.00  0.00     0.000 N
ATOM     13  HD  NGY C   1       4.650  23.879  29.0030  0.00  0.00     0.000 HD
ATOM     13   C  NGY C   1       4.082  23.750  29.2400  0.00  0.00     0.000 C
ATOM     14   O  NGY C   1       4.616  23.060  30.1090  0.00  0.00     0.000 OA
ATOM     15   C  NGY C   1       2.610  24.031  29.2360  0.00  0.00     0.000 C
ENDBRANCH 2 13
BRANCH 5 16
ATOM     16   C  NGY C   1       9.897  25.260  26.3130  0.00  0.00     0.000 C
ATOM     17   O  NGY C   1      13.491  25.393  27.0350  0.00  0.00     0.000 OA
ATOM     18   O  NGY C   1      11.151  25.308  26.9990  0.00  0.00     0.000 O
ATOM     19   S  NGY C   1      12.411  25.558  26.0950  0.00  0.00     0.000 S
ATOM     20   O  NGY C   1      12.318  26.905  25.5980  0.00  0.00     0.000 OA
ATOM     21   O  NGY C   1      12.321  24.547  25.0540  0.00  0.00     0.000 OA
ENDBRANCH 5 16
BRANCH 1 22
ATOM     22  O4  BDP C   2       7.900  24.554  29.8940  0.00  0.00     0.000 O
BRANCH 22 26
ATOM     23  C1  BDP C   2       8.598  24.293  33.9450  0.00  0.00     0.000 C
ATOM     24  C2  BDP C   2       7.247  24.844  33.5520  0.00  0.00     0.000 C
ATOM     25  C3  BDP C   2       6.983  24.547  32.0990  0.00  0.00     0.000 C
ATOM     26  C4  BDP C   2       8.141  25.044  31.2400  0.00  0.00     0.000 C
ATOM     27  C5  BDP C   2       9.463  24.572  31.8300  0.00  0.00     0.000 C
ATOM     28  O5  BDP C   2       9.642  24.989  33.2080  0.00  0.00     0.000 O
ATOM     29   O  BDP C   2       6.175  24.189  34.2300  0.00  0.00     0.000 O
ATOM     31  HD  BDP C   2       5.444  24.075  33.7790  0.00  0.00     0.000 HD
ATOM     31   O  BDP C   2       5.786  25.230  31.7490  0.00  0.00     0.000 O
ATOM     33  HD  BDP C   2       5.055  25.116  31.2980  0.00  0.00     0.000 HD
BRANCH 27 33
ATOM     33   C  BDP C   2      10.657  25.113  31.0800  0.00  0.00     0.000 C
ATOM     34   O  BDP C   2      10.571  26.107  30.3200  0.00  0.00     0.000 OA
ATOM     35   O  BDP C   2      11.725  24.536  31.1970  0.00  0.00     0.000 OA
ENDBRANCH 27 33
BRANCH 23 36
ATOM     36  O4  SGN C   3       8.898  24.380  35.2610  0.00  0.00     0.000 O
BRANCH 36 40
ATOM     37  C1  SGN C   3      10.862  22.504  38.4320  0.00  0.00     0.000 C
ATOM     38  C2  SGN C   3      11.579  22.545  37.0730  0.00  0.00     0.000 C
ATOM     39  C3  SGN C   3      10.960  23.608  36.1770  0.00  0.00     0.000 C
ATOM     40  C4  SGN C   3       9.478  23.330  36.0410  0.00  0.00     0.000 C
ATOM     41  C5  SGN C   3       8.862  23.284  37.4210  0.00  0.00     0.000 C
ATOM     42  O5  SGN C   3       9.486  22.249  38.1970  0.00  0.00     0.000 O
ATOM     43   O  SGN C   3      11.601  23.584  34.9080  0.00  0.00     0.000 O
ATOM     45  HD  SGN C   3      10.791  23.877  34.8230  0.00  0.00     0.000 HD
BRANCH 38 47
ATOM     45   N  SGN C   3      12.290  21.325  37.4950  0.00  0.00     0.000 N
ATOM     47  HD  SGN C   3      11.573  21.688  37.1720  0.00  0.00     0.000 HD
ATOM     47   S  SGN C   3      13.848  21.577  37.6810  0.00  0.00     0.000 S
ATOM     48   O  SGN C   3      14.476  21.874  36.4420  0.00  0.00     0.000 OA
ATOM     49   O  SGN C   3      13.985  22.547  38.7180  0.00  0.00     0.000 OA
ATOM     50   O  SGN C   3      14.313  20.259  38.1110  0.00  0.00     0.000 OA
ENDBRANCH 38 47
BRANCH 41 51
ATOM     51   C  SGN C   3       7.381  23.017  37.4250  0.00  0.00     0.000 C
ATOM     52   O  SGN C   3       4.645  25.493  37.9410  0.00  0.00     0.000 OA
ATOM     53   O  SGN C   3       4.690  23.537  36.5620  0.00  0.00     0.000 OA
ATOM     54   O  SGN C   3       4.838  23.345  38.9510  0.00  0.00     0.000 OA
ATOM     55   O  SGN C   3       6.699  24.238  37.6050  0.00  0.00     0.000 O
ATOM     56   S  SGN C   3       5.065  24.142  37.7820  0.00  0.00     0.000 S
ENDBRANCH 41 51
BRANCH 37 57
ATOM     57  O4  IDS C   4      10.964  23.642  39.1600  0.00  0.00     0.000 O
BRANCH 57 61
ATOM     58  C1  IDS C   4      11.981  25.271  42.4450  0.00  0.00     0.000 C
ATOM     59  C2  IDS C   4      12.726  24.059  41.9830  0.00  0.00     0.000 C
ATOM     60  C3  IDS C   4      11.810  23.001  41.3630  0.00  0.00     0.000 C
ATOM     61  C4  IDS C   4      10.626  23.515  40.5550  0.00  0.00     0.000 C
ATOM     62  C5  IDS C   4      10.120  24.847  41.1200  0.00  0.00     0.000 C
ATOM     63  O5  IDS C   4      11.186  25.751  41.3740  0.00  0.00     0.000 O
ATOM     64   O  IDS C   4      11.313  22.252  42.4560  0.00  0.00     0.000 O
ATOM     66  HD  IDS C   4      10.461  22.379  42.5470  0.00  0.00     0.000 HD
BRANCH 59 66
ATOM     66   O  IDS C   4      13.729  24.398  40.9550  0.00  0.00     0.000 O
ATOM     67   S  IDS C   4      15.196  24.729  41.4760  0.00  0.00     0.000 S
ATOM     68   O  IDS C   4      15.633  23.476  42.0450  0.00  0.00     0.000 OA
ATOM     69   O  IDS C   4      15.925  25.151  40.2960  0.00  0.00     0.000 OA
ATOM     70   O  IDS C   4      15.070  25.764  42.4910  0.00  0.00     0.000 OA
ENDBRANCH 59 66
BRANCH 62 71
ATOM     71   C  IDS C   4       9.182  25.575  40.1760  0.00  0.00     0.000 C
ATOM     72   O  IDS C   4       9.586  26.515  39.5200  0.00  0.00     0.000 OA
ATOM     73   O  IDS C   4       7.977  25.254  40.1710  0.00  0.00     0.000 OA
ENDBRANCH 62 71
BRANCH 58 74
ATOM     74  O4  SGN C   5      11.432  25.169  43.6890  0.00  0.00     0.000 O
BRANCH 74 78
ATOM     75  C1  SGN C   5      10.642  27.083  47.3160  0.00  0.00     0.000 C
ATOM     76  C2  SGN C   5       9.841  27.584  46.0990  0.00  0.00     0.000 C
ATOM     77  C3  SGN C   5       9.960  26.599  44.9280  0.00  0.00     0.000 C
ATOM     78  C4  SGN C   5      11.407  26.198  44.6780  0.00  0.00     0.000 C
ATOM     79  C5  SGN C   5      12.030  25.707  45.9760  0.00  0.00     0.000 C
ATOM     80  O5  SGN C   5      11.984  26.768  46.9670  0.00  0.00     0.000 O
ATOM     81   O  SGN C   5       9.397  27.195  43.7640  0.00  0.00     0.000 O
ATOM     83  HD  SGN C   5       8.695  27.700  43.8060  0.00  0.00     0.000 HD
BRANCH 76 85
ATOM     83   N  SGN C   5       9.217  28.621  46.9300  0.00  0.00     0.000 N
ATOM     85  HD  SGN C   5       8.595  28.907  47.4610  0.00  0.00     0.000 HD
ATOM     85   S  SGN C   5       7.660  29.001  47.0940  0.00  0.00     0.000 S
ATOM     86   O  SGN C   5       7.501  30.046  48.0440  0.00  0.00     0.000 OA
ATOM     87   O  SGN C   5       7.146  29.229  45.7910  0.00  0.00     0.000 OA
ATOM     88   O  SGN C   5       7.225  27.663  47.6870  0.00  0.00     0.000 OA
ENDBRANCH 76 85
BRANCH 79 89
ATOM     89   C  SGN C   5      13.470  25.260  45.8240  0.00  0.00     0.000 C
ATOM     90   O  SGN C   5      14.328  26.417  45.6720  0.00  0.00     0.000 O
ATOM     91   S  SGN C   5      15.820  26.289  46.2510  0.00  0.00     0.000 S
ATOM     92   O  SGN C   5      15.689  25.854  47.6170  0.00  0.00     0.000 OA
ATOM     93   O  SGN C   5      16.512  25.328  45.4310  0.00  0.00     0.000 OA
ATOM     94   O  SGN C   5      16.340  27.624  46.1220  0.00  0.00     0.000 OA
ENDBRANCH 79 89
BRANCH 75 95
ATOM     95  O4  BDP C   6      10.001  25.955  47.7430  0.00  0.00     0.000 O
BRANCH 95 99
ATOM     96  C1  BDP C   6       9.440  25.005  51.8940  0.00  0.00     0.000 C
ATOM     97  C2  BDP C   6      10.161  26.274  51.5350  0.00  0.00     0.000 C
ATOM     98  C3  BDP C   6       9.979  26.715  50.0750  0.00  0.00     0.000 C
ATOM     99  C4  BDP C   6      10.223  25.560  49.1150  0.00  0.00     0.000 C
ATOM    100  C5  BDP C   6       9.388  24.351  49.5990  0.00  0.00     0.000 C
ATOM    101  O5  BDP C   6       9.903  24.093  50.9150  0.00  0.00     0.000 O
BRANCH 100 102
ATOM    102   C  BDP C   6       9.613  23.117  48.7630  0.00  0.00     0.000 C
ATOM    103   O  BDP C   6      10.290  23.135  47.7240  0.00  0.00     0.000 OA
ATOM    104   O  BDP C   6       9.097  22.068  49.1650  0.00  0.00     0.000 OA
ENDBRANCH 100 102
ENDBRANCH 95 99
ENDBRANCH 75 95
ENDBRANCH 74 78
ENDBRANCH 58 74
ENDBRANCH 57 61
ENDBRANCH 37 57
ENDBRANCH 36 40
ENDBRANCH 23 36
ENDBRANCH 22 26
ENDBRANCH 1 22
TORSDOF 20
ENDMDL
