MODEL 1
REMARK VINA RESULT:      -1.9      0.000      0.000
ROOT
ATOM      1  C1  BGC C   1      13.126  16.153  17.0330  0.00  0.00     0.000 C
ATOM      2  C2  BGC C   1      12.098  17.182  17.5020  0.00  0.00     0.000 C
ATOM      3  C3  BGC C   1      12.770  18.226  18.3850  0.00  0.00     0.000 C
ATOM      4  C4  BGC C   1      13.600  17.596  19.4910  0.00  0.00     0.000 C
ATOM      5  C5  BGC C   1      14.471  16.478  18.9250  0.00  0.00     0.000 C
ATOM      6  O5  BGC C   1      13.782  15.590  18.1030  0.00  0.00     0.000 O
ATOM      7   O  BGC C   1      11.554  17.790  16.3540  0.00  0.00     0.000 O
ATOM      9  HD  BGC C   1      11.207  17.788  17.1470  0.00  0.00     0.000 HD
ATOM      9   O  BGC C   1      11.751  19.091  18.9060  0.00  0.00     0.000 O
ATOM     11  HD  BGC C   1      11.404  19.089  19.6990  0.00  0.00     0.000 HD
ATOM     11   O  BGC C   1      14.398  18.634  20.0500  0.00  0.00     0.000 O
ATOM     13  HD  BGC C   1      14.051  18.632  20.8430  0.00  0.00     0.000 HD
ATOM     13   O  BGC C   1      14.048  14.948  20.8270  0.00  0.00     0.000 O
ATOM     15  HD  BGC C   1      13.702  14.946  21.6200  0.00  0.00     0.000 HD
ATOM     15   C  BGC C   1      15.069  15.692  20.1060  0.00  0.00     0.000 C
ENDROOT
BRANCH 1 16
ATOM     16  O4  BGC C   2      12.449  15.111  16.3700  0.00  0.00     0.000 O
BRANCH 16 20
ATOM     17  C1  BGC C   2      13.177  12.478  13.3350  0.00  0.00     0.000 C
ATOM     18  C2  BGC C   2      13.719  12.085  14.7000  0.00  0.00     0.000 C
ATOM     19  C3  BGC C   2      13.087  12.932  15.7960  0.00  0.00     0.000 C
ATOM     20  C4  BGC C   2      13.222  14.377  15.4500  0.00  0.00     0.000 C
ATOM     21  C5  BGC C   2      12.721  14.651  14.0350  0.00  0.00     0.000 C
ATOM     22  O5  BGC C   2      13.382  13.843  13.1080  0.00  0.00     0.000 O
ATOM     23   O  BGC C   2      13.448  10.693  14.9220  0.00  0.00     0.000 O
ATOM     25  HD  BGC C   2      13.202  10.565  15.7430  0.00  0.00     0.000 HD
ATOM     25   O  BGC C   2      13.746  12.668  17.0280  0.00  0.00     0.000 O
ATOM     27  HD  BGC C   2      13.501  12.541  17.8490  0.00  0.00     0.000 HD
ATOM     27   C  BGC C   2      12.839  16.120  13.5810  0.00  0.00     0.000 C
ATOM     28   O  BGC C   2      14.184  16.605  13.7300  0.00  0.00     0.000 O
ATOM     30  HD  BGC C   2      13.938  16.478  14.5510  0.00  0.00     0.000 HD
BRANCH 17 30
ATOM     30  O4  BGC C   3      13.858  11.749  12.3360  0.00  0.00     0.000 O
BRANCH 30 34
ATOM     31  C1  BGC C   3      13.196   9.930   8.7870  0.00  0.00     0.000 C
ATOM     32  C2  BGC C   3      13.491  11.447   8.7190  0.00  0.00     0.000 C
ATOM     33  C3  BGC C   3      14.055  11.945  10.0040  0.00  0.00     0.000 C
ATOM     34  C4  BGC C   3      13.134  11.495  11.1410  0.00  0.00     0.000 C
ATOM     35  C5  BGC C   3      12.769   9.990  11.0910  0.00  0.00     0.000 C
ATOM     36  O5  BGC C   3      12.279   9.653   9.8170  0.00  0.00     0.000 O
ATOM     37   O  BGC C   3      14.347  11.920   7.6950  0.00  0.00     0.000 O
ATOM     39  HD  BGC C   3      14.103  11.997   8.5230  0.00  0.00     0.000 HD
ATOM     39   O  BGC C   3      14.179  13.398   9.9710  0.00  0.00     0.000 O
ATOM     41  HD  BGC C   3      13.935  13.475  10.7980  0.00  0.00     0.000 HD
ATOM     41   C  BGC C   3      11.699   9.540  12.1130  0.00  0.00     0.000 C
ATOM     42   O  BGC C   3      10.366  10.138  11.9300  0.00  0.00     0.000 O
ATOM     44  HD  BGC C   3      10.122  10.215  12.7570  0.00  0.00     0.000 HD
BRANCH 31 44
ATOM     44  O4  BGC C   4      12.672   9.470   7.5870  0.00  0.00     0.000 O
BRANCH 44 48
ATOM     45  C1  BGC C   4      12.628   6.345   4.9420  0.00  0.00     0.000 C
ATOM     46  C2  BGC C   4      11.822   6.006   6.2370  0.00  0.00     0.000 C
ATOM     47  C3  BGC C   4      11.712   7.379   6.9120  0.00  0.00     0.000 C
ATOM     48  C4  BGC C   4      12.977   8.193   7.1100  0.00  0.00     0.000 C
ATOM     49  C5  BGC C   4      13.587   8.382   5.7120  0.00  0.00     0.000 C
ATOM     50  O5  BGC C   4      13.799   7.161   5.0920  0.00  0.00     0.000 O
ATOM     51   O  BGC C   4      10.412   5.388   6.2090  0.00  0.00     0.000 O
ATOM     53  HD  BGC C   4      10.058   5.371   6.9990  0.00  0.00     0.000 HD
ATOM     53   O  BGC C   4      11.326   6.952   8.3010  0.00  0.00     0.000 O
ATOM     55  HD  BGC C   4      10.972   6.934   9.0910  0.00  0.00     0.000 HD
ATOM     55   C  BGC C   4      14.941   9.037   5.7880  0.00  0.00     0.000 C
ATOM     56   O  BGC C   4      15.907   8.371   6.6100  0.00  0.00     0.000 O
ATOM     58  HD  BGC C   4      15.552   8.353   7.4000  0.00  0.00     0.000 HD
BRANCH 45 58
ATOM     58  O4  BGC C   5      13.061   5.197   4.2760  0.00  0.00     0.000 O
BRANCH 58 62
ATOM     59  C1  BGC C   5      14.319   4.804   1.5160  0.00  0.00     0.000 C
ATOM     60  C2  BGC C   5      13.487   5.984   1.4220  0.00  0.00     0.000 C
ATOM     61  C3  BGC C   5      12.114   5.819   2.0680  0.00  0.00     0.000 C
ATOM     62  C4  BGC C   5      12.213   4.781   3.1770  0.00  0.00     0.000 C
ATOM     63  C5  BGC C   5      13.007   3.616   2.6320  0.00  0.00     0.000 C
ATOM     64  O5  BGC C   5      13.756   3.810   1.4340  0.00  0.00     0.000 O
ATOM     65   O  BGC C   5      11.146   2.587   1.4860  0.00  0.00     0.000 O
ATOM     67  HD  BGC C   5      11.623   2.622   2.2070  0.00  0.00     0.000 HD
ATOM     67   O  BGC C   5      11.146   2.587   1.4860  0.00  0.00     0.000 O
ATOM     69  HD  BGC C   5      11.623   2.622   2.2070  0.00  0.00     0.000 HD
ENDBRANCH 58 62
ENDBRANCH 45 58
ENDBRANCH 44 48
ENDBRANCH 31 44
ENDBRANCH 30 34
ENDBRANCH 17 30
ENDBRANCH 16 20
ENDBRANCH 1 16
TORSDOF 8
ENDMDL
MODEL 2
REMARK VINA RESULT:      -1.4      2.030      2.607
ROOT
ATOM      1  C1  BGC C   1      14.157  17.799  17.5640  0.00  0.00     0.000 C
ATOM      2  C2  BGC C   1      12.963  18.595  18.0910  0.00  0.00     0.000 C
ATOM      3  C3  BGC C   1      13.449  19.808  18.8750  0.00  0.00     0.000 C
ATOM      4  C4  BGC C   1      14.489  19.439  19.9200  0.00  0.00     0.000 C
ATOM      5  C5  BGC C   1      15.543  18.517  19.3140  0.00  0.00     0.000 C
ATOM      6  O5  BGC C   1      15.010  17.455  18.5880  0.00  0.00     0.000 O
ATOM      7   O  BGC C   1      12.204  19.003  16.9790  0.00  0.00     0.000 O
ATOM      9  HD  BGC C   1      11.932  18.966  17.8000  0.00  0.00     0.000 HD
ATOM      9   O  BGC C   1      12.306  20.448  19.4580  0.00  0.00     0.000 O
ATOM     11  HD  BGC C   1      12.035  20.410  20.2800  0.00  0.00     0.000 HD
ATOM     11   O  BGC C   1      15.071  20.657  20.3690  0.00  0.00     0.000 O
ATOM     13  HD  BGC C   1      14.800  20.619  21.1910  0.00  0.00     0.000 HD
ATOM     13   O  BGC C   1      15.637  17.033  21.2950  0.00  0.00     0.000 O
ATOM     15  HD  BGC C   1      15.366  16.995  22.1170  0.00  0.00     0.000 HD
ATOM     15   C  BGC C   1      16.399  17.948  20.4600  0.00  0.00     0.000 C
ENDROOT
BRANCH 1 16
ATOM     16  O4  BGC C   2      13.685  16.599  17.0000  0.00  0.00     0.000 O
BRANCH 16 20
ATOM     17  C1  BGC C   2      14.709  14.080  13.9540  0.00  0.00     0.000 C
ATOM     18  C2  BGC C   2      15.450  13.873  15.2650  0.00  0.00     0.000 C
ATOM     19  C3  BGC C   2      14.747  14.598  16.4030  0.00  0.00     0.000 C
ATOM     20  C4  BGC C   2      14.515  16.022  16.0210  0.00  0.00     0.000 C
ATOM     21  C5  BGC C   2      13.836  16.120  14.6580  0.00  0.00     0.000 C
ATOM     22  O5  BGC C   2      14.575  15.446  13.6840  0.00  0.00     0.000 O
ATOM     23   O  BGC C   2      15.526  12.465  15.5370  0.00  0.00     0.000 O
ATOM     25  HD  BGC C   2      15.393  12.319  16.3810  0.00  0.00     0.000 HD
ATOM     25   O  BGC C   2      15.560  14.539  17.5690  0.00  0.00     0.000 O
ATOM     27  HD  BGC C   2      15.428  14.392  18.4120  0.00  0.00     0.000 HD
ATOM     27   C  BGC C   2      13.574  17.559  14.1690  0.00  0.00     0.000 C
ATOM     28   O  BGC C   2      14.780  18.340  14.1760  0.00  0.00     0.000 O
ATOM     30  HD  BGC C   2      14.647  18.193  15.0190  0.00  0.00     0.000 HD
BRANCH 17 30
ATOM     30  O4  BGC C   3      15.442  13.484  12.9050  0.00  0.00     0.000 O
BRANCH 30 34
ATOM     31  C1  BGC C   3      14.881  11.535   9.4090  0.00  0.00     0.000 C
ATOM     32  C2  BGC C   3      14.886  13.080   9.3220  0.00  0.00     0.000 C
ATOM     33  C3  BGC C   3      15.437  13.687  10.5650  0.00  0.00     0.000 C
ATOM     34  C4  BGC C   3      14.696  13.088  11.7640  0.00  0.00     0.000 C
ATOM     35  C5  BGC C   3      14.612  11.540  11.7370  0.00  0.00     0.000 C
ATOM     36  O5  BGC C   3      14.105  11.105  10.5000  0.00  0.00     0.000 O
ATOM     37   O  BGC C   3      15.567  13.690   8.2420  0.00  0.00     0.000 O
ATOM     39  HD  BGC C   3      15.372  13.730   9.0840  0.00  0.00     0.000 HD
ATOM     39   O  BGC C   3      15.288  15.137  10.5270  0.00  0.00     0.000 O
ATOM     41  HD  BGC C   3      15.092  15.177  11.3690  0.00  0.00     0.000 HD
ATOM     41   C  BGC C   3      13.717  10.913  12.8310  0.00  0.00     0.000 C
ATOM     42   O  BGC C   3      12.287  11.253  12.7430  0.00  0.00     0.000 O
ATOM     44  HD  BGC C   3      12.092  11.294  13.5860  0.00  0.00     0.000 HD
BRANCH 31 44
ATOM     44  O4  BGC C   4      14.369  10.972   8.2470  0.00  0.00     0.000 O
BRANCH 44 48
ATOM     45  C1  BGC C   4      14.622   7.786   5.6890  0.00  0.00     0.000 C
ATOM     46  C2  BGC C   4      13.879   7.400   7.0070  0.00  0.00     0.000 C
ATOM     47  C3  BGC C   4      13.631   8.772   7.6470  0.00  0.00     0.000 C
ATOM     48  C4  BGC C   4      14.803   9.722   7.7990  0.00  0.00     0.000 C
ATOM     49  C5  BGC C   4      15.367   9.936   6.3850  0.00  0.00     0.000 C
ATOM     50  O5  BGC C   4      15.700   8.728   5.7950  0.00  0.00     0.000 O
ATOM     51   O  BGC C   4      12.544   6.633   7.0220  0.00  0.00     0.000 O
ATOM     53  HD  BGC C   4      12.206   6.599   7.8190  0.00  0.00     0.000 HD
ATOM     53   O  BGC C   4      13.316   8.345   9.0540  0.00  0.00     0.000 O
ATOM     55  HD  BGC C   4      12.978   8.312   9.8510  0.00  0.00     0.000 HD
ATOM     55   C  BGC C   4      16.643  10.736   6.4190  0.00  0.00     0.000 C
ATOM     56   O  BGC C   4      17.688  10.202   7.2400  0.00  0.00     0.000 O
ATOM     58  HD  BGC C   4      17.350  10.169   8.0360  0.00  0.00     0.000 HD
BRANCH 45 58
ATOM     58  O4  BGC C   5      15.167   6.673   5.0450  0.00  0.00     0.000 O
BRANCH 58 62
ATOM     59  C1  BGC C   5      14.987   4.149   3.3270  0.00  0.00     0.000 C
ATOM     60  C2  BGC C   5      16.360   4.599   3.2500  0.00  0.00     0.000 C
ATOM     61  C3  BGC C   5      16.500   6.104   3.0320  0.00  0.00     0.000 C
ATOM     62  C4  BGC C   5      15.276   6.802   3.6060  0.00  0.00     0.000 C
ATOM     63  C5  BGC C   5      14.063   6.019   3.1600  0.00  0.00     0.000 C
ATOM     64  O5  BGC C   5      14.259   4.706   2.6400  0.00  0.00     0.000 O
ATOM     65   O  BGC C   5      13.929   7.033   0.9710  0.00  0.00     0.000 O
ATOM     67  HD  BGC C   5      13.662   7.048   1.7950  0.00  0.00     0.000 HD
ATOM     67   O  BGC C   5      13.929   7.033   0.9710  0.00  0.00     0.000 O
ATOM     69  HD  BGC C   5      13.662   7.048   1.7950  0.00  0.00     0.000 HD
ENDBRANCH 58 62
ENDBRANCH 45 58
ENDBRANCH 44 48
ENDBRANCH 31 44
ENDBRANCH 30 34
ENDBRANCH 17 30
ENDBRANCH 16 20
ENDBRANCH 1 16
TORSDOF 8
ENDMDL
MODEL 3
REMARK VINA RESULT:      -1.3     14.946     16.780
ROOT
ATOM      1  C1  BGC C   1      34.436   9.738  14.9670  0.00  0.00     0.000 C
ATOM      2  C2  BGC C   1      35.420  10.806  15.4420  0.00  0.00     0.000 C
ATOM      3  C3  BGC C   1      36.532  10.164  16.2620  0.00  0.00     0.000 C
ATOM      4  C4  BGC C   1      35.991   9.256  17.3540  0.00  0.00     0.000 C
ATOM      5  C5  BGC C   1      34.906   8.342  16.7910  0.00  0.00     0.000 C
ATOM      6  O5  BGC C   1      33.950   9.008  16.0280  0.00  0.00     0.000 O
ATOM      7   O  BGC C   1      35.954  11.429  14.2970  0.00  0.00     0.000 O
ATOM      9  HD  BGC C   1      35.960  11.744  15.1040  0.00  0.00     0.000 HD
ATOM      9   O  BGC C   1      37.354  11.211  16.7950  0.00  0.00     0.000 O
ATOM     11  HD  BGC C   1      37.361  11.527  17.6010  0.00  0.00     0.000 HD
ATOM     11   O  BGC C   1      37.093   8.500  17.8450  0.00  0.00     0.000 O
ATOM     13  HD  BGC C   1      37.099   8.815  18.6510  0.00  0.00     0.000 HD
ATOM     13   O  BGC C   1      33.423   8.600  18.7580  0.00  0.00     0.000 O
ATOM     15  HD  BGC C   1      33.429   8.915  19.5650  0.00  0.00     0.000 HD
ATOM     15   C  BGC C   1      34.198   7.654  17.9720  0.00  0.00     0.000 C
ENDROOT
BRANCH 1 16
ATOM     16  O4  BGC C   2      33.334  10.376  14.3670  0.00  0.00     0.000 O
BRANCH 16 20
ATOM     17  C1  BGC C   2      30.057   9.285  12.1880  0.00  0.00     0.000 C
ATOM     18  C2  BGC C   2      29.884   9.277  13.6980  0.00  0.00     0.000 C
ATOM     19  C3  BGC C   2      31.016  10.034  14.3760  0.00  0.00     0.000 C
ATOM     20  C4  BGC C   2      32.327   9.520  13.8830  0.00  0.00     0.000 C
ATOM     21  C5  BGC C   2      32.369   9.498  12.3580  0.00  0.00     0.000 C
ATOM     22  O5  BGC C   2      31.305   8.757  11.8410  0.00  0.00     0.000 O
ATOM     23   O  BGC C   2      28.618   9.871  14.0230  0.00  0.00     0.000 O
ATOM     25  HD  BGC C   2      28.697  10.376  14.7220  0.00  0.00     0.000 HD
ATOM     25   O  BGC C   2      30.925   9.850  15.7840  0.00  0.00     0.000 O
ATOM     27  HD  BGC C   2      31.005  10.355  16.4830  0.00  0.00     0.000 HD
ATOM     27   C  BGC C   2      33.683   8.960  11.7560  0.00  0.00     0.000 C
ATOM     28   O  BGC C   2      34.000   7.658  12.2750  0.00  0.00     0.000 O
ATOM     30  HD  BGC C   2      34.079   8.163  12.9740  0.00  0.00     0.000 HD
BRANCH 17 30
ATOM     30  O4  BGC C   3      29.052   8.488  11.5990  0.00  0.00     0.000 O
BRANCH 30 34
ATOM     31  C1  BGC C   3      26.654   8.380   8.3470  0.00  0.00     0.000 C
ATOM     32  C2  BGC C   3      28.058   7.757   8.1660  0.00  0.00     0.000 C
ATOM     33  C3  BGC C   3      28.721   7.531   9.4800  0.00  0.00     0.000 C
ATOM     34  C4  BGC C   3      28.668   8.837  10.2770  0.00  0.00     0.000 C
ATOM     35  C5  BGC C   3      27.261   9.486  10.3220  0.00  0.00     0.000 C
ATOM     36  O5  BGC C   3      26.745   9.611   9.0210  0.00  0.00     0.000 O
ATOM     37   O  BGC C   3      28.167   6.542   7.4480  0.00  0.00     0.000 O
ATOM     39  HD  BGC C   3      28.453   7.010   8.1180  0.00  0.00     0.000 HD
ATOM     39   O  BGC C   3      30.097   7.092   9.2820  0.00  0.00     0.000 O
ATOM     41  HD  BGC C   3      30.383   7.560   9.9520  0.00  0.00     0.000 HD
ATOM     41   C  BGC C   3      27.207  10.893  10.9610  0.00  0.00     0.000 C
ATOM     42   O  BGC C   3      27.953  11.938  10.2390  0.00  0.00     0.000 O
ATOM     44  HD  BGC C   3      28.239  12.406  10.9090  0.00  0.00     0.000 HD
BRANCH 31 44
ATOM     44  O4  BGC C   4      26.039   8.587   7.1190  0.00  0.00     0.000 O
BRANCH 44 48
ATOM     45  C1  BGC C   4      22.470   8.463   5.1170  0.00  0.00     0.000 C
ATOM     46  C2  BGC C   4      22.587   9.753   5.9920  0.00  0.00     0.000 C
ATOM     47  C3  BGC C   4      24.072   9.740   6.3790  0.00  0.00     0.000 C
ATOM     48  C4  BGC C   4      24.654   8.475   6.9790  0.00  0.00     0.000 C
ATOM     49  C5  BGC C   4      24.407   7.360   5.9490  0.00  0.00     0.000 C
ATOM     50  O5  BGC C   4      23.062   7.262   5.6350  0.00  0.00     0.000 O
ATOM     51   O  BGC C   4      22.258  11.159   5.4590  0.00  0.00     0.000 O
ATOM     53  HD  BGC C   4      22.485  11.774   6.0250  0.00  0.00     0.000 HD
ATOM     53   O  BGC C   4      24.046  10.715   7.5240  0.00  0.00     0.000 O
ATOM     55  HD  BGC C   4      24.272  11.329   8.0910  0.00  0.00     0.000 HD
ATOM     55   C  BGC C   4      24.794   6.011   6.4970  0.00  0.00     0.000 C
ATOM     56   O  BGC C   4      24.157   5.635   7.7230  0.00  0.00     0.000 O
ATOM     58  HD  BGC C   4      24.383   6.249   8.2900  0.00  0.00     0.000 HD
BRANCH 45 58
ATOM     58  O4  BGC C   5      21.141   8.131   4.8430  0.00  0.00     0.000 O
BRANCH 58 62
ATOM     59  C1  BGC C   5      19.838   9.689   2.5570  0.00  0.00     0.000 C
ATOM     60  C2  BGC C   5      18.870   8.701   2.9820  0.00  0.00     0.000 C
ATOM     61  C3  BGC C   5      19.468   7.314   3.2040  0.00  0.00     0.000 C
ATOM     62  C4  BGC C   5      20.936   7.463   3.5740  0.00  0.00     0.000 C
ATOM     63  C5  BGC C   5      21.538   8.472   2.6230  0.00  0.00     0.000 C
ATOM     64  O5  BGC C   5      20.656   9.293   1.8610  0.00  0.00     0.000 O
ATOM     65   O  BGC C   5      21.889   6.905   0.8180  0.00  0.00     0.000 O
ATOM     67  HD  BGC C   5      22.226   7.301   1.5100  0.00  0.00     0.000 HD
ATOM     67   O  BGC C   5      21.889   6.905   0.8180  0.00  0.00     0.000 O
ATOM     69  HD  BGC C   5      22.226   7.301   1.5100  0.00  0.00     0.000 HD
ENDBRANCH 58 62
ENDBRANCH 45 58
ENDBRANCH 44 48
ENDBRANCH 31 44
ENDBRANCH 30 34
ENDBRANCH 17 30
ENDBRANCH 16 20
ENDBRANCH 1 16
TORSDOF 8
ENDMDL
MODEL 4
REMARK VINA RESULT:      -1.2      2.644      3.343
ROOT
ATOM      1  C1  BGC C   1      14.220  17.767  17.5210  0.00  0.00     0.000 C
ATOM      2  C2  BGC C   1      12.986  18.345  18.2120  0.00  0.00     0.000 C
ATOM      3  C3  BGC C   1      13.385  19.522  19.0950  0.00  0.00     0.000 C
ATOM      4  C4  BGC C   1      14.541  19.180  20.0200  0.00  0.00     0.000 C
ATOM      5  C5  BGC C   1      15.646  18.468  19.2440  0.00  0.00     0.000 C
ATOM      6  O5  BGC C   1      15.187  17.429  18.4400  0.00  0.00     0.000 O
ATOM      7   O  BGC C   1      12.097  18.768  17.2060  0.00  0.00     0.000 O
ATOM      9  HD  BGC C   1      11.899  18.611  18.0340  0.00  0.00     0.000 HD
ATOM      9   O  BGC C   1      12.224  19.947  19.8210  0.00  0.00     0.000 O
ATOM     11  HD  BGC C   1      12.025  19.789  20.6490  0.00  0.00     0.000 HD
ATOM     11   O  BGC C   1      15.009  20.409  20.5650  0.00  0.00     0.000 O
ATOM     13  HD  BGC C   1      14.810  20.252  21.3930  0.00  0.00     0.000 HD
ATOM     13   O  BGC C   1      16.073  16.809  21.0340  0.00  0.00     0.000 O
ATOM     15  HD  BGC C   1      15.875  16.652  21.8620  0.00  0.00     0.000 HD
ATOM     15   C  BGC C   1      16.652  17.896  20.2590  0.00  0.00     0.000 C
ENDROOT
BRANCH 1 16
ATOM     16  O4  BGC C   2      13.851  16.582  16.8560  0.00  0.00     0.000 O
BRANCH 16 20
ATOM     17  C1  BGC C   2      15.306  14.248  13.8380  0.00  0.00     0.000 C
ATOM     18  C2  BGC C   2      15.831  13.937  15.2310  0.00  0.00     0.000 C
ATOM     19  C3  BGC C   2      14.968  14.602  16.2940  0.00  0.00     0.000 C
ATOM     20  C4  BGC C   2      14.816  16.052  15.9800  0.00  0.00     0.000 C
ATOM     21  C5  BGC C   2      14.360  16.256  14.5380  0.00  0.00     0.000 C
ATOM     22  O5  BGC C   2      15.233  15.632  13.6460  0.00  0.00     0.000 O
ATOM     23   O  BGC C   2      15.846  12.514  15.4140  0.00  0.00     0.000 O
ATOM     25  HD  BGC C   2      15.581  12.314  16.2140  0.00  0.00     0.000 HD
ATOM     25   O  BGC C   2      15.589  14.446  17.5640  0.00  0.00     0.000 O
ATOM     27  HD  BGC C   2      15.324  14.247  18.3650  0.00  0.00     0.000 HD
ATOM     27   C  BGC C   2      14.195  17.731  14.1160  0.00  0.00     0.000 C
ATOM     28   O  BGC C   2      15.395  18.481  14.3620  0.00  0.00     0.000 O
ATOM     30  HD  BGC C   2      15.130  18.281  15.1630  0.00  0.00     0.000 HD
BRANCH 17 30
ATOM     30  O4  BGC C   3      16.187  13.706  12.8770  0.00  0.00     0.000 O
BRANCH 30 34
ATOM     31  C1  BGC C   3      16.110  11.769   9.3310  0.00  0.00     0.000 C
ATOM     32  C2  BGC C   3      16.130  13.314   9.2510  0.00  0.00     0.000 C
ATOM     33  C3  BGC C   3      16.505  13.916  10.5600  0.00  0.00     0.000 C
ATOM     34  C4  BGC C   3      15.605  13.315  11.6430  0.00  0.00     0.000 C
ATOM     35  C5  BGC C   3      15.522  11.768  11.5990  0.00  0.00     0.000 C
ATOM     36  O5  BGC C   3      15.190  11.338  10.3030  0.00  0.00     0.000 O
ATOM     37   O  BGC C   3      16.955  13.926   8.2760  0.00  0.00     0.000 O
ATOM     39  HD  BGC C   3      16.645  13.964   9.0840  0.00  0.00     0.000 HD
ATOM     39   O  BGC C   3      16.365  15.367  10.5060  0.00  0.00     0.000 O
ATOM     41  HD  BGC C   3      16.055  15.405  11.3130  0.00  0.00     0.000 HD
ATOM     41   C  BGC C   3      14.484  11.139  12.5570  0.00  0.00     0.000 C
ATOM     42   O  BGC C   3      13.081  11.483  12.2740  0.00  0.00     0.000 O
ATOM     44  HD  BGC C   3      12.770  11.522  13.0820  0.00  0.00     0.000 HD
BRANCH 31 44
ATOM     44  O4  BGC C   4      15.762  11.211   8.1070  0.00  0.00     0.000 O
BRANCH 44 48
ATOM     45  C1  BGC C   4      16.027   7.826   5.8200  0.00  0.00     0.000 C
ATOM     46  C2  BGC C   4      14.784   7.778   6.7650  0.00  0.00     0.000 C
ATOM     47  C3  BGC C   4      14.713   9.225   7.2700  0.00  0.00     0.000 C
ATOM     48  C4  BGC C   4      15.965   9.853   7.8500  0.00  0.00     0.000 C
ATOM     49  C5  BGC C   4      17.034   9.771   6.7490  0.00  0.00     0.000 C
ATOM     50  O5  BGC C   4      17.210   8.465   6.3230  0.00  0.00     0.000 O
ATOM     51   O  BGC C   4      13.377   7.386   6.2800  0.00  0.00     0.000 O
ATOM     53  HD  BGC C   4      12.780   7.521   6.8930  0.00  0.00     0.000 HD
ATOM     53   O  BGC C   4      13.808   9.038   8.4570  0.00  0.00     0.000 O
ATOM     55  HD  BGC C   4      13.212   9.173   9.0700  0.00  0.00     0.000 HD
ATOM     55   C  BGC C   4      18.381  10.216   7.2580  0.00  0.00     0.000 C
ATOM     56   O  BGC C   4      18.871   9.516   8.4080  0.00  0.00     0.000 O
ATOM     58  HD  BGC C   4      18.274   9.651   9.0210  0.00  0.00     0.000 HD
BRANCH 45 58
ATOM     58  O4  BGC C   5      16.437   6.551   5.4240  0.00  0.00     0.000 O
BRANCH 58 62
ATOM     59  C1  BGC C   5      18.744   5.067   4.0730  0.00  0.00     0.000 C
ATOM     60  C2  BGC C   5      18.818   6.438   3.6180  0.00  0.00     0.000 C
ATOM     61  C3  BGC C   5      17.468   7.025   3.2170  0.00  0.00     0.000 C
ATOM     62  C4  BGC C   5      16.370   6.314   3.9960  0.00  0.00     0.000 C
ATOM     63  C5  BGC C   5      16.669   4.833   3.9410  0.00  0.00     0.000 C
ATOM     64  O5  BGC C   5      17.971   4.421   3.5290  0.00  0.00     0.000 O
ATOM     65   O  BGC C   5      15.697   4.484   1.7570  0.00  0.00     0.000 O
ATOM     67  HD  BGC C   5      15.579   4.466   2.6150  0.00  0.00     0.000 HD
ATOM     67   O  BGC C   5      15.697   4.484   1.7570  0.00  0.00     0.000 O
ATOM     69  HD  BGC C   5      15.579   4.466   2.6150  0.00  0.00     0.000 HD
ENDBRANCH 58 62
ENDBRANCH 45 58
ENDBRANCH 44 48
ENDBRANCH 31 44
ENDBRANCH 30 34
ENDBRANCH 17 30
ENDBRANCH 16 20
ENDBRANCH 1 16
TORSDOF 8
ENDMDL
MODEL 5
REMARK VINA RESULT:      -0.1     61.800     71.171
ROOT
ATOM      1  C1  BGC C   1      56.960  45.218  40.3930  0.00  0.00     0.000 C
ATOM      2  C2  BGC C   1      57.022  44.345  39.1410  0.00  0.00     0.000 C
ATOM      3  C3  BGC C   1      56.163  44.951  38.0380  0.00  0.00     0.000 C
ATOM      4  C4  BGC C   1      54.761  45.287  38.5200  0.00  0.00     0.000 C
ATOM      5  C5  BGC C   1      54.824  46.022  39.8560  0.00  0.00     0.000 C
ATOM      6  O5  BGC C   1      55.657  45.416  40.7920  0.00  0.00     0.000 O
ATOM      7   O  BGC C   1      58.369  44.285  38.7350  0.00  0.00     0.000 O
ATOM      9  HD  BGC C   1      57.737  43.739  38.5040  0.00  0.00     0.000 HD
ATOM      9   O  BGC C   1      56.146  44.036  36.9340  0.00  0.00     0.000 O
ATOM     11  HD  BGC C   1      55.514  43.491  36.7030  0.00  0.00     0.000 HD
ATOM     11   O  BGC C   1      54.164  46.100  37.5160  0.00  0.00     0.000 O
ATOM     13  HD  BGC C   1      53.533  45.554  37.2850  0.00  0.00     0.000 HD
ATOM     13   O  BGC C   1      52.922  44.770  40.8330  0.00  0.00     0.000 O
ATOM     15  HD  BGC C   1      52.291  44.225  40.6020  0.00  0.00     0.000 HD
ATOM     15   C  BGC C   1      53.399  46.086  40.4360  0.00  0.00     0.000 C
ENDROOT
BRANCH 1 16
ATOM     16  O4  BGC C   2      57.615  44.547  41.4440  0.00  0.00     0.000 O
BRANCH 16 20
ATOM     17  C1  BGC C   2      59.802  45.509  44.7550  0.00  0.00     0.000 C
ATOM     18  C2  BGC C   2      58.292  45.575  44.9140  0.00  0.00     0.000 C
ATOM     19  C3  BGC C   2      57.596  44.859  43.7650  0.00  0.00     0.000 C
ATOM     20  C4  BGC C   2      58.122  45.371  42.4660  0.00  0.00     0.000 C
ATOM     21  C5  BGC C   2      59.647  45.334  42.4390  0.00  0.00     0.000 C
ATOM     22  O5  BGC C   2      60.182  46.040  43.5180  0.00  0.00     0.000 O
ATOM     23   O  BGC C   2      57.932  44.977  46.1690  0.00  0.00     0.000 O
ATOM     25  HD  BGC C   2      57.214  44.500  46.0760  0.00  0.00     0.000 HD
ATOM     25   O  BGC C   2      56.196  45.097  43.8460  0.00  0.00     0.000 O
ATOM     27  HD  BGC C   2      55.479  44.620  43.7530  0.00  0.00     0.000 HD
ATOM     27   C  BGC C   2      60.283  45.865  41.1380  0.00  0.00     0.000 C
ATOM     28   O  BGC C   2      59.818  47.190  40.8340  0.00  0.00     0.000 O
ATOM     30  HD  BGC C   2      59.100  46.714  40.7410  0.00  0.00     0.000 HD
BRANCH 17 30
ATOM     30  O4  BGC C   3      60.412  46.269  45.7770  0.00  0.00     0.000 O
BRANCH 30 34
ATOM     31  C1  BGC C   3      63.653  46.250  48.1920  0.00  0.00     0.000 C
ATOM     32  C2  BGC C   3      63.874  46.837  46.7770  0.00  0.00     0.000 C
ATOM     33  C3  BGC C   3      62.576  47.119  46.1020  0.00  0.00     0.000 C
ATOM     34  C4  BGC C   3      61.711  45.859  46.1740  0.00  0.00     0.000 C
ATOM     35  C5  BGC C   3      61.625  45.239  47.5930  0.00  0.00     0.000 C
ATOM     36  O5  BGC C   3      62.915  45.055  48.1190  0.00  0.00     0.000 O
ATOM     37   O  BGC C   3      64.655  48.011  46.6510  0.00  0.00     0.000 O
ATOM     39  HD  BGC C   3      63.963  47.573  46.3700  0.00  0.00     0.000 HD
ATOM     39   O  BGC C   3      62.804  47.522  44.7200  0.00  0.00     0.000 O
ATOM     41  HD  BGC C   3      62.112  47.085  44.4380  0.00  0.00     0.000 HD
ATOM     41   C  BGC C   3      60.913  43.869  47.6680  0.00  0.00     0.000 C
ATOM     42   O  BGC C   3      61.582  42.774  46.9460  0.00  0.00     0.000 O
ATOM     44  HD  BGC C   3      60.889  42.336  46.6640  0.00  0.00     0.000 HD
BRANCH 31 44
ATOM     44  O4  BGC C   4      64.865  45.990  48.8180  0.00  0.00     0.000 O
BRANCH 44 48
ATOM     45  C1  BGC C   4      66.877  46.106  52.3810  0.00  0.00     0.000 C
ATOM     46  C2  BGC C   4      65.796  44.978  52.3740  0.00  0.00     0.000 C
ATOM     47  C3  BGC C   4      65.409  44.918  50.8910  0.00  0.00     0.000 C
ATOM     48  C4  BGC C   4      65.029  46.206  50.1880  0.00  0.00     0.000 C
ATOM     49  C5  BGC C   4      66.234  47.148  50.3410  0.00  0.00     0.000 C
ATOM     50  O5  BGC C   4      66.567  47.317  51.6740  0.00  0.00     0.000 O
ATOM     51   O  BGC C   4      66.084  43.539  52.8380  0.00  0.00     0.000 O
ATOM     53  HD  BGC C   4      65.421  43.011  52.6640  0.00  0.00     0.000 HD
ATOM     53   O  BGC C   4      64.115  44.158  50.9950  0.00  0.00     0.000 O
ATOM     55  HD  BGC C   4      63.452  43.629  50.8210  0.00  0.00     0.000 HD
ATOM     55   C  BGC C   4      65.920  48.529  49.8240  0.00  0.00     0.000 C
ATOM     56   O  BGC C   4      64.779  49.165  50.4110  0.00  0.00     0.000 O
ATOM     58  HD  BGC C   4      64.116  48.637  50.2370  0.00  0.00     0.000 HD
BRANCH 45 58
ATOM     58  O4  BGC C   5      67.210  46.510  53.6760  0.00  0.00     0.000 O
BRANCH 58 62
ATOM     59  C1  BGC C   5      68.997  44.380  54.9520  0.00  0.00     0.000 C
ATOM     60  C2  BGC C   5      68.863  45.440  55.9270  0.00  0.00     0.000 C
ATOM     61  C3  BGC C   5      69.022  46.839  55.3380  0.00  0.00     0.000 C
ATOM     62  C4  BGC C   5      68.615  46.806  53.8720  0.00  0.00     0.000 C
ATOM     63  C5  BGC C   5      69.251  45.582  53.2570  0.00  0.00     0.000 C
ATOM     64  O5  BGC C   5      69.768  44.578  54.1290  0.00  0.00     0.000 O
ATOM     65   O  BGC C   5      71.411  46.602  52.8970  0.00  0.00     0.000 O
ATOM     67  HD  BGC C   5      70.635  46.412  52.5650  0.00  0.00     0.000 HD
ATOM     67   O  BGC C   5      71.411  46.602  52.8970  0.00  0.00     0.000 O
ATOM     69  HD  BGC C   5      70.635  46.412  52.5650  0.00  0.00     0.000 HD
ENDBRANCH 58 62
ENDBRANCH 45 58
ENDBRANCH 44 48
ENDBRANCH 31 44
ENDBRANCH 30 34
ENDBRANCH 17 30
ENDBRANCH 16 20
ENDBRANCH 1 16
TORSDOF 8
ENDMDL
MODEL 6
REMARK VINA RESULT:      -0.1     65.483     69.329
ROOT
ATOM      1  C1  BGC C   1      24.638  53.315  67.3730  0.00  0.00     0.000 C
ATOM      2  C2  BGC C   1      24.899  52.737  68.7630  0.00  0.00     0.000 C
ATOM      3  C3  BGC C   1      26.286  53.142  69.2450  0.00  0.00     0.000 C
ATOM      4  C4  BGC C   1      27.363  52.849  68.2130  0.00  0.00     0.000 C
ATOM      5  C5  BGC C   1      26.920  53.335  66.8360  0.00  0.00     0.000 C
ATOM      6  O5  BGC C   1      25.628  52.945  66.4910  0.00  0.00     0.000 O
ATOM      7   O  BGC C   1      23.912  53.250  69.6260  0.00  0.00     0.000 O
ATOM      9  HD  BGC C   1      24.404  52.551  69.7650  0.00  0.00     0.000 HD
ATOM      9   O  BGC C   1      26.538  52.473  70.4880  0.00  0.00     0.000 O
ATOM     11  HD  BGC C   1      27.030  51.774  70.6280  0.00  0.00     0.000 HD
ATOM     11   O  BGC C   1      28.539  53.526  68.6410  0.00  0.00     0.000 O
ATOM     13  HD  BGC C   1      29.031  52.827  68.7810  0.00  0.00     0.000 HD
ATOM     13   O  BGC C   1      27.770  51.326  65.6620  0.00  0.00     0.000 O
ATOM     15  HD  BGC C   1      28.262  50.627  65.8010  0.00  0.00     0.000 HD
ATOM     15   C  BGC C   1      27.899  52.769  65.7910  0.00  0.00     0.000 C
ENDROOT
BRANCH 1 16
ATOM     16  O4  BGC C   2      23.431  52.782  66.8820  0.00  0.00     0.000 O
BRANCH 16 20
ATOM     17  C1  BGC C   2      20.362  53.960  64.4590  0.00  0.00     0.000 C
ATOM     18  C2  BGC C   2      21.600  53.430  63.7530  0.00  0.00     0.000 C
ATOM     19  C3  BGC C   2      22.506  52.696  64.7320  0.00  0.00     0.000 C
ATOM     20  C4  BGC C   2      22.772  53.565  65.9150  0.00  0.00     0.000 C
ATOM     21  C5  BGC C   2      21.471  54.106  66.5000  0.00  0.00     0.000 C
ATOM     22  O5  BGC C   2      20.730  54.782  65.5290  0.00  0.00     0.000 O
ATOM     23   O  BGC C   2      21.190  52.552  62.6940  0.00  0.00     0.000 O
ATOM     25  HD  BGC C   2      21.713  51.862  62.6600  0.00  0.00     0.000 HD
ATOM     25   O  BGC C   2      23.732  52.376  64.0840  0.00  0.00     0.000 O
ATOM     27  HD  BGC C   2      24.255  51.687  64.0500  0.00  0.00     0.000 HD
ATOM     27   C  BGC C   2      21.648  55.034  67.7200  0.00  0.00     0.000 C
ATOM     28   O  BGC C   2      22.542  56.118  67.4240  0.00  0.00     0.000 O
ATOM     30  HD  BGC C   2      23.066  55.429  67.3900  0.00  0.00     0.000 HD
BRANCH 17 30
ATOM     30  O4  BGC C   3      19.599  54.723  63.5490  0.00  0.00     0.000 O
BRANCH 30 34
ATOM     31  C1  BGC C   3      15.758  55.539  62.5910  0.00  0.00     0.000 C
ATOM     32  C2  BGC C   3      16.355  56.380  63.7440  0.00  0.00     0.000 C
ATOM     33  C3  BGC C   3      17.838  56.258  63.7880  0.00  0.00     0.000 C
ATOM     34  C4  BGC C   3      18.201  54.771  63.7890  0.00  0.00     0.000 C
ATOM     35  C5  BGC C   3      17.478  53.951  62.6900  0.00  0.00     0.000 C
ATOM     36  O5  BGC C   3      16.092  54.182  62.7460  0.00  0.00     0.000 O
ATOM     37   O  BGC C   3      16.064  57.765  63.7870  0.00  0.00     0.000 O
ATOM     39  HD  BGC C   3      16.660  57.150  63.9170  0.00  0.00     0.000 HD
ATOM     39   O  BGC C   3      18.365  56.929  64.9710  0.00  0.00     0.000 O
ATOM     41  HD  BGC C   3      18.960  56.314  65.1010  0.00  0.00     0.000 HD
ATOM     41   C  BGC C   3      17.678  52.420  62.7760  0.00  0.00     0.000 C
ATOM     42   O  BGC C   3      17.125  51.782  63.9820  0.00  0.00     0.000 O
ATOM     44  HD  BGC C   3      17.721  51.167  64.1120  0.00  0.00     0.000 HD
BRANCH 31 44
ATOM     44  O4  BGC C   4      14.375  55.657  62.5530  0.00  0.00     0.000 O
BRANCH 44 48
ATOM     45  C1  BGC C   4      11.113  55.958  60.0960  0.00  0.00     0.000 C
ATOM     46  C2  BGC C   4      11.731  54.524  60.0490  0.00  0.00     0.000 C
ATOM     47  C3  BGC C   4      12.701  54.556  61.2380  0.00  0.00     0.000 C
ATOM     48  C4  BGC C   4      13.688  55.702  61.3370  0.00  0.00     0.000 C
ATOM     49  C5  BGC C   4      12.849  56.990  61.3550  0.00  0.00     0.000 C
ATOM     50  O5  BGC C   4      12.021  57.060  60.2470  0.00  0.00     0.000 O
ATOM     51   O  BGC C   4      10.886  53.243  60.1730  0.00  0.00     0.000 O
ATOM     53  HD  BGC C   4      11.385  52.539  60.2450  0.00  0.00     0.000 HD
ATOM     53   O  BGC C   4      13.552  53.361  60.9050  0.00  0.00     0.000 O
ATOM     55  HD  BGC C   4      14.051  52.657  60.9780  0.00  0.00     0.000 HD
ATOM     55   C  BGC C   4      13.723  58.215  61.2860  0.00  0.00     0.000 C
ATOM     56   O  BGC C   4      14.613  58.279  60.1660  0.00  0.00     0.000 O
ATOM     58  HD  BGC C   4      15.112  57.575  60.2380  0.00  0.00     0.000 HD
BRANCH 45 58
ATOM     58  O4  BGC C   5      10.367  56.249  58.9520  0.00  0.00     0.000 O
BRANCH 58 62
ATOM     59  C1  BGC C   5       7.695  54.770  59.1060  0.00  0.00     0.000 C
ATOM     60  C2  BGC C   5       7.668  55.537  57.8790  0.00  0.00     0.000 C
ATOM     61  C3  BGC C   5       8.175  56.968  58.0390  0.00  0.00     0.000 C
ATOM     62  C4  BGC C   5       9.162  57.014  59.1970  0.00  0.00     0.000 C
ATOM     63  C5  BGC C   5       8.554  56.229  60.3360  0.00  0.00     0.000 C
ATOM     64  O5  BGC C   5       7.453  55.368  60.0520  0.00  0.00     0.000 O
ATOM     65   O  BGC C   5       7.147  58.025  61.1290  0.00  0.00     0.000 O
ATOM     67  HD  BGC C   5       7.905  57.613  61.1990  0.00  0.00     0.000 HD
ATOM     67   O  BGC C   5       7.147  58.025  61.1290  0.00  0.00     0.000 O
ATOM     69  HD  BGC C   5       7.905  57.613  61.1990  0.00  0.00     0.000 HD
ENDBRANCH 58 62
ENDBRANCH 45 58
ENDBRANCH 44 48
ENDBRANCH 31 44
ENDBRANCH 30 34
ENDBRANCH 17 30
ENDBRANCH 16 20
ENDBRANCH 1 16
TORSDOF 8
ENDMDL
MODEL 7
REMARK VINA RESULT:      -0.1     46.092     52.282
ROOT
ATOM      1  C1  BGC C   1      48.879   3.301  33.6480  0.00  0.00     0.000 C
ATOM      2  C2  BGC C   1      47.896   2.145  33.8340  0.00  0.00     0.000 C
ATOM      3  C3  BGC C   1      47.172   1.860  32.5230  0.00  0.00     0.000 C
ATOM      4  C4  BGC C   1      46.580   3.117  31.9070  0.00  0.00     0.000 C
ATOM      5  C5  BGC C   1      47.607   4.245  31.9200  0.00  0.00     0.000 C
ATOM      6  O5  BGC C   1      48.242   4.414  33.1470  0.00  0.00     0.000 O
ATOM      7   O  BGC C   1      48.638   1.020  34.2380  0.00  0.00     0.000 O
ATOM      9  HD  BGC C   1      47.784   1.132  34.3290  0.00  0.00     0.000 HD
ATOM      9   O  BGC C   1      46.172   0.863  32.7750  0.00  0.00     0.000 O
ATOM     11  HD  BGC C   1      45.318   0.976  32.8660  0.00  0.00     0.000 HD
ATOM     11   O  BGC C   1      46.201   2.784  30.5760  0.00  0.00     0.000 O
ATOM     13  HD  BGC C   1      45.347   2.896  30.6670  0.00  0.00     0.000 HD
ATOM     13   O  BGC C   1      45.965   5.968  32.6050  0.00  0.00     0.000 O
ATOM     15  HD  BGC C   1      45.111   6.081  32.6960  0.00  0.00     0.000 HD
ATOM     15   C  BGC C   1      46.885   5.555  31.5570  0.00  0.00     0.000 C
ENDROOT
BRANCH 1 16
ATOM     16  O4  BGC C   2      49.399   3.656  34.9070  0.00  0.00     0.000 O
BRANCH 16 20
ATOM     17  C1  BGC C   2      52.885   5.135  36.4370  0.00  0.00     0.000 C
ATOM     18  C2  BGC C   2      51.925   6.161  35.8560  0.00  0.00     0.000 C
ATOM     19  C3  BGC C   2      50.542   5.557  35.6590  0.00  0.00     0.000 C
ATOM     20  C4  BGC C   2      50.658   4.286  34.8870  0.00  0.00     0.000 C
ATOM     21  C5  BGC C   2      51.699   3.360  35.5080  0.00  0.00     0.000 C
ATOM     22  O5  BGC C   2      52.934   4.001  35.6190  0.00  0.00     0.000 O
ATOM     23   O  BGC C   2      51.859   7.288  36.7430  0.00  0.00     0.000 O
ATOM     25  HD  BGC C   2      51.043   7.570  36.8050  0.00  0.00     0.000 HD
ATOM     25   O  BGC C   2      49.726   6.480  34.9480  0.00  0.00     0.000 O
ATOM     27  HD  BGC C   2      48.909   6.762  35.0090  0.00  0.00     0.000 HD
ATOM     27   C  BGC C   2      51.902   2.024  34.7630  0.00  0.00     0.000 C
ATOM     28   O  BGC C   2      52.204   2.243  33.3760  0.00  0.00     0.000 O
ATOM     30  HD  BGC C   2      51.387   2.525  33.4370  0.00  0.00     0.000 HD
BRANCH 17 30
ATOM     30  O4  BGC C   3      54.179   5.694  36.5080  0.00  0.00     0.000 O
BRANCH 30 34
ATOM     31  C1  BGC C   3      57.468   5.701  38.8570  0.00  0.00     0.000 C
ATOM     32  C2  BGC C   3      57.363   4.528  37.8530  0.00  0.00     0.000 C
ATOM     33  C3  BGC C   3      56.326   4.796  36.8180  0.00  0.00     0.000 C
ATOM     34  C4  BGC C   3      55.027   5.187  37.5270  0.00  0.00     0.000 C
ATOM     35  C5  BGC C   3      55.210   6.279  38.6120  0.00  0.00     0.000 C
ATOM     36  O5  BGC C   3      56.235   5.910  39.5010  0.00  0.00     0.000 O
ATOM     37   O  BGC C   3      58.530   4.132  37.1580  0.00  0.00     0.000 O
ATOM     39  HD  BGC C   3      57.674   4.255  37.1160  0.00  0.00     0.000 HD
ATOM     39   O  BGC C   3      56.134   3.619  35.9800  0.00  0.00     0.000 O
ATOM     41  HD  BGC C   3      55.278   3.742  35.9380  0.00  0.00     0.000 HD
ATOM     41   C  BGC C   3      53.958   6.567  39.4720  0.00  0.00     0.000 C
ATOM     42   O  BGC C   3      53.498   5.444  40.3070  0.00  0.00     0.000 O
ATOM     44  HD  BGC C   3      52.642   5.566  40.2640  0.00  0.00     0.000 HD
BRANCH 31 44
ATOM     44  O4  BGC C   4      58.437   5.447  39.8190  0.00  0.00     0.000 O
BRANCH 44 48
ATOM     45  C1  BGC C   4      61.422   7.111  42.0740  0.00  0.00     0.000 C
ATOM     46  C2  BGC C   4      60.014   7.585  42.5550  0.00  0.00     0.000 C
ATOM     47  C3  BGC C   4      59.081   6.625  41.8050  0.00  0.00     0.000 C
ATOM     48  C4  BGC C   4      59.253   6.471  40.3070  0.00  0.00     0.000 C
ATOM     49  C5  BGC C   4      60.705   6.014  40.0870  0.00  0.00     0.000 C
ATOM     50  O5  BGC C   4      61.598   6.902  40.6640  0.00  0.00     0.000 O
ATOM     51   O  BGC C   4      59.590   7.582  44.0350  0.00  0.00     0.000 O
ATOM     53  HD  BGC C   4      58.747   7.760  44.1250  0.00  0.00     0.000 HD
ATOM     53   O  BGC C   4      57.780   7.364  41.9540  0.00  0.00     0.000 O
ATOM     55  HD  BGC C   4      56.937   7.542  42.0430  0.00  0.00     0.000 HD
ATOM     55   C  BGC C   4      61.055   5.982  38.6220  0.00  0.00     0.000 C
ATOM     56   O  BGC C   4      60.862   7.211  37.9120  0.00  0.00     0.000 O
ATOM     58  HD  BGC C   4      60.019   7.389  38.0010  0.00  0.00     0.000 HD
BRANCH 45 58
ATOM     58  O4  BGC C   5      62.433   8.001  42.4430  0.00  0.00     0.000 O
BRANCH 58 62
ATOM     59  C1  BGC C   5      63.013   7.663  45.4270  0.00  0.00     0.000 C
ATOM     60  C2  BGC C   5      63.935   8.666  44.9420  0.00  0.00     0.000 C
ATOM     61  C3  BGC C   5      64.598   8.301  43.6170  0.00  0.00     0.000 C
ATOM     62  C4  BGC C   5      63.674   7.371  42.8440  0.00  0.00     0.000 C
ATOM     63  C5  BGC C   5      63.164   6.334  43.8170  0.00  0.00     0.000 C
ATOM     64  O5  BGC C   5      63.322   6.581  45.2130  0.00  0.00     0.000 O
ATOM     65   O  BGC C   5      65.117   4.917  43.6880  0.00  0.00     0.000 O
ATOM     67  HD  BGC C   5      64.321   5.084  43.3910  0.00  0.00     0.000 HD
ATOM     67   O  BGC C   5      65.117   4.917  43.6880  0.00  0.00     0.000 O
ATOM     69  HD  BGC C   5      64.321   5.084  43.3910  0.00  0.00     0.000 HD
ENDBRANCH 58 62
ENDBRANCH 45 58
ENDBRANCH 44 48
ENDBRANCH 31 44
ENDBRANCH 30 34
ENDBRANCH 17 30
ENDBRANCH 16 20
ENDBRANCH 1 16
TORSDOF 8
ENDMDL
MODEL 8
REMARK VINA RESULT:      -0.1     54.790     57.204
ROOT
ATOM      1  C1  BGC C   1      50.411  49.988  26.4660  0.00  0.00     0.000 C
ATOM      2  C2  BGC C   1      48.999  50.470  26.7950  0.00  0.00     0.000 C
ATOM      3  C3  BGC C   1      48.919  50.892  28.2570  0.00  0.00     0.000 C
ATOM      4  C4  BGC C   1      49.471  49.830  29.1930  0.00  0.00     0.000 C
ATOM      5  C5  BGC C   1      50.811  49.315  28.6760  0.00  0.00     0.000 C
ATOM      6  O5  BGC C   1      50.801  48.984  27.3230  0.00  0.00     0.000 O
ATOM      7   O  BGC C   1      48.720  51.564  25.9540  0.00  0.00     0.000 O
ATOM      9  HD  BGC C   1      48.140  51.083  26.3810  0.00  0.00     0.000 HD
ATOM      9   O  BGC C   1      47.553  51.211  28.5540  0.00  0.00     0.000 O
ATOM     11  HD  BGC C   1      46.973  50.730  28.9810  0.00  0.00     0.000 HD
ATOM     11   O  BGC C   1      49.617  50.442  30.4700  0.00  0.00     0.000 O
ATOM     13  HD  BGC C   1      49.037  49.961  30.8970  0.00  0.00     0.000 HD
ATOM     13   O  BGC C   1      50.299  46.947  29.1930  0.00  0.00     0.000 O
ATOM     15  HD  BGC C   1      49.719  46.465  29.6200  0.00  0.00     0.000 HD
ATOM     15   C  BGC C   1      51.188  48.061  29.4850  0.00  0.00     0.000 C
ENDROOT
BRANCH 1 16
ATOM     16  O4  BGC C   2      50.409  49.443  25.1680  0.00  0.00     0.000 O
BRANCH 16 20
ATOM     17  C1  BGC C   2      52.993  49.096  22.0250  0.00  0.00     0.000 C
ATOM     18  C2  BGC C   2      53.145  48.059  23.1270  0.00  0.00     0.000 C
ATOM     19  C3  BGC C   2      51.926  48.060  24.0390  0.00  0.00     0.000 C
ATOM     20  C4  BGC C   2      51.652  49.450  24.5060  0.00  0.00     0.000 C
ATOM     21  C5  BGC C   2      51.595  50.422  23.3310  0.00  0.00     0.000 C
ATOM     22  O5  BGC C   2      52.769  50.361  22.5770  0.00  0.00     0.000 O
ATOM     23   O  BGC C   2      53.322  46.767  22.5270  0.00  0.00     0.000 O
ATOM     25  HD  BGC C   2      52.876  46.171  22.9690  0.00  0.00     0.000 HD
ATOM     25   O  BGC C   2      52.179  47.217  25.1570  0.00  0.00     0.000 O
ATOM     27  HD  BGC C   2      51.733  46.621  25.5990  0.00  0.00     0.000 HD
ATOM     27   C  BGC C   2      51.335  51.891  23.7200  0.00  0.00     0.000 C
ATOM     28   O  BGC C   2      52.289  52.350  24.6920  0.00  0.00     0.000 O
ATOM     30  HD  BGC C   2      51.843  51.753  25.1340  0.00  0.00     0.000 HD
BRANCH 17 30
ATOM     30  O4  BGC C   3      54.181  49.142  21.2630  0.00  0.00     0.000 O
BRANCH 30 34
ATOM     31  C1  BGC C   3      55.447  49.632  17.4560  0.00  0.00     0.000 C
ATOM     32  C2  BGC C   3      55.175  50.935  18.2450  0.00  0.00     0.000 C
ATOM     33  C3  BGC C   3      55.057  50.665  19.7050  0.00  0.00     0.000 C
ATOM     34  C4  BGC C   3      54.041  49.538  19.9070  0.00  0.00     0.000 C
ATOM     35  C5  BGC C   3      54.287  48.305  19.0000  0.00  0.00     0.000 C
ATOM     36  O5  BGC C   3      54.407  48.707  17.6580  0.00  0.00     0.000 O
ATOM     37   O  BGC C   3      56.089  52.007  18.1080  0.00  0.00     0.000 O
ATOM     39  HD  BGC C   3      55.573  51.565  18.6450  0.00  0.00     0.000 HD
ATOM     39   O  BGC C   3      54.648  51.875  20.4100  0.00  0.00     0.000 O
ATOM     41  HD  BGC C   3      54.132  51.432  20.9470  0.00  0.00     0.000 HD
ATOM     41   C  BGC C   3      53.180  47.227  19.0440  0.00  0.00     0.000 C
ATOM     42   O  BGC C   3      51.863  47.659  18.5450  0.00  0.00     0.000 O
ATOM     44  HD  BGC C   3      51.348  47.217  19.0820  0.00  0.00     0.000 HD
BRANCH 31 44
ATOM     44  O4  BGC C   4      55.558  49.889  16.0950  0.00  0.00     0.000 O
BRANCH 44 48
ATOM     45  C1  BGC C   4      57.567  48.911  12.6650  0.00  0.00     0.000 C
ATOM     46  C2  BGC C   4      56.622  47.754  13.1200  0.00  0.00     0.000 C
ATOM     47  C3  BGC C   4      55.772  48.442  14.1960  0.00  0.00     0.000 C
ATOM     48  C4  BGC C   4      56.479  49.197  15.3050  0.00  0.00     0.000 C
ATOM     49  C5  BGC C   4      57.346  50.260  14.6120  0.00  0.00     0.000 C
ATOM     50  O5  BGC C   4      58.207  49.680  13.6940  0.00  0.00     0.000 O
ATOM     51   O  BGC C   4      55.659  47.032  12.1600  0.00  0.00     0.000 O
ATOM     53  HD  BGC C   4      55.125  46.500  12.5860  0.00  0.00     0.000 HD
ATOM     53   O  BGC C   4      55.197  47.232  14.8810  0.00  0.00     0.000 O
ATOM     55  HD  BGC C   4      54.663  46.701  15.3070  0.00  0.00     0.000 HD
ATOM     55   C  BGC C   4      58.231  50.975  15.6000  0.00  0.00     0.000 C
ATOM     56   O  BGC C   4      59.091  50.138  16.3810  0.00  0.00     0.000 O
ATOM     58  HD  BGC C   4      58.557  49.607  16.8080  0.00  0.00     0.000 HD
BRANCH 45 58
ATOM     58  O4  BGC C   5      58.604  48.454  11.8480  0.00  0.00     0.000 O
BRANCH 58 62
ATOM     59  C1  BGC C   5      57.489  47.870   9.0610  0.00  0.00     0.000 C
ATOM     60  C2  BGC C   5      58.909  47.599   8.9980  0.00  0.00     0.000 C
ATOM     61  C3  BGC C   5      59.767  48.669   9.6670  0.00  0.00     0.000 C
ATOM     62  C4  BGC C   5      58.950  49.345  10.7590  0.00  0.00     0.000 C
ATOM     63  C5  BGC C   5      57.583  49.633  10.1830  0.00  0.00     0.000 C
ATOM     64  O5  BGC C   5      57.206  48.976   8.9750  0.00  0.00     0.000 O
ATOM     65   O  BGC C   5      58.233  51.669   9.0560  0.00  0.00     0.000 O
ATOM     67  HD  BGC C   5      57.898  51.310   9.7700  0.00  0.00     0.000 HD
ATOM     67   O  BGC C   5      58.233  51.669   9.0560  0.00  0.00     0.000 O
ATOM     69  HD  BGC C   5      57.898  51.310   9.7700  0.00  0.00     0.000 HD
ENDBRANCH 58 62
ENDBRANCH 45 58
ENDBRANCH 44 48
ENDBRANCH 31 44
ENDBRANCH 30 34
ENDBRANCH 17 30
ENDBRANCH 16 20
ENDBRANCH 1 16
TORSDOF 8
ENDMDL
MODEL 9
REMARK VINA RESULT:      -0.1     53.930     56.242
ROOT
ATOM      1  C1  BGC C   1      50.411  49.988  26.4660  0.00  0.00     0.000 C
ATOM      2  C2  BGC C   1      49.084  50.434  27.0790  0.00  0.00     0.000 C
ATOM      3  C3  BGC C   1      49.285  50.811  28.5420  0.00  0.00     0.000 C
ATOM      4  C4  BGC C   1      50.023  49.732  29.3170  0.00  0.00     0.000 C
ATOM      5  C5  BGC C   1      51.243  49.258  28.5330  0.00  0.00     0.000 C
ATOM      6  O5  BGC C   1      50.974  48.967  27.1980  0.00  0.00     0.000 O
ATOM      7   O  BGC C   1      48.632  51.547  26.3450  0.00  0.00     0.000 O
ATOM      9  HD  BGC C   1      48.153  51.042  26.8600  0.00  0.00     0.000 HD
ATOM      9   O  BGC C   1      47.999  51.095  29.1090  0.00  0.00     0.000 O
ATOM     11  HD  BGC C   1      47.520  50.590  29.6240  0.00  0.00     0.000 HD
ATOM     11   O  BGC C   1      50.407  50.309  30.5610  0.00  0.00     0.000 O
ATOM     13  HD  BGC C   1      49.927  49.804  31.0760  0.00  0.00     0.000 HD
ATOM     13   O  BGC C   1      50.871  46.866  29.0620  0.00  0.00     0.000 O
ATOM     15  HD  BGC C   1      50.391  46.361  29.5770  0.00  0.00     0.000 HD
ATOM     15   C  BGC C   1      51.786  47.987  29.2120  0.00  0.00     0.000 C
ENDROOT
BRANCH 1 16
ATOM     16  O4  BGC C   2      50.163  49.481  25.1760  0.00  0.00     0.000 O
BRANCH 16 20
ATOM     17  C1  BGC C   2      52.089  49.277  21.5810  0.00  0.00     0.000 C
ATOM     18  C2  BGC C   2      52.466  48.211  22.5980  0.00  0.00     0.000 C
ATOM     19  C3  BGC C   2      51.449  48.161  23.7290  0.00  0.00     0.000 C
ATOM     20  C4  BGC C   2      51.253  49.531  24.2860  0.00  0.00     0.000 C
ATOM     21  C5  BGC C   2      50.956  50.536  23.1770  0.00  0.00     0.000 C
ATOM     22  O5  BGC C   2      51.961  50.521  22.2080  0.00  0.00     0.000 O
ATOM     23   O  BGC C   2      52.539  46.941  21.9330  0.00  0.00     0.000 O
ATOM     25  HD  BGC C   2      52.195  46.323  22.4330  0.00  0.00     0.000 HD
ATOM     25   O  BGC C   2      51.925  47.291  24.7480  0.00  0.00     0.000 O
ATOM     27  HD  BGC C   2      51.581  46.673  25.2490  0.00  0.00     0.000 HD
ATOM     27   C  BGC C   2      50.758  51.989  23.6570  0.00  0.00     0.000 C
ATOM     28   O  BGC C   2      51.877  52.436  24.4390  0.00  0.00     0.000 O
ATOM     30  HD  BGC C   2      51.533  51.818  24.9400  0.00  0.00     0.000 HD
BRANCH 17 30
ATOM     30  O4  BGC C   3      53.105  49.368  20.6040  0.00  0.00     0.000 O
BRANCH 30 34
ATOM     31  C1  BGC C   3      53.599  49.994  16.6420  0.00  0.00     0.000 C
ATOM     32  C2  BGC C   3      53.470  51.268  17.5120  0.00  0.00     0.000 C
ATOM     33  C3  BGC C   3      53.642  50.953  18.9570  0.00  0.00     0.000 C
ATOM     34  C4  BGC C   3      52.699  49.801  19.3150  0.00  0.00     0.000 C
ATOM     35  C5  BGC C   3      52.779  48.600  18.3380  0.00  0.00     0.000 C
ATOM     36  O5  BGC C   3      52.630  49.045  17.0130  0.00  0.00     0.000 O
ATOM     37   O  BGC C   3      54.326  52.360  17.2350  0.00  0.00     0.000 O
ATOM     39  HD  BGC C   3      53.930  51.893  17.8470  0.00  0.00     0.000 HD
ATOM     39   O  BGC C   3      53.362  52.133  19.7670  0.00  0.00     0.000 O
ATOM     41  HD  BGC C   3      52.966  51.665  20.3790  0.00  0.00     0.000 HD
ATOM     41   C  BGC C   3      51.715  47.501  18.5610  0.00  0.00     0.000 C
ATOM     42   O  BGC C   3      50.322  47.923  18.3420  0.00  0.00     0.000 O
ATOM     44  HD  BGC C   3      49.926  47.455  18.9540  0.00  0.00     0.000 HD
BRANCH 31 44
ATOM     44  O4  BGC C   4      53.440  50.293  15.2950  0.00  0.00     0.000 O
BRANCH 44 48
ATOM     45  C1  BGC C   4      54.754  49.455  11.5090  0.00  0.00     0.000 C
ATOM     46  C2  BGC C   4      53.930  48.267  12.1020  0.00  0.00     0.000 C
ATOM     47  C3  BGC C   4      53.298  48.907  13.3440  0.00  0.00     0.000 C
ATOM     48  C4  BGC C   4      54.198  49.643  14.3180  0.00  0.00     0.000 C
ATOM     49  C5  BGC C   4      54.900  50.742  13.5060  0.00  0.00     0.000 C
ATOM     50  O5  BGC C   4      55.572  50.206  12.4200  0.00  0.00     0.000 O
ATOM     51   O  BGC C   4      52.808  47.556  11.3240  0.00  0.00     0.000 O
ATOM     53  HD  BGC C   4      52.374  47.003  11.8280  0.00  0.00     0.000 HD
ATOM     53   O  BGC C   4      52.883  47.667  14.0880  0.00  0.00     0.000 O
ATOM     55  HD  BGC C   4      52.448  47.114  14.5920  0.00  0.00     0.000 HD
ATOM     55   C  BGC C   4      55.951  51.444  14.3260  0.00  0.00     0.000 C
ATOM     56   O  BGC C   4      56.958  50.600  14.8970  0.00  0.00     0.000 O
ATOM     58  HD  BGC C   4      56.523  50.046  15.4020  0.00  0.00     0.000 HD
BRANCH 45 58
ATOM     58  O4  BGC C   5      55.617  49.042  10.4920  0.00  0.00     0.000 O
BRANCH 58 62
ATOM     59  C1  BGC C   5      53.988  48.520   7.9570  0.00  0.00     0.000 C
ATOM     60  C2  BGC C   5      55.372  48.278   7.6110  0.00  0.00     0.000 C
ATOM     61  C3  BGC C   5      56.330  49.344   8.1350  0.00  0.00     0.000 C
ATOM     62  C4  BGC C   5      55.734  49.971   9.3860  0.00  0.00     0.000 C
ATOM     63  C5  BGC C   5      54.277  50.251   9.0970  0.00  0.00     0.000 C
ATOM     64  O5  BGC C   5      53.680  49.623   7.9640  0.00  0.00     0.000 O
ATOM     65   O  BGC C   5      54.669  52.331   7.9330  0.00  0.00     0.000 O
ATOM     67  HD  BGC C   5      54.484  51.945   8.6850  0.00  0.00     0.000 HD
ATOM     67   O  BGC C   5      54.669  52.331   7.9330  0.00  0.00     0.000 O
ATOM     69  HD  BGC C   5      54.484  51.945   8.6850  0.00  0.00     0.000 HD
ENDBRANCH 58 62
ENDBRANCH 45 58
ENDBRANCH 44 48
ENDBRANCH 31 44
ENDBRANCH 30 34
ENDBRANCH 17 30
ENDBRANCH 16 20
ENDBRANCH 1 16
TORSDOF 8
ENDMDL
MODEL 10
REMARK VINA RESULT:      -0.1     60.995     66.798
ROOT
ATOM      1  C1  BGC C   1      57.355  63.813  17.8670  0.00  0.00     0.000 C
ATOM      2  C2  BGC C   1      58.044  62.719  17.0530  0.00  0.00     0.000 C
ATOM      3  C3  BGC C   1      59.487  62.555  17.5140  0.00  0.00     0.000 C
ATOM      4  C4  BGC C   1      60.228  63.881  17.5690  0.00  0.00     0.000 C
ATOM      5  C5  BGC C   1      59.374  64.934  18.2690  0.00  0.00     0.000 C
ATOM      6  O5  BGC C   1      58.062  64.992  17.8060  0.00  0.00     0.000 O
ATOM      7   O  BGC C   1      57.327  61.525  17.2560  0.00  0.00     0.000 O
ATOM      9  HD  BGC C   1      57.876  61.690  16.6080  0.00  0.00     0.000 HD
ATOM      9   O  BGC C   1      60.130  61.617  16.6410  0.00  0.00     0.000 O
ATOM     11  HD  BGC C   1      60.680  61.782  15.9920  0.00  0.00     0.000 HD
ATOM     11   O  BGC C   1      61.438  63.648  18.2810  0.00  0.00     0.000 O
ATOM     13  HD  BGC C   1      61.988  63.813  17.6320  0.00  0.00     0.000 HD
ATOM     13   O  BGC C   1      59.953  66.726  16.6590  0.00  0.00     0.000 O
ATOM     15  HD  BGC C   1      60.502  66.891  16.0100  0.00  0.00     0.000 HD
ATOM     15   C  BGC C   1      60.032  66.308  18.0500  0.00  0.00     0.000 C
ENDROOT
BRANCH 1 16
ATOM     16  O4  BGC C   2      56.088  64.063  17.3050  0.00  0.00     0.000 O
BRANCH 16 20
ATOM     17  C1  BGC C   2      52.383  65.215  18.5760  0.00  0.00     0.000 C
ATOM     18  C2  BGC C   2      53.387  66.335  18.3530  0.00  0.00     0.000 C
ATOM     19  C3  BGC C   2      54.580  65.838  17.5490  0.00  0.00     0.000 C
ATOM     20  C4  BGC C   2      55.132  64.605  18.1830  0.00  0.00     0.000 C
ATOM     21  C5  BGC C   2      54.032  63.578  18.4330  0.00  0.00     0.000 C
ATOM     22  O5  BGC C   2      53.002  64.126  19.2000  0.00  0.00     0.000 O
ATOM     23   O  BGC C   2      52.733  67.413  17.6670  0.00  0.00     0.000 O
ATOM     25  HD  BGC C   2      53.261  67.747  17.0670  0.00  0.00     0.000 HD
ATOM     25   O  BGC C   2      55.577  66.852  17.5180  0.00  0.00     0.000 O
ATOM     27  HD  BGC C   2      56.105  67.185  16.9180  0.00  0.00     0.000 HD
ATOM     27   C  BGC C   2      54.507  62.274  19.1070  0.00  0.00     0.000 C
ATOM     28   O  BGC C   2      55.213  62.546  20.3280  0.00  0.00     0.000 O
ATOM     30  HD  BGC C   2      55.741  62.880  19.7280  0.00  0.00     0.000 HD
BRANCH 17 30
ATOM     30  O4  BGC C   3      51.344  65.680  19.4110  0.00  0.00     0.000 O
BRANCH 30 34
ATOM     31  C1  BGC C   3      47.352  65.335  19.9390  0.00  0.00     0.000 C
ATOM     32  C2  BGC C   3      48.213  64.228  20.5930  0.00  0.00     0.000 C
ATOM     33  C3  BGC C   3      49.648  64.622  20.6430  0.00  0.00     0.000 C
ATOM     34  C4  BGC C   3      50.078  65.062  19.2410  0.00  0.00     0.000 C
ATOM     35  C5  BGC C   3      49.111  66.078  18.5820  0.00  0.00     0.000 C
ATOM     36  O5  BGC C   3      47.793  65.594  18.6290  0.00  0.00     0.000 O
ATOM     37   O  BGC C   3      47.870  63.791  21.8940  0.00  0.00     0.000 O
ATOM     39  HD  BGC C   3      48.512  63.974  21.3420  0.00  0.00     0.000 HD
ATOM     39   O  BGC C   3      50.460  63.507  21.1170  0.00  0.00     0.000 O
ATOM     41  HD  BGC C   3      51.101  63.690  20.5640  0.00  0.00     0.000 HD
ATOM     41   C  BGC C   3      49.413  66.405  17.1010  0.00  0.00     0.000 C
ATOM     42   O  BGC C   3      49.277  65.272  16.1690  0.00  0.00     0.000 O
ATOM     44  HD  BGC C   3      49.918  65.456  15.6160  0.00  0.00     0.000 HD
BRANCH 31 44
ATOM     44  O4  BGC C   4      46.014  64.965  19.8950  0.00  0.00     0.000 O
BRANCH 44 48
ATOM     45  C1  BGC C   4      42.164  66.297  20.2960  0.00  0.00     0.000 C
ATOM     46  C2  BGC C   4      42.820  66.839  18.9860  0.00  0.00     0.000 C
ATOM     47  C3  BGC C   4      44.092  65.987  18.8920  0.00  0.00     0.000 C
ATOM     48  C4  BGC C   4      44.999  65.902  20.1030  0.00  0.00     0.000 C
ATOM     49  C5  BGC C   4      44.132  65.360  21.2510  0.00  0.00     0.000 C
ATOM     50  O5  BGC C   4      43.012  66.152  21.4450  0.00  0.00     0.000 O
ATOM     51   O  BGC C   4      42.122  66.785  17.6150  0.00  0.00     0.000 O
ATOM     53  HD  BGC C   4      42.659  67.016  16.9760  0.00  0.00     0.000 HD
ATOM     53   O  BGC C   4      44.874  66.804  17.9000  0.00  0.00     0.000 O
ATOM     55  HD  BGC C   4      45.411  67.035  17.2610  0.00  0.00     0.000 HD
ATOM     55   C  BGC C   4      44.876  65.383  22.5600  0.00  0.00     0.000 C
ATOM     56   O  BGC C   4      45.393  66.659  22.9570  0.00  0.00     0.000 O
ATOM     58  HD  BGC C   4      45.931  66.889  22.3180  0.00  0.00     0.000 HD
BRANCH 45 58
ATOM     58  O4  BGC C   5      41.099  67.095  20.7220  0.00  0.00     0.000 O
BRANCH 58 62
ATOM     59  C1  BGC C   5      38.677  66.557  18.9340  0.00  0.00     0.000 C
ATOM     60  C2  BGC C   5      38.248  67.520  19.9250  0.00  0.00     0.000 C
ATOM     61  C3  BGC C   5      38.699  67.182  21.3440  0.00  0.00     0.000 C
ATOM     62  C4  BGC C   5      39.978  66.360  21.2720  0.00  0.00     0.000 C
ATOM     63  C5  BGC C   5      39.777  65.310  20.2040  0.00  0.00     0.000 C
ATOM     64  O5  BGC C   5      38.691  65.470  19.2940  0.00  0.00     0.000 O
ATOM     65   O  BGC C   5      38.566  63.772  21.6200  0.00  0.00     0.000 O
ATOM     67  HD  BGC C   5      39.333  64.008  21.2960  0.00  0.00     0.000 HD
ATOM     67   O  BGC C   5      38.566  63.772  21.6200  0.00  0.00     0.000 O
ATOM     69  HD  BGC C   5      39.333  64.008  21.2960  0.00  0.00     0.000 HD
ENDBRANCH 58 62
ENDBRANCH 45 58
ENDBRANCH 44 48
ENDBRANCH 31 44
ENDBRANCH 30 34
ENDBRANCH 17 30
ENDBRANCH 16 20
ENDBRANCH 1 16
TORSDOF 8
ENDMDL
MODEL 11
REMARK VINA RESULT:      -0.1     57.157     66.720
ROOT
ATOM      1  C1  BGC C   1      47.679  67.899  42.7020  0.00  0.00     0.000 C
ATOM      2  C2  BGC C   1      49.168  68.168  42.4880  0.00  0.00     0.000 C
ATOM      3  C3  BGC C   1      49.590  69.411  43.2610  0.00  0.00     0.000 C
ATOM      4  C4  BGC C   1      48.676  70.595  42.9900  0.00  0.00     0.000 C
ATOM      5  C5  BGC C   1      47.215  70.165  43.0810  0.00  0.00     0.000 C
ATOM      6  O5  BGC C   1      46.926  69.002  42.3720  0.00  0.00     0.000 O
ATOM      7   O  BGC C   1      49.872  67.040  42.9520  0.00  0.00     0.000 O
ATOM      9  HD  BGC C   1      50.172  67.648  42.4130  0.00  0.00     0.000 HD
ATOM      9   O  BGC C   1      50.955  69.700  42.9280  0.00  0.00     0.000 O
ATOM     11  HD  BGC C   1      51.255  70.308  42.3890  0.00  0.00     0.000 HD
ATOM     11   O  BGC C   1      48.981  71.582  43.9690  0.00  0.00     0.000 O
ATOM     13  HD  BGC C   1      49.282  72.190  43.4300  0.00  0.00     0.000 HD
ATOM     13   O  BGC C   1      46.525  71.473  41.0930  0.00  0.00     0.000 O
ATOM     15  HD  BGC C   1      46.826  72.081  40.5550  0.00  0.00     0.000 HD
ATOM     15   C  BGC C   1      46.344  71.307  42.5270  0.00  0.00     0.000 C
ENDROOT
BRANCH 1 16
ATOM     16  O4  BGC C   2      47.281  66.857  41.8420  0.00  0.00     0.000 O
BRANCH 16 20
ATOM     17  C1  BGC C   2      44.575  63.798  41.8390  0.00  0.00     0.000 C
ATOM     18  C2  BGC C   2      44.036  65.163  41.4420  0.00  0.00     0.000 C
ATOM     19  C3  BGC C   2      45.174  66.123  41.1280  0.00  0.00     0.000 C
ATOM     20  C4  BGC C   2      46.150  66.128  42.2560  0.00  0.00     0.000 C
ATOM     21  C5  BGC C   2      46.568  64.708  42.6260  0.00  0.00     0.000 C
ATOM     22  O5  BGC C   2      45.454  63.921  42.9210  0.00  0.00     0.000 O
ATOM     23   O  BGC C   2      43.180  65.008  40.3000  0.00  0.00     0.000 O
ATOM     25  HD  BGC C   2      43.309  65.657  39.7420  0.00  0.00     0.000 HD
ATOM     25   O  BGC C   2      44.646  67.430  40.9420  0.00  0.00     0.000 O
ATOM     27  HD  BGC C   2      44.775  68.079  40.3830  0.00  0.00     0.000 HD
ATOM     27   C  BGC C   2      47.564  64.613  43.8000  0.00  0.00     0.000 C
ATOM     28   O  BGC C   2      47.066  65.297  44.9620  0.00  0.00     0.000 O
ATOM     30  HD  BGC C   2      47.196  65.946  44.4030  0.00  0.00     0.000 HD
BRANCH 17 30
ATOM     30  O4  BGC C   3      43.502  62.967  42.2250  0.00  0.00     0.000 O
BRANCH 30 34
ATOM     31  C1  BGC C   3      42.283  59.118  42.0170  0.00  0.00     0.000 C
ATOM     32  C2  BGC C   3      43.244  59.456  43.1810  0.00  0.00     0.000 C
ATOM     33  C3  BGC C   3      43.355  60.927  43.3800  0.00  0.00     0.000 C
ATOM     34  C4  BGC C   3      43.687  61.573  42.0320  0.00  0.00     0.000 C
ATOM     35  C5  BGC C   3      42.770  61.104  40.8720  0.00  0.00     0.000 C
ATOM     36  O5  BGC C   3      42.736  59.700  40.8190  0.00  0.00     0.000 O
ATOM     37   O  BGC C   3      42.979  58.898  44.4550  0.00  0.00     0.000 O
ATOM     39  HD  BGC C   3      43.255  59.591  44.0160  0.00  0.00     0.000 HD
ATOM     39   O  BGC C   3      44.380  61.227  44.3730  0.00  0.00     0.000 O
ATOM     41  HD  BGC C   3      44.656  61.920  43.9340  0.00  0.00     0.000 HD
ATOM     41   C  BGC C   3      43.190  61.593  39.4670  0.00  0.00     0.000 C
ATOM     42   O  BGC C   3      44.490  61.092  38.9900  0.00  0.00     0.000 O
ATOM     44  HD  BGC C   3      44.766  61.785  38.5520  0.00  0.00     0.000 HD
BRANCH 31 44
ATOM     44  O4  BGC C   4      42.182  57.745  41.8360  0.00  0.00     0.000 O
BRANCH 44 48
ATOM     45  C1  BGC C   4      39.628  54.672  40.9460  0.00  0.00     0.000 C
ATOM     46  C2  BGC C   4      39.909  55.560  39.6910  0.00  0.00     0.000 C
ATOM     47  C3  BGC C   4      41.089  56.417  40.1670  0.00  0.00     0.000 C
ATOM     48  C4  BGC C   4      40.966  57.152  41.4870  0.00  0.00     0.000 C
ATOM     49  C5  BGC C   4      40.682  56.078  42.5500  0.00  0.00     0.000 C
ATOM     50  O5  BGC C   4      39.562  55.334  42.2180  0.00  0.00     0.000 O
ATOM     51   O  BGC C   4      40.283  54.974  38.3180  0.00  0.00     0.000 O
ATOM     53  HD  BGC C   4      40.520  55.595  37.7620  0.00  0.00     0.000 HD
ATOM     53   O  BGC C   4      41.048  57.506  39.1310  0.00  0.00     0.000 O
ATOM     55  HD  BGC C   4      41.284  58.127  38.5750  0.00  0.00     0.000 HD
ATOM     55   C  BGC C   4      40.374  56.698  43.8880  0.00  0.00     0.000 C
ATOM     56   O  BGC C   4      39.292  57.637  43.9010  0.00  0.00     0.000 O
ATOM     58  HD  BGC C   4      39.529  58.257  43.3460  0.00  0.00     0.000 HD
BRANCH 45 58
ATOM     58  O4  BGC C   5      38.427  53.967  40.8340  0.00  0.00     0.000 O
BRANCH 58 62
ATOM     59  C1  BGC C   5      38.822  51.630  38.9010  0.00  0.00     0.000 C
ATOM     60  C2  BGC C   5      37.459  51.542  39.3760  0.00  0.00     0.000 C
ATOM     61  C3  BGC C   5      37.320  51.747  40.8820  0.00  0.00     0.000 C
ATOM     62  C4  BGC C   5      38.467  52.621  41.3690  0.00  0.00     0.000 C
ATOM     63  C5  BGC C   5      39.732  52.099  40.7270  0.00  0.00     0.000 C
ATOM     64  O5  BGC C   5      39.610  51.210  39.6180  0.00  0.00     0.000 O
ATOM     65   O  BGC C   5      40.077  50.315  42.3190  0.00  0.00     0.000 O
ATOM     67  HD  BGC C   5      40.257  51.132  42.0950  0.00  0.00     0.000 HD
ATOM     67   O  BGC C   5      40.077  50.315  42.3190  0.00  0.00     0.000 O
ATOM     69  HD  BGC C   5      40.257  51.132  42.0950  0.00  0.00     0.000 HD
ENDBRANCH 58 62
ENDBRANCH 45 58
ENDBRANCH 44 48
ENDBRANCH 31 44
ENDBRANCH 30 34
ENDBRANCH 17 30
ENDBRANCH 16 20
ENDBRANCH 1 16
TORSDOF 8
ENDMDL
MODEL 12
REMARK VINA RESULT:      -0.1     53.005     58.529
ROOT
ATOM      1  C1  BGC C   1      50.570  62.418  16.7040  0.00  0.00     0.000 C
ATOM      2  C2  BGC C   1      51.643  63.480  16.9410  0.00  0.00     0.000 C
ATOM      3  C3  BGC C   1      51.060  64.641  17.7370  0.00  0.00     0.000 C
ATOM      4  C4  BGC C   1      49.764  65.158  17.1350  0.00  0.00     0.000 C
ATOM      5  C5  BGC C   1      48.837  63.994  16.7970  0.00  0.00     0.000 C
ATOM      6  O5  BGC C   1      49.461  62.964  16.0990  0.00  0.00     0.000 O
ATOM      7   O  BGC C   1      52.689  62.870  17.6600  0.00  0.00     0.000 O
ATOM      9  HD  BGC C   1      52.737  63.607  17.2060  0.00  0.00     0.000 HD
ATOM      9   O  BGC C   1      52.059  65.667  17.8220  0.00  0.00     0.000 O
ATOM     11  HD  BGC C   1      52.107  66.403  17.3690  0.00  0.00     0.000 HD
ATOM     11   O  BGC C   1      49.174  66.018  18.1040  0.00  0.00     0.000 O
ATOM     13  HD  BGC C   1      49.223  66.754  17.6510  0.00  0.00     0.000 HD
ATOM     13   O  BGC C   1      48.134  64.955  14.6250  0.00  0.00     0.000 O
ATOM     15  HD  BGC C   1      48.182  65.692  14.1720  0.00  0.00     0.000 HD
ATOM     15   C  BGC C   1      47.678  64.536  15.9420  0.00  0.00     0.000 C
ENDROOT
BRANCH 1 16
ATOM     16  O4  BGC C   2      51.084  61.447  15.8220  0.00  0.00     0.000 O
BRANCH 16 20
ATOM     17  C1  BGC C   2      50.678  57.438  15.1590  0.00  0.00     0.000 C
ATOM     18  C2  BGC C   2      49.609  58.326  14.5420  0.00  0.00     0.000 C
ATOM     19  C3  BGC C   2      50.052  59.782  14.5390  0.00  0.00     0.000 C
ATOM     20  C4  BGC C   2      50.490  60.174  15.9100  0.00  0.00     0.000 C
ATOM     21  C5  BGC C   2      51.503  59.178  16.4670  0.00  0.00     0.000 C
ATOM     22  O5  BGC C   2      50.989  57.881  16.4500  0.00  0.00     0.000 O
ATOM     23   O  BGC C   2      49.350  57.877  13.2030  0.00  0.00     0.000 O
ATOM     25  HD  BGC C   2      49.249  58.557  12.6760  0.00  0.00     0.000 HD
ATOM     25   O  BGC C   2      48.963  60.601  14.1280  0.00  0.00     0.000 O
ATOM     27  HD  BGC C   2      48.861  61.280  13.6020  0.00  0.00     0.000 HD
ATOM     27   C  BGC C   2      52.000  59.492  17.8930  0.00  0.00     0.000 C
ATOM     28   O  BGC C   2      50.901  59.640  18.8070  0.00  0.00     0.000 O
ATOM     30  HD  BGC C   2      50.799  60.319  18.2800  0.00  0.00     0.000 HD
BRANCH 17 30
ATOM     30  O4  BGC C   3      50.194  56.115  15.2420  0.00  0.00     0.000 O
BRANCH 30 34
ATOM     31  C1  BGC C   3      51.446  52.289  14.8830  0.00  0.00     0.000 C
ATOM     32  C2  BGC C   3      51.678  52.944  16.2660  0.00  0.00     0.000 C
ATOM     33  C3  BGC C   3      50.888  54.198  16.4070  0.00  0.00     0.000 C
ATOM     34  C4  BGC C   3      51.170  55.085  15.1920  0.00  0.00     0.000 C
ATOM     35  C5  BGC C   3      51.045  54.346  13.8360  0.00  0.00     0.000 C
ATOM     36  O5  BGC C   3      51.816  53.171  13.8520  0.00  0.00     0.000 O
ATOM     37   O  BGC C   3      51.421  52.174  17.4260  0.00  0.00     0.000 O
ATOM     39  HD  BGC C   3      51.374  52.956  17.0550  0.00  0.00     0.000 HD
ATOM     39   O  BGC C   3      51.240  54.878  17.6480  0.00  0.00     0.000 O
ATOM     41  HD  BGC C   3      51.193  55.659  17.2780  0.00  0.00     0.000 HD
ATOM     41   C  BGC C   3      51.498  55.159  12.6010  0.00  0.00     0.000 C
ATOM     42   O  BGC C   3      52.928  55.513  12.5740  0.00  0.00     0.000 O
ATOM     44  HD  BGC C   3      52.881  56.295  12.2040  0.00  0.00     0.000 HD
BRANCH 31 44
ATOM     44  O4  BGC C   4      52.184  51.119  14.7560  0.00  0.00     0.000 O
BRANCH 44 48
ATOM     45  C1  BGC C   4      52.156  47.294  13.2980  0.00  0.00     0.000 C
ATOM     46  C2  BGC C   4      52.236  48.343  12.1430  0.00  0.00     0.000 C
ATOM     47  C3  BGC C   4      52.545  49.636  12.9080  0.00  0.00     0.000 C
ATOM     48  C4  BGC C   4      51.665  50.009  14.0850  0.00  0.00     0.000 C
ATOM     49  C5  BGC C   4      51.741  48.829  15.0670  0.00  0.00     0.000 C
ATOM     50  O5  BGC C   4      51.375  47.644  14.4500  0.00  0.00     0.000 O
ATOM     51   O  BGC C   4      53.244  48.237  10.9840  0.00  0.00     0.000 O
ATOM     53  HD  BGC C   4      53.240  48.951  10.4940  0.00  0.00     0.000 HD
ATOM     53   O  BGC C   4      52.199  50.648  11.8510  0.00  0.00     0.000 O
ATOM     55  HD  BGC C   4      52.195  51.362  11.3610  0.00  0.00     0.000 HD
ATOM     55   C  BGC C   4      50.775  49.004  16.2110  0.00  0.00     0.000 C
ATOM     56   O  BGC C   4      49.404  49.190  15.8410  0.00  0.00     0.000 O
ATOM     58  HD  BGC C   4      49.400  49.904  15.3520  0.00  0.00     0.000 HD
BRANCH 45 58
ATOM     58  O4  BGC C   5      51.644  46.069  12.8630  0.00  0.00     0.000 O
BRANCH 58 62
ATOM     59  C1  BGC C   5      53.802  44.596  11.2750  0.00  0.00     0.000 C
ATOM     60  C2  BGC C   5      52.653  43.719  11.3140  0.00  0.00     0.000 C
ATOM     61  C3  BGC C   5      52.003  43.620  12.6920  0.00  0.00     0.000 C
ATOM     62  C4  BGC C   5      52.273  44.907  13.4570  0.00  0.00     0.000 C
ATOM     63  C5  BGC C   5      53.733  45.246  13.2630  0.00  0.00     0.000 C
ATOM     64  O5  BGC C   5      54.448  44.585  12.2210  0.00  0.00     0.000 O
ATOM     65   O  BGC C   5      54.546  43.754  14.9800  0.00  0.00     0.000 O
ATOM     67  HD  BGC C   5      54.294  44.557  14.7770  0.00  0.00     0.000 HD
ATOM     67   O  BGC C   5      54.546  43.754  14.9800  0.00  0.00     0.000 O
ATOM     69  HD  BGC C   5      54.294  44.557  14.7770  0.00  0.00     0.000 HD
ENDBRANCH 58 62
ENDBRANCH 45 58
ENDBRANCH 44 48
ENDBRANCH 31 44
ENDBRANCH 30 34
ENDBRANCH 17 30
ENDBRANCH 16 20
ENDBRANCH 1 16
TORSDOF 8
ENDMDL
MODEL 13
REMARK VINA RESULT:      -0.1     44.769     50.510
ROOT
ATOM      1  C1  BGC C   1      33.661  60.286  24.5840  0.00  0.00     0.000 C
ATOM      2  C2  BGC C   1      34.247  61.533  25.2460  0.00  0.00     0.000 C
ATOM      3  C3  BGC C   1      33.125  62.468  25.6820  0.00  0.00     0.000 C
ATOM      4  C4  BGC C   1      32.134  62.738  24.5620  0.00  0.00     0.000 C
ATOM      5  C5  BGC C   1      31.743  61.432  23.8760  0.00  0.00     0.000 C
ATOM      6  O5  BGC C   1      32.828  60.626  23.5430  0.00  0.00     0.000 O
ATOM      7   O  BGC C   1      34.991  61.108  26.3630  0.00  0.00     0.000 O
ATOM      9  HD  BGC C   1      35.057  61.873  25.9620  0.00  0.00     0.000 HD
ATOM      9   O  BGC C   1      33.720  63.676  26.1750  0.00  0.00     0.000 O
ATOM     11  HD  BGC C   1      33.786  64.441  25.7740  0.00  0.00     0.000 HD
ATOM     11   O  BGC C   1      31.002  63.363  25.1560  0.00  0.00     0.000 O
ATOM     13  HD  BGC C   1      31.068  64.128  24.7550  0.00  0.00     0.000 HD
ATOM     13   O  BGC C   1      31.841  62.396  21.5960  0.00  0.00     0.000 O
ATOM     15  HD  BGC C   1      31.907  63.161  21.1950  0.00  0.00     0.000 HD
ATOM     15   C  BGC C   1      30.975  61.778  22.5880  0.00  0.00     0.000 C
ENDROOT
BRANCH 1 16
ATOM     16  O4  BGC C   2      34.715  59.529  24.0380  0.00  0.00     0.000 O
BRANCH 16 20
ATOM     17  C1  BGC C   2      35.582  55.599  23.3470  0.00  0.00     0.000 C
ATOM     18  C2  BGC C   2      34.709  56.280  22.3050  0.00  0.00     0.000 C
ATOM     19  C3  BGC C   2      34.757  57.793  22.4660  0.00  0.00     0.000 C
ATOM     20  C4  BGC C   2      34.457  58.154  23.8820  0.00  0.00     0.000 C
ATOM     21  C5  BGC C   2      35.332  57.361  24.8480  0.00  0.00     0.000 C
ATOM     22  O5  BGC C   2      35.194  55.988  24.6330  0.00  0.00     0.000 O
ATOM     23   O  BGC C   2      35.166  55.900  20.9980  0.00  0.00     0.000 O
ATOM     25  HD  BGC C   2      35.145  56.583  20.4660  0.00  0.00     0.000 HD
ATOM     25   O  BGC C   2      33.794  58.386  21.6030  0.00  0.00     0.000 O
ATOM     27  HD  BGC C   2      33.774  59.069  21.0710  0.00  0.00     0.000 HD
ATOM     27   C  BGC C   2      35.078  57.654  26.3400  0.00  0.00     0.000 C
ATOM     28   O  BGC C   2      33.692  57.480  26.6770  0.00  0.00     0.000 O
ATOM     30  HD  BGC C   2      33.671  58.163  26.1440  0.00  0.00     0.000 HD
BRANCH 17 30
ATOM     30  O4  BGC C   3      35.433  54.200  23.2360  0.00  0.00     0.000 O
BRANCH 30 34
ATOM     31  C1  BGC C   3      37.572  50.783  23.5420  0.00  0.00     0.000 C
ATOM     32  C2  BGC C   3      37.026  51.354  24.8730  0.00  0.00     0.000 C
ATOM     33  C3  BGC C   3      35.983  52.389  24.6270  0.00  0.00     0.000 C
ATOM     34  C4  BGC C   3      36.545  53.416  23.6410  0.00  0.00     0.000 C
ATOM     35  C5  BGC C   3      37.193  52.784  22.3820  0.00  0.00     0.000 C
ATOM     36  O5  BGC C   3      38.132  51.808  22.7590  0.00  0.00     0.000 O
ATOM     37   O  BGC C   3      36.481  50.453  25.8180  0.00  0.00     0.000 O
ATOM     39  HD  BGC C   3      36.418  51.233  25.4480  0.00  0.00     0.000 HD
ATOM     39   O  BGC C   3      35.597  53.023  25.8820  0.00  0.00     0.000 O
ATOM     41  HD  BGC C   3      35.534  53.803  25.5130  0.00  0.00     0.000 HD
ATOM     41   C  BGC C   3      37.930  53.777  21.4550  0.00  0.00     0.000 C
ATOM     42   O  BGC C   3      39.106  54.436  22.0500  0.00  0.00     0.000 O
ATOM     44  HD  BGC C   3      39.042  55.217  21.6800  0.00  0.00     0.000 HD
BRANCH 31 44
ATOM     44  O4  BGC C   4      38.542  49.818  23.7750  0.00  0.00     0.000 O
BRANCH 44 48
ATOM     45  C1  BGC C   4      40.038  46.216  22.5320  0.00  0.00     0.000 C
ATOM     46  C2  BGC C   4      40.361  47.350  21.5070  0.00  0.00     0.000 C
ATOM     47  C3  BGC C   4      39.999  48.610  22.3040  0.00  0.00     0.000 C
ATOM     48  C4  BGC C   4      38.638  48.682  22.9680  0.00  0.00     0.000 C
ATOM     49  C5  BGC C   4      38.555  47.469  23.9080  0.00  0.00     0.000 C
ATOM     50  O5  BGC C   4      38.779  46.289  23.2180  0.00  0.00     0.000 O
ATOM     51   O  BGC C   4      41.763  47.565  20.9100  0.00  0.00     0.000 O
ATOM     53  HD  BGC C   4      41.805  48.300  20.4540  0.00  0.00     0.000 HD
ATOM     53   O  BGC C   4      39.916  49.608  21.1810  0.00  0.00     0.000 O
ATOM     55  HD  BGC C   4      39.958  50.343  20.7250  0.00  0.00     0.000 HD
ATOM     55   C  BGC C   4      37.180  47.332  24.5080  0.00  0.00     0.000 C
ATOM     56   O  BGC C   4      36.101  47.244  23.5710  0.00  0.00     0.000 O
ATOM     58  HD  BGC C   4      36.142  47.979  23.1140  0.00  0.00     0.000 HD
BRANCH 45 58
ATOM     58  O4  BGC C   5      40.064  44.950  21.9420  0.00  0.00     0.000 O
BRANCH 58 62
ATOM     59  C1  BGC C   5      42.973  44.122  21.4920  0.00  0.00     0.000 C
ATOM     60  C2  BGC C   5      42.159  43.015  21.0410  0.00  0.00     0.000 C
ATOM     61  C3  BGC C   5      41.021  42.662  21.9950  0.00  0.00     0.000 C
ATOM     62  C4  BGC C   5      40.628  43.908  22.7750  0.00  0.00     0.000 C
ATOM     63  C5  BGC C   5      41.905  44.572  23.2340  0.00  0.00     0.000 C
ATOM     64  O5  BGC C   5      43.131  44.173  22.6250  0.00  0.00     0.000 O
ATOM     65   O  BGC C   5      42.222  43.154  25.1640  0.00  0.00     0.000 O
ATOM     67  HD  BGC C   5      41.902  43.897  24.8550  0.00  0.00     0.000 HD
ATOM     67   O  BGC C   5      42.222  43.154  25.1640  0.00  0.00     0.000 O
ATOM     69  HD  BGC C   5      41.902  43.897  24.8550  0.00  0.00     0.000 HD
ENDBRANCH 58 62
ENDBRANCH 45 58
ENDBRANCH 44 48
ENDBRANCH 31 44
ENDBRANCH 30 34
ENDBRANCH 17 30
ENDBRANCH 16 20
ENDBRANCH 1 16
TORSDOF 8
ENDMDL
MODEL 14
REMARK VINA RESULT:      -0.1     54.471     58.657
ROOT
ATOM      1  C1  BGC C   1      35.466  10.364  66.5530  0.00  0.00     0.000 C
ATOM      2  C2  BGC C   1      36.475  11.191  67.3490  0.00  0.00     0.000 C
ATOM      3  C3  BGC C   1      37.825  11.190  66.6410  0.00  0.00     0.000 C
ATOM      4  C4  BGC C   1      38.284   9.787  66.2790  0.00  0.00     0.000 C
ATOM      5  C5  BGC C   1      37.142   9.008  65.6320  0.00  0.00     0.000 C
ATOM      6  O5  BGC C   1      35.939   9.092  66.3280  0.00  0.00     0.000 O
ATOM      7   O  BGC C   1      35.971  12.502  67.4380  0.00  0.00     0.000 O
ATOM      9  HD  BGC C   1      36.581  12.151  67.9420  0.00  0.00     0.000 HD
ATOM      9   O  BGC C   1      38.770  11.863  67.4840  0.00  0.00     0.000 O
ATOM     11  HD  BGC C   1      39.380  11.511  67.9880  0.00  0.00     0.000 HD
ATOM     11   O  BGC C   1      39.379   9.930  65.3820  0.00  0.00     0.000 O
ATOM     13  HD  BGC C   1      39.989   9.579  65.8860  0.00  0.00     0.000 HD
ATOM     13   O  BGC C   1      37.637   6.916  66.8640  0.00  0.00     0.000 O
ATOM     15  HD  BGC C   1      38.247   6.565  67.3680  0.00  0.00     0.000 HD
ATOM     15   C  BGC C   1      37.558   7.528  65.5460  0.00  0.00     0.000 C
ENDROOT
BRANCH 1 16
ATOM     16  O4  BGC C   2      34.288  10.237  67.3140  0.00  0.00     0.000 O
BRANCH 16 20
ATOM     17  C1  BGC C   2      30.272   9.913  66.6490  0.00  0.00     0.000 C
ATOM     18  C2  BGC C   2      31.071   8.625  66.5330  0.00  0.00     0.000 C
ATOM     19  C3  BGC C   2      32.454   8.790  67.1470  0.00  0.00     0.000 C
ATOM     20  C4  BGC C   2      33.113  10.001  66.5760  0.00  0.00     0.000 C
ATOM     21  C5  BGC C   2      32.199  11.219  66.6730  0.00  0.00     0.000 C
ATOM     22  O5  BGC C   2      30.971  10.971  66.0570  0.00  0.00     0.000 O
ATOM     23   O  BGC C   2      30.352   7.572  67.1920  0.00  0.00     0.000 O
ATOM     25  HD  BGC C   2      30.901   7.068  67.6330  0.00  0.00     0.000 HD
ATOM     25   O  BGC C   2      33.235   7.636  66.8580  0.00  0.00     0.000 O
ATOM     27  HD  BGC C   2      33.784   7.132  67.2990  0.00  0.00     0.000 HD
ATOM     27   C  BGC C   2      32.790  12.518  66.0880  0.00  0.00     0.000 C
ATOM     28   O  BGC C   2      33.217  12.330  64.7290  0.00  0.00     0.000 O
ATOM     30  HD  BGC C   2      33.766  11.826  65.1690  0.00  0.00     0.000 HD
BRANCH 17 30
ATOM     30  O4  BGC C   3      29.039   9.758  65.9790  0.00  0.00     0.000 O
BRANCH 30 34
ATOM     31  C1  BGC C   3      25.152  10.822  66.2790  0.00  0.00     0.000 C
ATOM     32  C2  BGC C   3      26.083  11.864  65.6150  0.00  0.00     0.000 C
ATOM     33  C3  BGC C   3      27.390  11.257  65.2390  0.00  0.00     0.000 C
ATOM     34  C4  BGC C   3      27.958  10.539  66.4660  0.00  0.00     0.000 C
ATOM     35  C5  BGC C   3      26.943   9.601  67.1680  0.00  0.00     0.000 C
ATOM     36  O5  BGC C   3      25.750  10.294  67.4370  0.00  0.00     0.000 O
ATOM     37   O  BGC C   3      25.615  12.550  64.4690  0.00  0.00     0.000 O
ATOM     39  HD  BGC C   3      26.294  12.181  64.8600  0.00  0.00     0.000 HD
ATOM     39   O  BGC C   3      28.305  12.286  64.7610  0.00  0.00     0.000 O
ATOM     41  HD  BGC C   3      28.984  11.917  65.1520  0.00  0.00     0.000 HD
ATOM     41   C  BGC C   3      27.423   9.002  68.5100  0.00  0.00     0.000 C
ATOM     42   O  BGC C   3      27.660   9.980  69.5850  0.00  0.00     0.000 O
ATOM     44  HD  BGC C   3      28.339   9.612  69.9760  0.00  0.00     0.000 HD
BRANCH 31 44
ATOM     44  O4  BGC C   4      23.934  11.392  66.6260  0.00  0.00     0.000 O
BRANCH 44 48
ATOM     45  C1  BGC C   4      19.890  10.780  66.8130  0.00  0.00     0.000 C
ATOM     46  C2  BGC C   4      20.644   9.940  67.8940  0.00  0.00     0.000 C
ATOM     47  C3  BGC C   4      22.051  10.550  67.8460  0.00  0.00     0.000 C
ATOM     48  C4  BGC C   4      22.741  10.676  66.5030  0.00  0.00     0.000 C
ATOM     49  C5  BGC C   4      21.811  11.524  65.6210  0.00  0.00     0.000 C
ATOM     50  O5  BGC C   4      20.546  10.964  65.5490  0.00  0.00     0.000 O
ATOM     51   O  BGC C   4      20.208   9.890  69.3690  0.00  0.00     0.000 O
ATOM     53  HD  BGC C   4      20.792   9.478  69.8590  0.00  0.00     0.000 HD
ATOM     53   O  BGC C   4      22.821   9.472  68.5590  0.00  0.00     0.000 O
ATOM     55  HD  BGC C   4      23.405   9.060  69.0480  0.00  0.00     0.000 HD
ATOM     55   C  BGC C   4      22.307  11.587  64.2000  0.00  0.00     0.000 C
ATOM     56   O  BGC C   4      22.501  10.323  63.5550  0.00  0.00     0.000 O
ATOM     58  HD  BGC C   4      23.085   9.911  64.0450  0.00  0.00     0.000 HD
BRANCH 45 58
ATOM     58  O4  BGC C   5      18.639  10.241  66.5050  0.00  0.00     0.000 O
BRANCH 58 62
ATOM     59  C1  BGC C   5      16.695  10.876  68.7790  0.00  0.00     0.000 C
ATOM     60  C2  BGC C   5      15.934  10.163  67.7770  0.00  0.00     0.000 C
ATOM     61  C3  BGC C   5      16.195  10.642  66.3520  0.00  0.00     0.000 C
ATOM     62  C4  BGC C   5      17.599  11.224  66.2770  0.00  0.00     0.000 C
ATOM     63  C5  BGC C   5      17.781  12.113  67.4860  0.00  0.00     0.000 C
ATOM     64  O5  BGC C   5      16.852  11.989  68.5620  0.00  0.00     0.000 O
ATOM     65   O  BGC C   5      16.660  14.029  66.5330  0.00  0.00     0.000 O
ATOM     67  HD  BGC C   5      17.413  13.624  66.6720  0.00  0.00     0.000 HD
ATOM     67   O  BGC C   5      16.660  14.029  66.5330  0.00  0.00     0.000 O
ATOM     69  HD  BGC C   5      17.413  13.624  66.6720  0.00  0.00     0.000 HD
ENDBRANCH 58 62
ENDBRANCH 45 58
ENDBRANCH 44 48
ENDBRANCH 31 44
ENDBRANCH 30 34
ENDBRANCH 17 30
ENDBRANCH 16 20
ENDBRANCH 1 16
TORSDOF 8
ENDMDL
MODEL 15
REMARK VINA RESULT:      -0.1     65.432     69.611
ROOT
ATOM      1  C1  BGC C   1      38.012  54.955  61.4650  0.00  0.00     0.000 C
ATOM      2  C2  BGC C   1      38.601  53.549  61.5720  0.00  0.00     0.000 C
ATOM      3  C3  BGC C   1      38.414  53.011  62.9860  0.00  0.00     0.000 C
ATOM      4  C4  BGC C   1      38.893  53.992  64.0430  0.00  0.00     0.000 C
ATOM      5  C5  BGC C   1      38.367  55.392  63.7410  0.00  0.00     0.000 C
ATOM      6  O5  BGC C   1      38.550  55.789  62.4190  0.00  0.00     0.000 O
ATOM      7   O  BGC C   1      37.923  52.735  60.6450  0.00  0.00     0.000 O
ATOM      9  HD  BGC C   1      38.689  52.567  61.0130  0.00  0.00     0.000 HD
ATOM      9   O  BGC C   1      39.094  51.752  63.0760  0.00  0.00     0.000 O
ATOM     11  HD  BGC C   1      39.860  51.584  63.4430  0.00  0.00     0.000 HD
ATOM     11   O  BGC C   1      38.405  53.520  65.2940  0.00  0.00     0.000 O
ATOM     13  HD  BGC C   1      39.171  53.352  65.6610  0.00  0.00     0.000 HD
ATOM     13   O  BGC C   1      40.505  56.508  64.3060  0.00  0.00     0.000 O
ATOM     15  HD  BGC C   1      41.271  56.340  64.6730  0.00  0.00     0.000 HD
ATOM     15   C  BGC C   1      39.099  56.388  64.6590  0.00  0.00     0.000 C
ENDROOT
BRANCH 1 16
ATOM     16  O4  BGC C   2      38.354  55.492  60.2090  0.00  0.00     0.000 O
BRANCH 16 20
ATOM     17  C1  BGC C   2      36.742  58.059  57.4720  0.00  0.00     0.000 C
ATOM     18  C2  BGC C   2      37.476  58.704  58.6370  0.00  0.00     0.000 C
ATOM     19  C3  BGC C   2      38.328  57.680  59.3730  0.00  0.00     0.000 C
ATOM     20  C4  BGC C   2      37.493  56.495  59.7250  0.00  0.00     0.000 C
ATOM     21  C5  BGC C   2      36.741  55.972  58.5040  0.00  0.00     0.000 C
ATOM     22  O5  BGC C   2      35.972  56.982  57.9220  0.00  0.00     0.000 O
ATOM     23   O  BGC C   2      38.295  59.771  58.1350  0.00  0.00     0.000 O
ATOM     25  HD  BGC C   2      39.059  59.775  58.5420  0.00  0.00     0.000 HD
ATOM     25   O  BGC C   2      38.850  58.270  60.5570  0.00  0.00     0.000 O
ATOM     27  HD  BGC C   2      39.615  58.275  60.9640  0.00  0.00     0.000 HD
ATOM     27   C  BGC C   2      35.833  54.756  58.7770  0.00  0.00     0.000 C
ATOM     28   O  BGC C   2      34.910  55.024  59.8450  0.00  0.00     0.000 O
ATOM     30  HD  BGC C   2      35.675  55.028  60.2520  0.00  0.00     0.000 HD
BRANCH 17 30
ATOM     30  O4  BGC C   3      35.883  59.009  56.8790  0.00  0.00     0.000 O
BRANCH 30 34
ATOM     31  C1  BGC C   3      34.481  60.141  53.2610  0.00  0.00     0.000 C
ATOM     32  C2  BGC C   3      33.726  58.971  53.9370  0.00  0.00     0.000 C
ATOM     33  C3  BGC C   3      34.083  58.862  55.3790  0.00  0.00     0.000 C
ATOM     34  C4  BGC C   3      35.609  58.830  55.4980  0.00  0.00     0.000 C
ATOM     35  C5  BGC C   3      36.321  59.951  54.6990  0.00  0.00     0.000 C
ATOM     36  O5  BGC C   3      35.871  59.958  53.3670  0.00  0.00     0.000 O
ATOM     37   O  BGC C   3      32.313  58.956  53.8710  0.00  0.00     0.000 O
ATOM     39  HD  BGC C   3      33.012  58.794  54.3540  0.00  0.00     0.000 HD
ATOM     39   O  BGC C   3      33.485  57.664  55.9560  0.00  0.00     0.000 O
ATOM     41  HD  BGC C   3      34.185  57.502  56.4400  0.00  0.00     0.000 HD
ATOM     41   C  BGC C   3      37.863  59.841  54.6470  0.00  0.00     0.000 C
ATOM     42   O  BGC C   3      38.384  58.653  53.9500  0.00  0.00     0.000 O
ATOM     44  HD  BGC C   3      39.084  58.491  54.4340  0.00  0.00     0.000 HD
BRANCH 31 44
ATOM     44  O4  BGC C   4      34.144  60.241  51.9180  0.00  0.00     0.000 O
BRANCH 44 48
ATOM     45  C1  BGC C   4      33.369  62.840  48.8510  0.00  0.00     0.000 C
ATOM     46  C2  BGC C   4      34.884  62.845  49.2320  0.00  0.00     0.000 C
ATOM     47  C3  BGC C   4      34.987  61.616  50.1440  0.00  0.00     0.000 C
ATOM     48  C4  BGC C   4      34.012  61.486  51.2980  0.00  0.00     0.000 C
ATOM     49  C5  BGC C   4      32.606  61.517  50.6760  0.00  0.00     0.000 C
ATOM     50  O5  BGC C   4      32.424  62.661  49.9170  0.00  0.00     0.000 O
ATOM     51   O  BGC C   4      36.010  62.745  48.1880  0.00  0.00     0.000 O
ATOM     53  HD  BGC C   4      36.784  62.643  48.5640  0.00  0.00     0.000 HD
ATOM     53   O  BGC C   4      36.308  61.898  50.8060  0.00  0.00     0.000 O
ATOM     55  HD  BGC C   4      37.081  61.796  51.1820  0.00  0.00     0.000 HD
ATOM     55   C  BGC C   4      31.538  61.562  51.7380  0.00  0.00     0.000 C
ATOM     56   O  BGC C   4      31.636  62.643  52.6720  0.00  0.00     0.000 O
ATOM     58  HD  BGC C   4      32.410  62.541  53.0480  0.00  0.00     0.000 HD
BRANCH 45 58
ATOM     58  O4  BGC C   5      32.982  64.019  48.2090  0.00  0.00     0.000 O
BRANCH 58 62
ATOM     59  C1  BGC C   5      34.011  63.965  45.3300  0.00  0.00     0.000 C
ATOM     60  C2  BGC C   5      33.272  65.200  45.4770  0.00  0.00     0.000 C
ATOM     61  C3  BGC C   5      31.938  65.034  46.2000  0.00  0.00     0.000 C
ATOM     62  C4  BGC C   5      32.030  63.835  47.1330  0.00  0.00     0.000 C
ATOM     63  C5  BGC C   5      32.688  62.715  46.3610  0.00  0.00     0.000 C
ATOM     64  O5  BGC C   5      33.366  63.037  45.1480  0.00  0.00     0.000 O
ATOM     65   O  BGC C   5      30.676  62.003  45.2290  0.00  0.00     0.000 O
ATOM     67  HD  BGC C   5      31.203  61.895  45.9080  0.00  0.00     0.000 HD
ATOM     67   O  BGC C   5      30.676  62.003  45.2290  0.00  0.00     0.000 O
ATOM     69  HD  BGC C   5      31.203  61.895  45.9080  0.00  0.00     0.000 HD
ENDBRANCH 58 62
ENDBRANCH 45 58
ENDBRANCH 44 48
ENDBRANCH 31 44
ENDBRANCH 30 34
ENDBRANCH 17 30
ENDBRANCH 16 20
ENDBRANCH 1 16
TORSDOF 8
ENDMDL
MODEL 16
REMARK VINA RESULT:      -0.1     64.028     68.215
ROOT
ATOM      1  C1  BGC C   1      66.176  58.231  16.9890  0.00  0.00     0.000 C
ATOM      2  C2  BGC C   1      67.198  59.256  16.4990  0.00  0.00     0.000 C
ATOM      3  C3  BGC C   1      66.658  60.667  16.6950  0.00  0.00     0.000 C
ATOM      4  C4  BGC C   1      65.258  60.831  16.1260  0.00  0.00     0.000 C
ATOM      5  C5  BGC C   1      64.373  59.666  16.5590  0.00  0.00     0.000 C
ATOM      6  O5  BGC C   1      64.959  58.417  16.3740  0.00  0.00     0.000 O
ATOM      7   O  BGC C   1      68.374  59.073  17.2510  0.00  0.00     0.000 O
ATOM      9  HD  BGC C   1      68.309  59.484  16.4920  0.00  0.00     0.000 HD
ATOM      9   O  BGC C   1      67.588  61.585  16.1040  0.00  0.00     0.000 O
ATOM     11  HD  BGC C   1      67.523  61.996  15.3450  0.00  0.00     0.000 HD
ATOM     11   O  BGC C   1      64.755  62.068  16.6210  0.00  0.00     0.000 O
ATOM     13  HD  BGC C   1      64.690  62.478  15.8610  0.00  0.00     0.000 HD
ATOM     13   O  BGC C   1      63.306  59.424  14.3360  0.00  0.00     0.000 O
ATOM     15  HD  BGC C   1      63.241  59.835  13.5760  0.00  0.00     0.000 HD
ATOM     15   C  BGC C   1      63.071  59.724  15.7390  0.00  0.00     0.000 C
ENDROOT
BRANCH 1 16
ATOM     16  O4  BGC C   2      66.624  56.944  16.6360  0.00  0.00     0.000 O
BRANCH 16 20
ATOM     17  C1  BGC C   2      66.397  53.145  18.1170  0.00  0.00     0.000 C
ATOM     18  C2  BGC C   2      65.194  53.619  17.3160  0.00  0.00     0.000 C
ATOM     19  C3  BGC C   2      65.534  54.874  16.5240  0.00  0.00     0.000 C
ATOM     20  C4  BGC C   2      66.134  55.892  17.4330  0.00  0.00     0.000 C
ATOM     21  C5  BGC C   2      67.280  55.295  18.2440  0.00  0.00     0.000 C
ATOM     22  O5  BGC C   2      66.856  54.169  18.9520  0.00  0.00     0.000 O
ATOM     23   O  BGC C   2      64.779  52.565  16.4350  0.00  0.00     0.000 O
ATOM     25  HD  BGC C   2      64.559  52.892  15.6640  0.00  0.00     0.000 HD
ATOM     25   O  BGC C   2      64.346  55.392  15.9380  0.00  0.00     0.000 O
ATOM     27  HD  BGC C   2      64.125  55.719  15.1670  0.00  0.00     0.000 HD
ATOM     27   C  BGC C   2      67.952  56.273  19.2310  0.00  0.00     0.000 C
ATOM     28   O  BGC C   2      66.986  56.871  20.1100  0.00  0.00     0.000 O
ATOM     30  HD  BGC C   2      66.766  57.198  19.3390  0.00  0.00     0.000 HD
BRANCH 17 30
ATOM     30  O4  BGC C   3      66.018  52.047  18.9190  0.00  0.00     0.000 O
BRANCH 30 34
ATOM     31  C1  BGC C   3      67.460  48.537  20.3110  0.00  0.00     0.000 C
ATOM     32  C2  BGC C   3      67.842  49.792  21.1320  0.00  0.00     0.000 C
ATOM     33  C3  BGC C   3      66.997  50.959  20.7550  0.00  0.00     0.000 C
ATOM     34  C4  BGC C   3      67.044  51.117  19.2330  0.00  0.00     0.000 C
ATOM     35  C5  BGC C   3      66.778  49.800  18.4600  0.00  0.00     0.000 C
ATOM     36  O5  BGC C   3      67.620  48.781  18.9360  0.00  0.00     0.000 O
ATOM     37   O  BGC C   3      67.803  49.708  22.5450  0.00  0.00     0.000 O
ATOM     39  HD  BGC C   3      67.653  50.200  21.8480  0.00  0.00     0.000 HD
ATOM     39   O  BGC C   3      67.475  52.163  21.4240  0.00  0.00     0.000 O
ATOM     41  HD  BGC C   3      67.324  52.656  20.7280  0.00  0.00     0.000 HD
ATOM     41   C  BGC C   3      66.996  49.882  16.9310  0.00  0.00     0.000 C
ATOM     42   O  BGC C   3      68.380  50.157  16.5100  0.00  0.00     0.000 O
ATOM     44  HD  BGC C   3      68.230  50.649  15.8130  0.00  0.00     0.000 HD
BRANCH 31 44
ATOM     44  O4  BGC C   4      68.249  47.450  20.6670  0.00  0.00     0.000 O
BRANCH 44 48
ATOM     45  C1  BGC C   4      68.271  43.409  21.3200  0.00  0.00     0.000 C
ATOM     46  C2  BGC C   4      68.115  43.739  19.8010  0.00  0.00     0.000 C
ATOM     47  C3  BGC C   4      68.442  45.238  19.7660  0.00  0.00     0.000 C
ATOM     48  C4  BGC C   4      67.715  46.161  20.7250  0.00  0.00     0.000 C
ATOM     49  C5  BGC C   4      68.009  45.628  22.1360  0.00  0.00     0.000 C
ATOM     50  O5  BGC C   4      67.640  44.299  22.2540  0.00  0.00     0.000 O
ATOM     51   O  BGC C   4      68.952  43.055  18.7050  0.00  0.00     0.000 O
ATOM     53  HD  BGC C   4      68.831  43.429  17.9330  0.00  0.00     0.000 HD
ATOM     53   O  BGC C   4      67.882  45.591  18.4160  0.00  0.00     0.000 O
ATOM     55  HD  BGC C   4      67.761  45.965  17.6440  0.00  0.00     0.000 HD
ATOM     55   C  BGC C   4      67.206  46.364  23.1780  0.00  0.00     0.000 C
ATOM     56   O  BGC C   4      65.787  46.358  22.9850  0.00  0.00     0.000 O
ATOM     58  HD  BGC C   4      65.666  46.732  22.2140  0.00  0.00     0.000 HD
BRANCH 45 58
ATOM     58  O4  BGC C   5      67.784  42.138  21.6350  0.00  0.00     0.000 O
BRANCH 58 62
ATOM     59  C1  BGC C   5      69.789  40.039  20.6710  0.00  0.00     0.000 C
ATOM     60  C2  BGC C   5      68.717  39.314  21.3190  0.00  0.00     0.000 C
ATOM     61  C3  BGC C   5      68.278  39.927  22.6470  0.00  0.00     0.000 C
ATOM     62  C4  BGC C   5      68.568  41.420  22.6200  0.00  0.00     0.000 C
ATOM     63  C5  BGC C   5      69.960  41.597  22.0580  0.00  0.00     0.000 C
ATOM     64  O5  BGC C   5      70.562  40.494  21.3830  0.00  0.00     0.000 O
ATOM     65   O  BGC C   5      71.106  41.152  24.1370  0.00  0.00     0.000 O
ATOM     67  HD  BGC C   5      70.775  41.750  23.6050  0.00  0.00     0.000 HD
ATOM     67   O  BGC C   5      71.106  41.152  24.1370  0.00  0.00     0.000 O
ATOM     69  HD  BGC C   5      70.775  41.750  23.6050  0.00  0.00     0.000 HD
ENDBRANCH 58 62
ENDBRANCH 45 58
ENDBRANCH 44 48
ENDBRANCH 31 44
ENDBRANCH 30 34
ENDBRANCH 17 30
ENDBRANCH 16 20
ENDBRANCH 1 16
TORSDOF 8
ENDMDL
MODEL 17
REMARK VINA RESULT:      -0.1     50.831     55.958
ROOT
ATOM      1  C1  BGC C   1      16.999  55.798  49.3970  0.00  0.00     0.000 C
ATOM      2  C2  BGC C   1      15.584  56.209  48.9900  0.00  0.00     0.000 C
ATOM      3  C3  BGC C   1      14.930  57.008  50.1110  0.00  0.00     0.000 C
ATOM      4  C4  BGC C   1      15.036  56.306  51.4550  0.00  0.00     0.000 C
ATOM      5  C5  BGC C   1      16.460  55.805  51.6780  0.00  0.00     0.000 C
ATOM      6  O5  BGC C   1      16.989  55.114  50.5920  0.00  0.00     0.000 O
ATOM      7   O  BGC C   1      15.690  56.995  47.8270  0.00  0.00     0.000 O
ATOM      9  HD  BGC C   1      14.978  56.594  48.1130  0.00  0.00     0.000 HD
ATOM      9   O  BGC C   1      13.567  57.258  49.7420  0.00  0.00     0.000 O
ATOM     11  HD  BGC C   1      12.855  56.858  50.0280  0.00  0.00     0.000 HD
ATOM     11   O  BGC C   1      14.667  57.259  52.4470  0.00  0.00     0.000 O
ATOM     13  HD  BGC C   1      13.954  56.858  52.7330  0.00  0.00     0.000 HD
ATOM     13   O  BGC C   1      15.733  53.633  52.6230  0.00  0.00     0.000 O
ATOM     15  HD  BGC C   1      15.020  53.232  52.9090  0.00  0.00     0.000 HD
ATOM     15   C  BGC C   1      16.451  54.867  52.8990  0.00  0.00     0.000 C
ENDROOT
BRANCH 1 16
ATOM     16  O4  BGC C   2      17.509  54.918  48.4230  0.00  0.00     0.000 O
BRANCH 16 20
ATOM     17  C1  BGC C   2      21.133  53.977  46.7940  0.00  0.00     0.000 C
ATOM     18  C2  BGC C   2      20.806  53.306  48.1180  0.00  0.00     0.000 C
ATOM     19  C3  BGC C   2      19.323  53.436  48.4370  0.00  0.00     0.000 C
ATOM     20  C4  BGC C   2      18.913  54.866  48.3300  0.00  0.00     0.000 C
ATOM     21  C5  BGC C   2      19.355  55.465  46.9990  0.00  0.00     0.000 C
ATOM     22  O5  BGC C   2      20.732  55.317  46.8180  0.00  0.00     0.000 O
ATOM     23   O  BGC C   2      21.183  51.923  48.0420  0.00  0.00     0.000 O
ATOM     25  HD  BGC C   2      20.584  51.430  48.4280  0.00  0.00     0.000 HD
ATOM     25   O  BGC C   2      19.086  52.964  49.7580  0.00  0.00     0.000 O
ATOM     27  HD  BGC C   2      18.487  52.471  50.1430  0.00  0.00     0.000 HD
ATOM     27   C  BGC C   2      18.991  56.952  46.8060  0.00  0.00     0.000 C
ATOM     28   O  BGC C   2      19.481  57.753  47.8930  0.00  0.00     0.000 O
ATOM     30  HD  BGC C   2      18.882  57.261  48.2790  0.00  0.00     0.000 HD
BRANCH 17 30
ATOM     30  O4  BGC C   3      22.528  53.930  46.5800  0.00  0.00     0.000 O
BRANCH 30 34
ATOM     31  C1  BGC C   3      25.232  53.472  43.6110  0.00  0.00     0.000 C
ATOM     32  C2  BGC C   3      24.692  54.908  43.8110  0.00  0.00     0.000 C
ATOM     33  C3  BGC C   3      23.990  55.042  45.1170  0.00  0.00     0.000 C
ATOM     34  C4  BGC C   3      22.955  53.919  45.2260  0.00  0.00     0.000 C
ATOM     35  C5  BGC C   3      23.520  52.514  44.8930  0.00  0.00     0.000 C
ATOM     36  O5  BGC C   3      24.179  52.540  43.6520  0.00  0.00     0.000 O
ATOM     37   O  BGC C   3      25.606  55.986  43.7340  0.00  0.00     0.000 O
ATOM     39  HD  BGC C   3      24.909  55.660  44.1310  0.00  0.00     0.000 HD
ATOM     39   O  BGC C   3      23.357  56.352  45.2170  0.00  0.00     0.000 O
ATOM     41  HD  BGC C   3      22.659  56.026  45.6130  0.00  0.00     0.000 HD
ATOM     41   C  BGC C   3      22.467  51.385  44.8150  0.00  0.00     0.000 C
ATOM     42   O  BGC C   3      21.472  51.529  43.7380  0.00  0.00     0.000 O
ATOM     44  HD  BGC C   3      20.775  51.203  44.1340  0.00  0.00     0.000 HD
BRANCH 31 44
ATOM     44  O4  BGC C   4      25.888  53.351  42.3920  0.00  0.00     0.000 O
BRANCH 44 48
ATOM     45  C1  BGC C   4      29.088  51.669  40.4730  0.00  0.00     0.000 C
ATOM     46  C2  BGC C   4      28.016  50.594  40.8400  0.00  0.00     0.000 C
ATOM     47  C3  BGC C   4      26.819  51.464  41.2450  0.00  0.00     0.000 C
ATOM     48  C4  BGC C   4      27.035  52.564  42.2660  0.00  0.00     0.000 C
ATOM     49  C5  BGC C   4      28.129  53.476  41.6890  0.00  0.00     0.000 C
ATOM     50  O5  BGC C   4      29.274  52.754  41.3950  0.00  0.00     0.000 O
ATOM     51   O  BGC C   4      27.508  49.541  39.8390  0.00  0.00     0.000 O
ATOM     53  HD  BGC C   4      26.836  49.098  40.1580  0.00  0.00     0.000 HD
ATOM     53   O  BGC C   4      25.992  50.440  41.9730  0.00  0.00     0.000 O
ATOM     55  HD  BGC C   4      25.320  49.997  42.2920  0.00  0.00     0.000 HD
ATOM     55   C  BGC C   4      28.555  54.522  42.6860  0.00  0.00     0.000 C
ATOM     56   O  BGC C   4      29.010  54.024  43.9500  0.00  0.00     0.000 O
ATOM     58  HD  BGC C   4      28.338  53.581  44.2690  0.00  0.00     0.000 HD
BRANCH 45 58
ATOM     58  O4  BGC C   5      30.357  51.111  40.3000  0.00  0.00     0.000 O
BRANCH 58 62
ATOM     59  C1  BGC C   5      30.449  49.668  37.6050  0.00  0.00     0.000 C
ATOM     60  C2  BGC C   5      31.767  49.535  38.1850  0.00  0.00     0.000 C
ATOM     61  C3  BGC C   5      32.305  50.829  38.7890  0.00  0.00     0.000 C
ATOM     62  C4  BGC C   5      31.131  51.695  39.2240  0.00  0.00     0.000 C
ATOM     63  C5  BGC C   5      30.118  51.674  38.1020  0.00  0.00     0.000 C
ATOM     64  O5  BGC C   5      30.247  50.673  37.0940  0.00  0.00     0.000 O
ATOM     65   O  BGC C   5      31.209  53.372  36.7750  0.00  0.00     0.000 O
ATOM     67  HD  BGC C   5      30.608  53.193  37.3720  0.00  0.00     0.000 HD
ATOM     67   O  BGC C   5      31.209  53.372  36.7750  0.00  0.00     0.000 O
ATOM     69  HD  BGC C   5      30.608  53.193  37.3720  0.00  0.00     0.000 HD
ENDBRANCH 58 62
ENDBRANCH 45 58
ENDBRANCH 44 48
ENDBRANCH 31 44
ENDBRANCH 30 34
ENDBRANCH 17 30
ENDBRANCH 16 20
ENDBRANCH 1 16
TORSDOF 8
ENDMDL
MODEL 18
REMARK VINA RESULT:      -0.1     45.706     53.148
ROOT
ATOM      1  C1  BGC C   1      20.342  60.052  42.6030  0.00  0.00     0.000 C
ATOM      2  C2  BGC C   1      21.105  61.330  42.9490  0.00  0.00     0.000 C
ATOM      3  C3  BGC C   1      20.157  62.356  43.5580  0.00  0.00     0.000 C
ATOM      4  C4  BGC C   1      18.910  62.559  42.7130  0.00  0.00     0.000 C
ATOM      5  C5  BGC C   1      18.327  61.211  42.2990  0.00  0.00     0.000 C
ATOM      6  O5  BGC C   1      19.269  60.325  41.7840  0.00  0.00     0.000 O
ATOM      7   O  BGC C   1      22.110  60.984  43.8720  0.00  0.00     0.000 O
ATOM      9  HD  BGC C   1      22.082  61.701  43.3870  0.00  0.00     0.000 HD
ATOM      9   O  BGC C   1      20.884  63.577  43.7440  0.00  0.00     0.000 O
ATOM     11  HD  BGC C   1      20.856  64.294  43.2590  0.00  0.00     0.000 HD
ATOM     11   O  BGC C   1      17.988  63.293  43.5100  0.00  0.00     0.000 O
ATOM     13  HD  BGC C   1      17.960  64.010  43.0250  0.00  0.00     0.000 HD
ATOM     13   O  BGC C   1      17.836  61.937  39.9820  0.00  0.00     0.000 O
ATOM     15  HD  BGC C   1      17.808  62.653  39.4970  0.00  0.00     0.000 HD
ATOM     15   C  BGC C   1      17.252  61.462  41.2270  0.00  0.00     0.000 C
ENDROOT
BRANCH 1 16
ATOM     16  O4  BGC C   2      21.199  59.195  41.8850  0.00  0.00     0.000 O
BRANCH 16 20
ATOM     17  C1  BGC C   2      21.777  55.179  41.4240  0.00  0.00     0.000 C
ATOM     18  C2  BGC C   2      20.672  55.793  40.5790  0.00  0.00     0.000 C
ATOM     19  C3  BGC C   2      20.790  57.311  40.5560  0.00  0.00     0.000 C
ATOM     20  C4  BGC C   2      20.882  57.825  41.9530  0.00  0.00     0.000 C
ATOM     21  C5  BGC C   2      21.967  57.092  42.7370  0.00  0.00     0.000 C
ATOM     22  O5  BGC C   2      21.750  55.713  42.7170  0.00  0.00     0.000 O
ATOM     23   O  BGC C   2      20.759  55.263  39.2470  0.00  0.00     0.000 O
ATOM     25  HD  BGC C   2      20.611  55.890  38.6680  0.00  0.00     0.000 HD
ATOM     25   O  BGC C   2      19.644  57.859  39.9160  0.00  0.00     0.000 O
ATOM     27  HD  BGC C   2      19.496  58.485  39.3370  0.00  0.00     0.000 HD
ATOM     27   C  BGC C   2      22.123  57.545  44.2030  0.00  0.00     0.000 C
ATOM     28   O  BGC C   2      20.872  57.471  44.9070  0.00  0.00     0.000 O
ATOM     30  HD  BGC C   2      20.725  58.098  44.3280  0.00  0.00     0.000 HD
BRANCH 17 30
ATOM     30  O4  BGC C   3      21.577  53.785  41.5100  0.00  0.00     0.000 O
BRANCH 30 34
ATOM     31  C1  BGC C   3      23.655  50.319  41.6160  0.00  0.00     0.000 C
ATOM     32  C2  BGC C   3      23.492  51.046  42.9730  0.00  0.00     0.000 C
ATOM     33  C3  BGC C   3      22.442  52.099  42.8970  0.00  0.00     0.000 C
ATOM     34  C4  BGC C   3      22.742  52.994  41.6920  0.00  0.00     0.000 C
ATOM     35  C5  BGC C   3      23.020  52.209  40.3840  0.00  0.00     0.000 C
ATOM     36  O5  BGC C   3      24.007  51.233  40.6070  0.00  0.00     0.000 O
ATOM     37   O  BGC C   3      23.201  50.270  44.1200  0.00  0.00     0.000 O
ATOM     39  HD  BGC C   3      23.057  51.012  43.6970  0.00  0.00     0.000 HD
ATOM     39   O  BGC C   3      22.414  52.873  44.1330  0.00  0.00     0.000 O
ATOM     41  HD  BGC C   3      22.270  53.614  43.7090  0.00  0.00     0.000 HD
ATOM     41   C  BGC C   3      23.504  53.068  39.1940  0.00  0.00     0.000 C
ATOM     42   O  BGC C   3      24.807  53.727  39.3850  0.00  0.00     0.000 O
ATOM     44  HD  BGC C   3      24.663  54.469  38.9620  0.00  0.00     0.000 HD
BRANCH 31 44
ATOM     44  O4  BGC C   4      24.634  49.337  41.6910  0.00  0.00     0.000 O
BRANCH 44 48
ATOM     45  C1  BGC C   4      25.678  45.562  40.5010  0.00  0.00     0.000 C
ATOM     46  C2  BGC C   4      25.738  46.571  39.3100  0.00  0.00     0.000 C
ATOM     47  C3  BGC C   4      25.625  47.921  40.0310  0.00  0.00     0.000 C
ATOM     48  C4  BGC C   4      24.490  48.123  41.0160  0.00  0.00     0.000 C
ATOM     49  C5  BGC C   4      24.637  47.015  42.0720  0.00  0.00     0.000 C
ATOM     50  O5  BGC C   4      24.647  45.763  41.4810  0.00  0.00     0.000 O
ATOM     51   O  BGC C   4      26.936  46.659  38.3460  0.00  0.00     0.000 O
ATOM     53  HD  BGC C   4      26.868  47.341  37.8180  0.00  0.00     0.000 HD
ATOM     53   O  BGC C   4      25.266  48.803  38.8670  0.00  0.00     0.000 O
ATOM     55  HD  BGC C   4      25.198  49.486  38.3380  0.00  0.00     0.000 HD
ATOM     55   C  BGC C   4      23.469  47.004  43.0230  0.00  0.00     0.000 C
ATOM     56   O  BGC C   4      22.177  46.874  42.4160  0.00  0.00     0.000 O
ATOM     58  HD  BGC C   4      22.110  47.556  41.8880  0.00  0.00     0.000 HD
BRANCH 45 58
ATOM     58  O4  BGC C   5      25.522  44.243  40.0670  0.00  0.00     0.000 O
BRANCH 58 62
ATOM     59  C1  BGC C   5      28.191  43.238  38.9640  0.00  0.00     0.000 C
ATOM     60  C2  BGC C   5      27.265  42.131  38.8660  0.00  0.00     0.000 C
ATOM     61  C3  BGC C   5      26.416  41.929  40.1180  0.00  0.00     0.000 C
ATOM     62  C4  BGC C   5      26.267  43.265  40.8330  0.00  0.00     0.000 C
ATOM     63  C5  BGC C   5      27.633  43.911  40.8650  0.00  0.00     0.000 C
ATOM     64  O5  BGC C   5      28.645  43.395  40.0030  0.00  0.00     0.000 O
ATOM     65   O  BGC C   5      28.424  42.681  42.7870  0.00  0.00     0.000 O
ATOM     67  HD  BGC C   5      28.047  43.403  42.4930  0.00  0.00     0.000 HD
ATOM     67   O  BGC C   5      28.424  42.681  42.7870  0.00  0.00     0.000 O
ATOM     69  HD  BGC C   5      28.047  43.403  42.4930  0.00  0.00     0.000 HD
ENDBRANCH 58 62
ENDBRANCH 45 58
ENDBRANCH 44 48
ENDBRANCH 31 44
ENDBRANCH 30 34
ENDBRANCH 17 30
ENDBRANCH 16 20
ENDBRANCH 1 16
TORSDOF 8
ENDMDL
MODEL 19
REMARK VINA RESULT:      -0.1     53.900     63.073
ROOT
ATOM      1  C1  BGC C   1      53.972  18.941  66.4980  0.00  0.00     0.000 C
ATOM      2  C2  BGC C   1      55.361  19.181  65.9080  0.00  0.00     0.000 C
ATOM      3  C3  BGC C   1      56.428  18.625  66.8420  0.00  0.00     0.000 C
ATOM      4  C4  BGC C   1      56.245  19.102  68.2740  0.00  0.00     0.000 C
ATOM      5  C5  BGC C   1      54.786  18.956  68.6960  0.00  0.00     0.000 C
ATOM      6  O5  BGC C   1      53.879  19.461  67.7680  0.00  0.00     0.000 O
ATOM      7   O  BGC C   1      55.411  18.526  64.6630  0.00  0.00     0.000 O
ATOM      9  HD  BGC C   1      55.939  19.156  64.9340  0.00  0.00     0.000 HD
ATOM      9   O  BGC C   1      57.712  18.987  66.3170  0.00  0.00     0.000 O
ATOM     11  HD  BGC C   1      58.241  19.617  66.5870  0.00  0.00     0.000 HD
ATOM     11   O  BGC C   1      57.096  18.301  69.0870  0.00  0.00     0.000 O
ATOM     13  HD  BGC C   1      57.625  18.931  69.3570  0.00  0.00     0.000 HD
ATOM     13   O  BGC C   1      54.721  21.143  69.8570  0.00  0.00     0.000 O
ATOM     15  HD  BGC C   1      55.250  21.774  70.1270  0.00  0.00     0.000 HD
ATOM     15   C  BGC C   1      54.595  19.704  70.0280  0.00  0.00     0.000 C
ENDROOT
BRANCH 1 16
ATOM     16  O4  BGC C   2      53.023  19.616  65.7060  0.00  0.00     0.000 O
BRANCH 16 20
ATOM     17  C1  BGC C   2      49.132  19.131  64.5670  0.00  0.00     0.000 C
ATOM     18  C2  BGC C   2      49.351  19.759  65.9340  0.00  0.00     0.000 C
ATOM     19  C3  BGC C   2      50.793  20.219  66.0920  0.00  0.00     0.000 C
ATOM     20  C4  BGC C   2      51.715  19.097  65.7520  0.00  0.00     0.000 C
ATOM     21  C5  BGC C   2      51.363  18.489  64.3980  0.00  0.00     0.000 C
ATOM     22  O5  BGC C   2      50.029  18.077  64.3690  0.00  0.00     0.000 O
ATOM     23   O  BGC C   2      48.451  20.868  66.0850  0.00  0.00     0.000 O
ATOM     25  HD  BGC C   2      48.854  21.527  66.4760  0.00  0.00     0.000 HD
ATOM     25   O  BGC C   2      51.008  20.629  67.4380  0.00  0.00     0.000 O
ATOM     27  HD  BGC C   2      51.411  21.288  67.8290  0.00  0.00     0.000 HD
ATOM     27   C  BGC C   2      52.254  17.304  63.9710  0.00  0.00     0.000 C
ATOM     28   O  BGC C   2      52.279  16.281  64.9780  0.00  0.00     0.000 O
ATOM     30  HD  BGC C   2      52.682  16.939  65.3700  0.00  0.00     0.000 HD
BRANCH 17 30
ATOM     30  O4  BGC C   3      47.817  18.623  64.4930  0.00  0.00     0.000 O
BRANCH 30 34
ATOM     31  C1  BGC C   3      44.764  18.190  61.8810  0.00  0.00     0.000 C
ATOM     32  C2  BGC C   3      45.850  17.089  61.8310  0.00  0.00     0.000 C
ATOM     33  C3  BGC C   3      46.725  17.142  63.0350  0.00  0.00     0.000 C
ATOM     34  C4  BGC C   3      47.234  18.576  63.2000  0.00  0.00     0.000 C
ATOM     35  C5  BGC C   3      46.118  19.649  63.1170  0.00  0.00     0.000 C
ATOM     36  O5  BGC C   3      45.355  19.464  61.9510  0.00  0.00     0.000 O
ATOM     37   O  BGC C   3      45.437  15.743  61.6920  0.00  0.00     0.000 O
ATOM     39  HD  BGC C   3      45.997  16.290  62.0630  0.00  0.00     0.000 HD
ATOM     39   O  BGC C   3      47.833  16.203  62.8940  0.00  0.00     0.000 O
ATOM     41  HD  BGC C   3      48.393  16.750  63.2640  0.00  0.00     0.000 HD
ATOM     41   C  BGC C   3      46.616  21.112  63.0960  0.00  0.00     0.000 C
ATOM     42   O  BGC C   3      47.422  21.484  61.9220  0.00  0.00     0.000 O
ATOM     44  HD  BGC C   3      47.982  22.031  62.2920  0.00  0.00     0.000 HD
BRANCH 31 44
ATOM     44  O4  BGC C   4      43.949  18.137  60.7570  0.00  0.00     0.000 O
BRANCH 44 48
ATOM     45  C1  BGC C   4      40.108  18.520  59.3940  0.00  0.00     0.000 C
ATOM     46  C2  BGC C   4      40.707  19.903  59.8040  0.00  0.00     0.000 C
ATOM     47  C3  BGC C   4      42.195  19.568  59.9710  0.00  0.00     0.000 C
ATOM     48  C4  BGC C   4      42.579  18.392  60.8470  0.00  0.00     0.000 C
ATOM     49  C5  BGC C   4      41.865  17.166  60.2550  0.00  0.00     0.000 C
ATOM     50  O5  BGC C   4      40.499  17.378  60.1720  0.00  0.00     0.000 O
ATOM     51   O  BGC C   4      40.610  21.155  58.9130  0.00  0.00     0.000 O
ATOM     53  HD  BGC C   4      41.089  21.805  59.2260  0.00  0.00     0.000 HD
ATOM     53   O  BGC C   4      42.642  20.773  60.7530  0.00  0.00     0.000 O
ATOM     55  HD  BGC C   4      43.121  21.424  61.0660  0.00  0.00     0.000 HD
ATOM     55   C  BGC C   4      42.034  15.955  61.1350  0.00  0.00     0.000 C
ATOM     56   O  BGC C   4      41.602  16.109  62.4920  0.00  0.00     0.000 O
ATOM     58  HD  BGC C   4      42.081  16.759  62.8050  0.00  0.00     0.000 HD
BRANCH 45 58
ATOM     58  O4  BGC C   5      38.711  18.522  59.4180  0.00  0.00     0.000 O
BRANCH 58 62
ATOM     59  C1  BGC C   5      37.676  20.030  56.9670  0.00  0.00     0.000 C
ATOM     60  C2  BGC C   5      36.509  19.560  57.6810  0.00  0.00     0.000 C
ATOM     61  C3  BGC C   5      36.619  18.111  58.1490  0.00  0.00     0.000 C
ATOM     62  C4  BGC C   5      38.089  17.768  58.3490  0.00  0.00     0.000 C
ATOM     63  C5  BGC C   5      38.841  18.301  57.1520  0.00  0.00     0.000 C
ATOM     64  O5  BGC C   5      38.186  19.245  56.3070  0.00  0.00     0.000 O
ATOM     65   O  BGC C   5      38.337  16.428  55.7120  0.00  0.00     0.000 O
ATOM     67  HD  BGC C   5      38.896  16.785  56.2690  0.00  0.00     0.000 HD
ATOM     67   O  BGC C   5      38.337  16.428  55.7120  0.00  0.00     0.000 O
ATOM     69  HD  BGC C   5      38.896  16.785  56.2690  0.00  0.00     0.000 HD
ENDBRANCH 58 62
ENDBRANCH 45 58
ENDBRANCH 44 48
ENDBRANCH 31 44
ENDBRANCH 30 34
ENDBRANCH 17 30
ENDBRANCH 16 20
ENDBRANCH 1 16
TORSDOF 8
ENDMDL
MODEL 20
REMARK VINA RESULT:      -0.1     73.437     76.868
ROOT
ATOM      1  C1  BGC C   1      18.212  69.653  61.2940  0.00  0.00     0.000 C
ATOM      2  C2  BGC C   1      17.465  69.770  62.6220  0.00  0.00     0.000 C
ATOM      3  C3  BGC C   1      15.968  69.590  62.3960  0.00  0.00     0.000 C
ATOM      4  C4  BGC C   1      15.444  70.479  61.2810  0.00  0.00     0.000 C
ATOM      5  C5  BGC C   1      16.360  70.395  60.0630  0.00  0.00     0.000 C
ATOM      6  O5  BGC C   1      17.712  70.538  60.3670  0.00  0.00     0.000 O
ATOM      7   O  BGC C   1      17.956  68.763  63.4740  0.00  0.00     0.000 O
ATOM      9  HD  BGC C   1      17.522  69.473  63.7140  0.00  0.00     0.000 HD
ATOM      9   O  BGC C   1      15.298  69.837  63.6390  0.00  0.00     0.000 O
ATOM     11  HD  BGC C   1      14.864  70.547  63.8800  0.00  0.00     0.000 HD
ATOM     11   O  BGC C   1      14.134  70.017  60.9680  0.00  0.00     0.000 O
ATOM     13  HD  BGC C   1      13.700  70.727  61.2080  0.00  0.00     0.000 HD
ATOM     13   O  BGC C   1      16.270  72.829  59.6100  0.00  0.00     0.000 O
ATOM     15  HD  BGC C   1      15.836  73.539  59.8510  0.00  0.00     0.000 HD
ATOM     15   C  BGC C   1      15.957  71.510  59.0820  0.00  0.00     0.000 C
ENDROOT
BRANCH 1 16
ATOM     16  O4  BGC C   2      19.561  69.997  61.5050  0.00  0.00     0.000 O
BRANCH 16 20
ATOM     17  C1  BGC C   2      23.218  68.978  60.0010  0.00  0.00     0.000 C
ATOM     18  C2  BGC C   2      22.437  70.011  59.2050  0.00  0.00     0.000 C
ATOM     19  C3  BGC C   2      21.288  70.572  60.0310  0.00  0.00     0.000 C
ATOM     20  C4  BGC C   2      20.477  69.450  60.5860  0.00  0.00     0.000 C
ATOM     21  C5  BGC C   2      21.364  68.433  61.2970  0.00  0.00     0.000 C
ATOM     22  O5  BGC C   2      22.365  67.963  60.4460  0.00  0.00     0.000 O
ATOM     23   O  BGC C   2      23.330  71.062  58.8080  0.00  0.00     0.000 O
ATOM     25  HD  BGC C   2      22.938  71.831  58.8860  0.00  0.00     0.000 HD
ATOM     25   O  BGC C   2      20.473  71.391  59.2010  0.00  0.00     0.000 O
ATOM     27  HD  BGC C   2      20.081  72.160  59.2800  0.00  0.00     0.000 HD
ATOM     27   C  BGC C   2      20.612  67.222  61.8890  0.00  0.00     0.000 C
ATOM     28   O  BGC C   2      19.813  66.567  60.8910  0.00  0.00     0.000 O
ATOM     30  HD  BGC C   2      19.421  67.335  60.9690  0.00  0.00     0.000 HD
BRANCH 17 30
ATOM     30  O4  BGC C   3      24.208  68.403  59.1740  0.00  0.00     0.000 O
BRANCH 30 34
ATOM     31  C1  BGC C   3      28.002  67.018  59.3200  0.00  0.00     0.000 C
ATOM     32  C2  BGC C   3      26.905  66.016  59.7510  0.00  0.00     0.000 C
ATOM     33  C3  BGC C   3      25.553  66.486  59.3390  0.00  0.00     0.000 C
ATOM     34  C4  BGC C   3      25.373  67.925  59.8290  0.00  0.00     0.000 C
ATOM     35  C5  BGC C   3      26.560  68.858  59.4780  0.00  0.00     0.000 C
ATOM     36  O5  BGC C   3      27.770  68.280  59.8970  0.00  0.00     0.000 O
ATOM     37   O  BGC C   3      27.013  64.673  59.3160  0.00  0.00     0.000 O
ATOM     39  HD  BGC C   3      26.480  65.337  59.4780  0.00  0.00     0.000 HD
ATOM     39   O  BGC C   3      24.525  65.610  59.8890  0.00  0.00     0.000 O
ATOM     41  HD  BGC C   3      23.993  66.274  60.0510  0.00  0.00     0.000 HD
ATOM     41   C  BGC C   3      26.496  70.267  60.1120  0.00  0.00     0.000 C
ATOM     42   O  BGC C   3      26.567  70.296  61.5830  0.00  0.00     0.000 O
ATOM     44  HD  BGC C   3      26.035  70.960  61.7450  0.00  0.00     0.000 HD
BRANCH 31 44
ATOM     44  O4  BGC C   4      29.260  66.575  59.7050  0.00  0.00     0.000 O
BRANCH 44 48
ATOM     45  C1  BGC C   4      33.193  66.311  58.5990  0.00  0.00     0.000 C
ATOM     46  C2  BGC C   4      32.795  67.783  58.9400  0.00  0.00     0.000 C
ATOM     47  C3  BGC C   4      31.427  67.596  59.6070  0.00  0.00     0.000 C
ATOM     48  C4  BGC C   4      30.376  66.773  58.8880  0.00  0.00     0.000 C
ATOM     49  C5  BGC C   4      31.001  65.388  58.6570  0.00  0.00     0.000 C
ATOM     50  O5  BGC C   4      32.198  65.491  57.9680  0.00  0.00     0.000 O
ATOM     51   O  BGC C   4      33.639  68.688  59.8550  0.00  0.00     0.000 O
ATOM     53  HD  BGC C   4      33.227  69.427  60.0380  0.00  0.00     0.000 HD
ATOM     53   O  BGC C   4      30.910  69.006  59.5300  0.00  0.00     0.000 O
ATOM     55  HD  BGC C   4      30.497  69.746  59.7130  0.00  0.00     0.000 HD
ATOM     55   C  BGC C   4      30.114  64.522  57.8010  0.00  0.00     0.000 C
ATOM     56   O  BGC C   4      29.758  65.068  56.5260  0.00  0.00     0.000 O
ATOM     58  HD  BGC C   4      29.346  65.808  56.7080  0.00  0.00     0.000 HD
BRANCH 45 58
ATOM     58  O4  BGC C   5      34.309  66.247  57.7610  0.00  0.00     0.000 O
BRANCH 58 62
ATOM     59  C1  BGC C   5      36.818  66.859  59.3990  0.00  0.00     0.000 C
ATOM     60  C2  BGC C   5      37.267  66.574  58.0540  0.00  0.00     0.000 C
ATOM     61  C3  BGC C   5      36.599  65.352  57.4300  0.00  0.00     0.000 C
ATOM     62  C4  BGC C   5      35.226  65.166  58.0600  0.00  0.00     0.000 C
ATOM     63  C5  BGC C   5      35.389  65.338  59.5520  0.00  0.00     0.000 C
ATOM     64  O5  BGC C   5      36.590  65.936  60.0360  0.00  0.00     0.000 O
ATOM     65   O  BGC C   5      36.162  63.085  59.9590  0.00  0.00     0.000 O
ATOM     67  HD  BGC C   5      35.487  63.627  59.9330  0.00  0.00     0.000 HD
ATOM     67   O  BGC C   5      36.162  63.085  59.9590  0.00  0.00     0.000 O
ATOM     69  HD  BGC C   5      35.487  63.627  59.9330  0.00  0.00     0.000 HD
ENDBRANCH 58 62
ENDBRANCH 45 58
ENDBRANCH 44 48
ENDBRANCH 31 44
ENDBRANCH 30 34
ENDBRANCH 17 30
ENDBRANCH 16 20
ENDBRANCH 1 16
TORSDOF 8
ENDMDL
MODEL 21
REMARK VINA RESULT:      -0.1     49.779     52.884
ROOT
ATOM      1  C1  BGC C   1      12.898  56.650  39.0440  0.00  0.00     0.000 C
ATOM      2  C2  BGC C   1      13.344  57.825  38.1750  0.00  0.00     0.000 C
ATOM      3  C3  BGC C   1      12.221  58.850  38.0670  0.00  0.00     0.000 C
ATOM      4  C4  BGC C   1      10.900  58.215  37.6640  0.00  0.00     0.000 C
ATOM      5  C5  BGC C   1      10.640  56.963  38.4970  0.00  0.00     0.000 C
ATOM      6  O5  BGC C   1      11.730  56.100  38.5680  0.00  0.00     0.000 O
ATOM      7   O  BGC C   1      14.473  58.400  38.7880  0.00  0.00     0.000 O
ATOM      9  HD  BGC C   1      14.229  58.501  37.9640  0.00  0.00     0.000 HD
ATOM      9   O  BGC C   1      12.632  59.865  37.1420  0.00  0.00     0.000 O
ATOM     11  HD  BGC C   1      12.388  59.966  36.3170  0.00  0.00     0.000 HD
ATOM     11   O  BGC C   1       9.890  59.194  37.8830  0.00  0.00     0.000 O
ATOM     13  HD  BGC C   1       9.645  59.295  37.0580  0.00  0.00     0.000 HD
ATOM     13   O  BGC C   1       9.803  55.646  36.5730  0.00  0.00     0.000 O
ATOM     15  HD  BGC C   1       9.559  55.747  35.7480  0.00  0.00     0.000 HD
ATOM     15   C  BGC C   1       9.455  56.207  37.8690  0.00  0.00     0.000 C
ENDROOT
BRANCH 1 16
ATOM     16  O4  BGC C   2      13.883  55.645  38.9810  0.00  0.00     0.000 O
BRANCH 16 20
ATOM     17  C1  BGC C   2      15.405  52.740  41.4140  0.00  0.00     0.000 C
ATOM     18  C2  BGC C   2      14.119  52.388  40.6840  0.00  0.00     0.000 C
ATOM     19  C3  BGC C   2      13.852  53.374  39.5550  0.00  0.00     0.000 C
ATOM     20  C4  BGC C   2      13.924  54.768  40.0820  0.00  0.00     0.000 C
ATOM     21  C5  BGC C   2      15.216  54.993  40.8620  0.00  0.00     0.000 C
ATOM     22  O5  BGC C   2      15.349  54.056  41.8870  0.00  0.00     0.000 O
ATOM     23   O  BGC C   2      14.229  51.053  40.1680  0.00  0.00     0.000 O
ATOM     25  HD  BGC C   2      13.885  51.012  39.3740  0.00  0.00     0.000 HD
ATOM     25   O  BGC C   2      12.559  53.129  39.0160  0.00  0.00     0.000 O
ATOM     27  HD  BGC C   2      12.214  53.088  38.2230  0.00  0.00     0.000 HD
ATOM     27   C  BGC C   2      15.369  56.406  41.4630  0.00  0.00     0.000 C
ATOM     28   O  BGC C   2      14.236  56.751  42.2770  0.00  0.00     0.000 O
ATOM     30  HD  BGC C   2      13.892  56.710  41.4830  0.00  0.00     0.000 HD
BRANCH 17 30
ATOM     30  O4  BGC C   3      15.567  51.873  42.5160  0.00  0.00     0.000 O
BRANCH 30 34
ATOM     31  C1  BGC C   3      18.445  49.913  44.5680  0.00  0.00     0.000 C
ATOM     32  C2  BGC C   3      18.216  51.387  44.9770  0.00  0.00     0.000 C
ATOM     33  C3  BGC C   3      16.933  51.906  44.4250  0.00  0.00     0.000 C
ATOM     34  C4  BGC C   3      16.903  51.617  42.9220  0.00  0.00     0.000 C
ATOM     35  C5  BGC C   3      17.263  50.154  42.5590  0.00  0.00     0.000 C
ATOM     36  O5  BGC C   3      18.476  49.789  43.1680  0.00  0.00     0.000 O
ATOM     37   O  BGC C   3      18.220  51.711  46.3550  0.00  0.00     0.000 O
ATOM     39  HD  BGC C   3      17.862  51.862  45.5810  0.00  0.00     0.000 HD
ATOM     39   O  BGC C   3      16.813  53.335  44.6890  0.00  0.00     0.000 O
ATOM     41  HD  BGC C   3      16.455  53.486  43.9150  0.00  0.00     0.000 HD
ATOM     41   C  BGC C   3      17.420  49.873  41.0470  0.00  0.00     0.000 C
ATOM     42   O  BGC C   3      18.529  50.585  40.3890  0.00  0.00     0.000 O
ATOM     44  HD  BGC C   3      18.171  50.736  39.6150  0.00  0.00     0.000 HD
BRANCH 31 44
ATOM     44  O4  BGC C   4      19.641  49.432  45.0860  0.00  0.00     0.000 O
BRANCH 44 48
ATOM     45  C1  BGC C   4      21.494  46.187  46.7570  0.00  0.00     0.000 C
ATOM     46  C2  BGC C   4      21.206  45.958  45.2390  0.00  0.00     0.000 C
ATOM     47  C3  BGC C   4      20.817  47.368  44.7730  0.00  0.00     0.000 C
ATOM     48  C4  BGC C   4      19.751  48.118  45.5470  0.00  0.00     0.000 C
ATOM     49  C5  BGC C   4      20.253  48.203  46.9970  0.00  0.00     0.000 C
ATOM     50  O5  BGC C   4      20.528  46.944  47.5030  0.00  0.00     0.000 O
ATOM     51   O  BGC C   4      22.262  45.419  44.2570  0.00  0.00     0.000 O
ATOM     53  HD  BGC C   4      21.985  45.461  43.4380  0.00  0.00     0.000 HD
ATOM     53   O  BGC C   4      20.158  47.032  43.4640  0.00  0.00     0.000 O
ATOM     55  HD  BGC C   4      19.880  47.073  42.6450  0.00  0.00     0.000 HD
ATOM     55   C  BGC C   4      19.204  48.785  47.9080  0.00  0.00     0.000 C
ATOM     56   O  BGC C   4      17.942  48.108  47.9130  0.00  0.00     0.000 O
ATOM     58  HD  BGC C   4      17.665  48.149  47.0930  0.00  0.00     0.000 HD
BRANCH 45 58
ATOM     58  O4  BGC C   5      21.638  44.984  47.4530  0.00  0.00     0.000 O
BRANCH 58 62
ATOM     59  C1  BGC C   5      24.376  43.785  46.8100  0.00  0.00     0.000 C
ATOM     60  C2  BGC C   5      23.751  42.890  47.7600  0.00  0.00     0.000 C
ATOM     61  C3  BGC C   5      23.082  43.608  48.9290  0.00  0.00     0.000 C
ATOM     62  C4  BGC C   5      22.662  45.000  48.4780  0.00  0.00     0.000 C
ATOM     63  C5  BGC C   5      23.822  45.591  47.7090  0.00  0.00     0.000 C
ATOM     64  O5  BGC C   5      24.859  44.715  47.2710  0.00  0.00     0.000 O
ATOM     65   O  BGC C   5      25.046  46.315  49.6620  0.00  0.00     0.000 O
ATOM     67  HD  BGC C   5      24.479  46.526  49.0420  0.00  0.00     0.000 HD
ATOM     67   O  BGC C   5      25.046  46.315  49.6620  0.00  0.00     0.000 O
ATOM     69  HD  BGC C   5      24.479  46.526  49.0420  0.00  0.00     0.000 HD
ENDBRANCH 58 62
ENDBRANCH 45 58
ENDBRANCH 44 48
ENDBRANCH 31 44
ENDBRANCH 30 34
ENDBRANCH 17 30
ENDBRANCH 16 20
ENDBRANCH 1 16
TORSDOF 8
ENDMDL
MODEL 22
REMARK VINA RESULT:      -0.1     31.773     34.165
ROOT
ATOM      1  C1  BGC C   1      18.078  24.580  40.4730  0.00  0.00     0.000 C
ATOM      2  C2  BGC C   1      17.864  24.536  41.9860  0.00  0.00     0.000 C
ATOM      3  C3  BGC C   1      17.050  23.305  42.3630  0.00  0.00     0.000 C
ATOM      4  C4  BGC C   1      15.785  23.175  41.5300  0.00  0.00     0.000 C
ATOM      5  C5  BGC C   1      16.101  23.391  40.0530  0.00  0.00     0.000 C
ATOM      6  O5  BGC C   1      16.876  24.521  39.8040  0.00  0.00     0.000 O
ATOM      7   O  BGC C   1      19.135  24.486  42.5900  0.00  0.00     0.000 O
ATOM      9  HD  BGC C   1      18.392  24.716  42.9730  0.00  0.00     0.000 HD
ATOM      9   O  BGC C   1      16.763  23.374  43.7660  0.00  0.00     0.000 O
ATOM     11  HD  BGC C   1      16.021  23.603  44.1490  0.00  0.00     0.000 HD
ATOM     11   O  BGC C   1      15.276  21.865  41.7580  0.00  0.00     0.000 O
ATOM     13  HD  BGC C   1      14.533  22.095  42.1400  0.00  0.00     0.000 HD
ATOM     13   O  BGC C   1      14.081  24.766  39.6430  0.00  0.00     0.000 O
ATOM     15  HD  BGC C   1      13.339  24.995  40.0250  0.00  0.00     0.000 HD
ATOM     15   C  BGC C   1      14.769  23.533  39.2940  0.00  0.00     0.000 C
ENDROOT
BRANCH 1 16
ATOM     16  O4  BGC C   2      18.676  25.810  40.1380  0.00  0.00     0.000 O
BRANCH 16 20
ATOM     17  C1  BGC C   2      21.277  27.250  37.3390  0.00  0.00     0.000 C
ATOM     18  C2  BGC C   2      19.827  27.131  36.8990  0.00  0.00     0.000 C
ATOM     19  C3  BGC C   2      18.912  26.942  38.1010  0.00  0.00     0.000 C
ATOM     20  C4  BGC C   2      19.416  25.817  38.9410  0.00  0.00     0.000 C
ATOM     21  C5  BGC C   2      20.898  25.994  39.2620  0.00  0.00     0.000 C
ATOM     22  O5  BGC C   2      21.648  26.131  38.0930  0.00  0.00     0.000 O
ATOM     23   O  BGC C   2      19.464  28.315  36.1740  0.00  0.00     0.000 O
ATOM     25  HD  BGC C   2      18.663  28.562  36.3900  0.00  0.00     0.000 HD
ATOM     25   O  BGC C   2      17.596  26.650  37.6450  0.00  0.00     0.000 O
ATOM     27  HD  BGC C   2      16.795  26.898  37.8620  0.00  0.00     0.000 HD
ATOM     27   C  BGC C   2      21.513  24.864  40.1130  0.00  0.00     0.000 C
ATOM     28   O  BGC C   2      21.291  23.578  39.5120  0.00  0.00     0.000 O
ATOM     30  HD  BGC C   2      20.489  23.826  39.7280  0.00  0.00     0.000 HD
BRANCH 17 30
ATOM     30  O4  BGC C   3      22.106  27.318  36.1980  0.00  0.00     0.000 O
BRANCH 30 34
ATOM     31  C1  BGC C   3      25.472  29.119  34.8700  0.00  0.00     0.000 C
ATOM     32  C2  BGC C   3      25.684  27.833  35.7050  0.00  0.00     0.000 C
ATOM     33  C3  BGC C   3      24.414  27.067  35.8460  0.00  0.00     0.000 C
ATOM     34  C4  BGC C   3      23.329  28.021  36.3530  0.00  0.00     0.000 C
ATOM     35  C5  BGC C   3      23.244  29.349  35.5580  0.00  0.00     0.000 C
ATOM     36  O5  BGC C   3      24.513  29.948  35.4780  0.00  0.00     0.000 O
ATOM     37   O  BGC C   3      26.665  26.907  35.2760  0.00  0.00     0.000 O
ATOM     39  HD  BGC C   3      25.880  27.014  35.6260  0.00  0.00     0.000 HD
ATOM     39   O  BGC C   3      24.600  25.948  36.7620  0.00  0.00     0.000 O
ATOM     41  HD  BGC C   3      23.815  26.055  37.1120  0.00  0.00     0.000 HD
ATOM     41   C  BGC C   3      22.288  30.409  36.1520  0.00  0.00     0.000 C
ATOM     42   O  BGC C   3      22.668  30.924  37.4780  0.00  0.00     0.000 O
ATOM     44  HD  BGC C   3      21.883  31.030  37.8280  0.00  0.00     0.000 HD
BRANCH 31 44
ATOM     44  O4  BGC C   4      26.659  29.828  34.7400  0.00  0.00     0.000 O
BRANCH 44 48
ATOM     45  C1  BGC C   4      28.946  32.072  32.1920  0.00  0.00     0.000 C
ATOM     46  C2  BGC C   4      27.671  32.851  32.6460  0.00  0.00     0.000 C
ATOM     47  C3  BGC C   4      27.156  31.975  33.7960  0.00  0.00     0.000 C
ATOM     48  C4  BGC C   4      26.976  30.490  33.5510  0.00  0.00     0.000 C
ATOM     49  C5  BGC C   4      28.349  29.959  33.1080  0.00  0.00     0.000 C
ATOM     50  O5  BGC C   4      28.819  30.654  32.0060  0.00  0.00     0.000 O
ATOM     51   O  BGC C   4      27.712  34.304  33.1520  0.00  0.00     0.000 O
ATOM     53  HD  BGC C   4      26.947  34.550  33.4740  0.00  0.00     0.000 HD
ATOM     53   O  BGC C   4      25.753  32.504  33.9130  0.00  0.00     0.000 O
ATOM     55  HD  BGC C   4      24.987  32.750  34.2340  0.00  0.00     0.000 HD
ATOM     55   C  BGC C   4      28.267  28.519  32.6730  0.00  0.00     0.000 C
ATOM     56   O  BGC C   4      27.324  28.239  31.6320  0.00  0.00     0.000 O
ATOM     58  HD  BGC C   4      26.558  28.485  31.9530  0.00  0.00     0.000 HD
BRANCH 45 58
ATOM     58  O4  BGC C   5      29.458  32.558  30.9860  0.00  0.00     0.000 O
BRANCH 58 62
ATOM     59  C1  BGC C   5      30.898  35.204  31.5130  0.00  0.00     0.000 C
ATOM     60  C2  BGC C   5      31.055  34.927  30.1010  0.00  0.00     0.000 C
ATOM     61  C3  BGC C   5      31.433  33.479  29.7990  0.00  0.00     0.000 C
ATOM     62  C4  BGC C   5      30.905  32.589  30.9150  0.00  0.00     0.000 C
ATOM     63  C5  BGC C   5      31.238  33.266  32.2240  0.00  0.00     0.000 C
ATOM     64  O5  BGC C   5      31.622  34.639  32.1970  0.00  0.00     0.000 O
ATOM     65   O  BGC C   5      33.517  32.470  32.3200  0.00  0.00     0.000 O
ATOM     67  HD  BGC C   5      32.694  32.341  32.5540  0.00  0.00     0.000 HD
ATOM     67   O  BGC C   5      33.517  32.470  32.3200  0.00  0.00     0.000 O
ATOM     69  HD  BGC C   5      32.694  32.341  32.5540  0.00  0.00     0.000 HD
ENDBRANCH 58 62
ENDBRANCH 45 58
ENDBRANCH 44 48
ENDBRANCH 31 44
ENDBRANCH 30 34
ENDBRANCH 17 30
ENDBRANCH 16 20
ENDBRANCH 1 16
TORSDOF 8
ENDMDL
MODEL 23
REMARK VINA RESULT:      -0.1     59.257     67.127
ROOT
ATOM      1  C1  BGC C   1      59.464  62.189  33.5170  0.00  0.00     0.000 C
ATOM      2  C2  BGC C   1      60.898  62.705  33.4090  0.00  0.00     0.000 C
ATOM      3  C3  BGC C   1      60.923  64.219  33.5860  0.00  0.00     0.000 C
ATOM      4  C4  BGC C   1      59.917  64.919  32.6880  0.00  0.00     0.000 C
ATOM      5  C5  BGC C   1      58.564  64.218  32.7630  0.00  0.00     0.000 C
ATOM      6  O5  BGC C   1      58.640  62.835  32.6240  0.00  0.00     0.000 O
ATOM      7   O  BGC C   1      61.649  62.082  34.4240  0.00  0.00     0.000 O
ATOM      9  HD  BGC C   1      61.964  62.468  33.7160  0.00  0.00     0.000 HD
ATOM      9   O  BGC C   1      62.262  64.672  33.3480  0.00  0.00     0.000 O
ATOM     11  HD  BGC C   1      62.577  65.058  32.6400  0.00  0.00     0.000 HD
ATOM     11   O  BGC C   1      59.823  66.264  33.1460  0.00  0.00     0.000 O
ATOM     13  HD  BGC C   1      60.138  66.650  32.4370  0.00  0.00     0.000 HD
ATOM     13   O  BGC C   1      58.151  64.377  30.3250  0.00  0.00     0.000 O
ATOM     15  HD  BGC C   1      58.465  64.762  29.6170  0.00  0.00     0.000 HD
ATOM     15   C  BGC C   1      57.672  64.776  31.6390  0.00  0.00     0.000 C
ENDROOT
BRANCH 1 16
ATOM     16  O4  BGC C   2      59.450  60.823  33.1760  0.00  0.00     0.000 O
BRANCH 16 20
ATOM     17  C1  BGC C   2      57.352  57.469  34.1870  0.00  0.00     0.000 C
ATOM     18  C2  BGC C   2      56.704  58.370  33.1470  0.00  0.00     0.000 C
ATOM     19  C3  BGC C   2      57.714  59.364  32.5910  0.00  0.00     0.000 C
ATOM     20  C4  BGC C   2      58.388  60.074  33.7160  0.00  0.00     0.000 C
ATOM     21  C5  BGC C   2      58.934  59.084  34.7410  0.00  0.00     0.000 C
ATOM     22  O5  BGC C   2      57.924  58.239  35.2050  0.00  0.00     0.000 O
ATOM     23   O  BGC C   2      56.172  57.552  32.0930  0.00  0.00     0.000 O
ATOM     25  HD  BGC C   2      56.321  57.924  31.3250  0.00  0.00     0.000 HD
ATOM     25   O  BGC C   2      57.038  60.304  31.7640  0.00  0.00     0.000 O
ATOM     27  HD  BGC C   2      57.186  60.675  30.9960  0.00  0.00     0.000 HD
ATOM     27   C  BGC C   2      59.633  59.730  35.9550  0.00  0.00     0.000 C
ATOM     28   O  BGC C   2      58.776  60.685  36.6020  0.00  0.00     0.000 O
ATOM     30  HD  BGC C   2      58.925  61.056  35.8340  0.00  0.00     0.000 HD
BRANCH 17 30
ATOM     30  O4  BGC C   3      56.367  56.633  34.7560  0.00  0.00     0.000 O
BRANCH 30 34
ATOM     31  C1  BGC C   3      55.870  52.870  36.1460  0.00  0.00     0.000 C
ATOM     32  C2  BGC C   3      56.469  53.883  37.1510  0.00  0.00     0.000 C
ATOM     33  C3  BGC C   3      56.290  55.283  36.6760  0.00  0.00     0.000 C
ATOM     34  C4  BGC C   3      56.815  55.376  35.2410  0.00  0.00     0.000 C
ATOM     35  C5  BGC C   3      56.279  54.262  34.3060  0.00  0.00     0.000 C
ATOM     36  O5  BGC C   3      56.486  53.000  34.8890  0.00  0.00     0.000 O
ATOM     37   O  BGC C   3      56.011  53.852  38.4900  0.00  0.00     0.000 O
ATOM     39  HD  BGC C   3      56.265  54.348  37.8270  0.00  0.00     0.000 HD
ATOM     39   O  BGC C   3      56.996  56.207  37.5550  0.00  0.00     0.000 O
ATOM     41  HD  BGC C   3      57.250  56.704  36.8920  0.00  0.00     0.000 HD
ATOM     41   C  BGC C   3      56.927  54.216  32.9030  0.00  0.00     0.000 C
ATOM     42   O  BGC C   3      58.365  53.901  32.8860  0.00  0.00     0.000 O
ATOM     44  HD  BGC C   3      58.619  54.397  32.2230  0.00  0.00     0.000 HD
BRANCH 31 44
ATOM     44  O4  BGC C   4      56.037  51.566  36.5940  0.00  0.00     0.000 O
BRANCH 44 48
ATOM     45  C1  BGC C   4      54.290  47.873  36.8520  0.00  0.00     0.000 C
ATOM     46  C2  BGC C   4      54.705  48.205  35.3830  0.00  0.00     0.000 C
ATOM     47  C3  BGC C   4      55.589  49.444  35.5740  0.00  0.00     0.000 C
ATOM     48  C4  BGC C   4      55.047  50.602  36.3900  0.00  0.00     0.000 C
ATOM     49  C5  BGC C   4      54.704  50.027  37.7730  0.00  0.00     0.000 C
ATOM     50  O5  BGC C   4      53.826  48.961  37.6660  0.00  0.00     0.000 O
ATOM     51   O  BGC C   4      55.475  47.218  34.4870  0.00  0.00     0.000 O
ATOM     53  HD  BGC C   4      55.730  47.592  33.7480  0.00  0.00     0.000 HD
ATOM     53   O  BGC C   4      55.611  49.963  34.1630  0.00  0.00     0.000 O
ATOM     55  HD  BGC C   4      55.865  50.337  33.4250  0.00  0.00     0.000 HD
ATOM     55   C  BGC C   4      53.999  51.046  38.6310  0.00  0.00     0.000 C
ATOM     56   O  BGC C   4      52.806  51.607  38.0730  0.00  0.00     0.000 O
ATOM     58  HD  BGC C   4      53.060  51.981  37.3340  0.00  0.00     0.000 HD
BRANCH 45 58
ATOM     58  O4  BGC C   5      53.278  46.912  36.9100  0.00  0.00     0.000 O
BRANCH 58 62
ATOM     59  C1  BGC C   5      54.481  44.164  36.3140  0.00  0.00     0.000 C
ATOM     60  C2  BGC C   5      53.078  43.945  36.5880  0.00  0.00     0.000 C
ATOM     61  C3  BGC C   5      52.564  44.711  37.8040  0.00  0.00     0.000 C
ATOM     62  C4  BGC C   5      53.411  45.960  37.9940  0.00  0.00     0.000 C
ATOM     63  C5  BGC C   5      54.857  45.551  37.8360  0.00  0.00     0.000 C
ATOM     64  O5  BGC C   5      55.140  44.285  37.2430  0.00  0.00     0.000 O
ATOM     65   O  BGC C   5      55.111  44.727  40.0920  0.00  0.00     0.000 O
ATOM     67  HD  BGC C   5      55.202  45.396  39.5500  0.00  0.00     0.000 HD
ATOM     67   O  BGC C   5      55.111  44.727  40.0920  0.00  0.00     0.000 O
ATOM     69  HD  BGC C   5      55.202  45.396  39.5500  0.00  0.00     0.000 HD
ENDBRANCH 58 62
ENDBRANCH 45 58
ENDBRANCH 44 48
ENDBRANCH 31 44
ENDBRANCH 30 34
ENDBRANCH 17 30
ENDBRANCH 16 20
ENDBRANCH 1 16
TORSDOF 8
ENDMDL
MODEL 24
REMARK VINA RESULT:      -0.1     44.084     52.722
ROOT
ATOM      1  C1  BGC C   1      24.246  40.716  60.9420  0.00  0.00     0.000 C
ATOM      2  C2  BGC C   1      24.047  42.059  61.6440  0.00  0.00     0.000 C
ATOM      3  C3  BGC C   1      25.399  42.673  61.9890  0.00  0.00     0.000 C
ATOM      4  C4  BGC C   1      26.306  41.694  62.7160  0.00  0.00     0.000 C
ATOM      5  C5  BGC C   1      26.301  40.343  62.0060  0.00  0.00     0.000 C
ATOM      6  O5  BGC C   1      25.026  39.874  61.7010  0.00  0.00     0.000 O
ATOM      7   O  BGC C   1      23.341  42.897  60.7610  0.00  0.00     0.000 O
ATOM      9  HD  BGC C   1      23.419  43.002  61.6170  0.00  0.00     0.000 HD
ATOM      9   O  BGC C   1      25.165  43.860  62.7580  0.00  0.00     0.000 O
ATOM     11  HD  BGC C   1      25.243  43.965  63.6140  0.00  0.00     0.000 HD
ATOM     11   O  BGC C   1      27.610  42.266  62.7180  0.00  0.00     0.000 O
ATOM     13  HD  BGC C   1      27.689  42.371  63.5740  0.00  0.00     0.000 HD
ATOM     13   O  BGC C   1      26.205  39.042  64.1130  0.00  0.00     0.000 O
ATOM     15  HD  BGC C   1      26.284  39.147  64.9690  0.00  0.00     0.000 HD
ATOM     15   C  BGC C   1      26.994  39.318  62.9220  0.00  0.00     0.000 C
ENDROOT
BRANCH 1 16
ATOM     16  O4  BGC C   2      22.991  40.095  60.7950  0.00  0.00     0.000 O
BRANCH 16 20
ATOM     17  C1  BGC C   2      21.142  37.590  58.1530  0.00  0.00     0.000 C
ATOM     18  C2  BGC C   2      22.042  36.924  59.1810  0.00  0.00     0.000 C
ATOM     19  C3  BGC C   2      22.375  37.887  60.3120  0.00  0.00     0.000 C
ATOM     20  C4  BGC C   2      22.895  39.164  59.7430  0.00  0.00     0.000 C
ATOM     21  C5  BGC C   2      21.958  39.708  58.6690  0.00  0.00     0.000 C
ATOM     22  O5  BGC C   2      21.741  38.758  57.6690  0.00  0.00     0.000 O
ATOM     23   O  BGC C   2      21.377  35.759  59.6940  0.00  0.00     0.000 O
ATOM     25  HD  BGC C   2      21.507  35.695  60.5470  0.00  0.00     0.000 HD
ATOM     25   O  BGC C   2      23.359  37.298  61.1530  0.00  0.00     0.000 O
ATOM     27  HD  BGC C   2      23.489  37.234  62.0070  0.00  0.00     0.000 HD
ATOM     27   C  BGC C   2      22.426  41.021  58.0070  0.00  0.00     0.000 C
ATOM     28   O  BGC C   2      23.756  40.893  57.4810  0.00  0.00     0.000 O
ATOM     30  HD  BGC C   2      23.886  40.829  58.3340  0.00  0.00     0.000 HD
BRANCH 17 30
ATOM     30  O4  BGC C   3      20.939  36.707  57.0700  0.00  0.00     0.000 O
BRANCH 30 34
ATOM     31  C1  BGC C   3      18.086  35.570  54.4430  0.00  0.00     0.000 C
ATOM     32  C2  BGC C   3      18.884  36.838  54.0580  0.00  0.00     0.000 C
ATOM     33  C3  BGC C   3      20.114  36.972  54.8870  0.00  0.00     0.000 C
ATOM     34  C4  BGC C   3      19.718  36.854  56.3610  0.00  0.00     0.000 C
ATOM     35  C5  BGC C   3      18.814  35.633  56.6690  0.00  0.00     0.000 C
ATOM     36  O5  BGC C   3      17.711  35.615  55.7970  0.00  0.00     0.000 O
ATOM     37   O  BGC C   3      19.289  36.994  52.7110  0.00  0.00     0.000 O
ATOM     39  HD  BGC C   3      19.500  37.105  53.5440  0.00  0.00     0.000 HD
ATOM     39   O  BGC C   3      20.766  38.248  54.6190  0.00  0.00     0.000 O
ATOM     41  HD  BGC C   3      20.977  38.359  55.4510  0.00  0.00     0.000 HD
ATOM     41   C  BGC C   3      18.246  35.583  58.1070  0.00  0.00     0.000 C
ATOM     42   O  BGC C   3      17.329  36.682  58.4570  0.00  0.00     0.000 O
ATOM     44  HD  BGC C   3      17.540  36.792  59.2900  0.00  0.00     0.000 HD
BRANCH 31 44
ATOM     44  O4  BGC C   4      16.941  35.447  53.6660  0.00  0.00     0.000 O
BRANCH 44 48
ATOM     45  C1  BGC C   4      14.507  32.812  51.6940  0.00  0.00     0.000 C
ATOM     46  C2  BGC C   4      14.364  32.669  53.2430  0.00  0.00     0.000 C
ATOM     47  C3  BGC C   4      15.096  33.919  53.7470  0.00  0.00     0.000 C
ATOM     48  C4  BGC C   4      16.495  34.197  53.2320  0.00  0.00     0.000 C
ATOM     49  C5  BGC C   4      16.378  34.282  51.7020  0.00  0.00     0.000 C
ATOM     50  O5  BGC C   4      15.810  33.131  51.1810  0.00  0.00     0.000 O
ATOM     51   O  BGC C   4      13.001  32.610  53.9560  0.00  0.00     0.000 O
ATOM     53  HD  BGC C   4      13.091  32.648  54.8170  0.00  0.00     0.000 HD
ATOM     53   O  BGC C   4      15.301  33.533  55.1860  0.00  0.00     0.000 O
ATOM     55  HD  BGC C   4      15.391  33.572  56.0460  0.00  0.00     0.000 HD
ATOM     55   C  BGC C   4      17.734  34.392  51.0530  0.00  0.00     0.000 C
ATOM     56   O  BGC C   4      18.660  33.347  51.3730  0.00  0.00     0.000 O
ATOM     58  HD  BGC C   4      18.750  33.386  52.2330  0.00  0.00     0.000 HD
BRANCH 45 58
ATOM     58  O4  BGC C   5      14.119  31.652  51.0190  0.00  0.00     0.000 O
BRANCH 58 62
ATOM     59  C1  BGC C   5      11.066  31.477  51.0190  0.00  0.00     0.000 C
ATOM     60  C2  BGC C   5      11.541  30.331  50.2750  0.00  0.00     0.000 C
ATOM     61  C3  BGC C   5      12.651  30.663  49.2810  0.00  0.00     0.000 C
ATOM     62  C4  BGC C   5      13.409  31.886  49.7780  0.00  0.00     0.000 C
ATOM     63  C5  BGC C   5      12.381  32.899  50.2260  0.00  0.00     0.000 C
ATOM     64  O5  BGC C   5      11.040  32.458  50.4280  0.00  0.00     0.000 O
ATOM     65   O  BGC C   5      11.931  33.762  48.0160  0.00  0.00     0.000 O
ATOM     67  HD  BGC C   5      12.386  33.845  48.7470  0.00  0.00     0.000 HD
ATOM     67   O  BGC C   5      11.931  33.762  48.0160  0.00  0.00     0.000 O
ATOM     69  HD  BGC C   5      12.386  33.845  48.7470  0.00  0.00     0.000 HD
ENDBRANCH 58 62
ENDBRANCH 45 58
ENDBRANCH 44 48
ENDBRANCH 31 44
ENDBRANCH 30 34
ENDBRANCH 17 30
ENDBRANCH 16 20
ENDBRANCH 1 16
TORSDOF 8
ENDMDL
MODEL 25
REMARK VINA RESULT:      -0.1     28.354     38.346
ROOT
ATOM      1  C1  BGC C   1      10.779  35.084  50.2260  0.00  0.00     0.000 C
ATOM      2  C2  BGC C   1      10.204  36.454  50.5850  0.00  0.00     0.000 C
ATOM      3  C3  BGC C   1      10.940  37.029  51.7890  0.00  0.00     0.000 C
ATOM      4  C4  BGC C   1      11.019  36.041  52.9410  0.00  0.00     0.000 C
ATOM      5  C5  BGC C   1      11.455  34.670  52.4320  0.00  0.00     0.000 C
ATOM      6  O5  BGC C   1      10.752  34.238  51.3110  0.00  0.00     0.000 O
ATOM      7   O  BGC C   1      10.371  37.289  49.4640  0.00  0.00     0.000 O
ATOM      9  HD  BGC C   1       9.825  37.418  50.1240  0.00  0.00     0.000 HD
ATOM      9   O  BGC C   1      10.286  38.247  52.1700  0.00  0.00     0.000 O
ATOM     11  HD  BGC C   1       9.740  38.375  52.8300  0.00  0.00     0.000 HD
ATOM     11   O  BGC C   1      11.963  36.566  53.8690  0.00  0.00     0.000 O
ATOM     13  HD  BGC C   1      11.417  36.694  54.5290  0.00  0.00     0.000 HD
ATOM     13   O  BGC C   1       9.835  33.438  53.8440  0.00  0.00     0.000 O
ATOM     15  HD  BGC C   1       9.289  33.566  54.5040  0.00  0.00     0.000 HD
ATOM     15   C  BGC C   1      11.247  33.650  53.5660  0.00  0.00     0.000 C
ENDROOT
BRANCH 1 16
ATOM     16  O4  BGC C   2       9.970  34.503  49.2300  0.00  0.00     0.000 O
BRANCH 16 20
ATOM     17  C1  BGC C   2      10.422  31.987  46.0460  0.00  0.00     0.000 C
ATOM     18  C2  BGC C   2      10.297  31.321  47.4070  0.00  0.00     0.000 C
ATOM     19  C3  BGC C   2       9.776  32.306  48.4440  0.00  0.00     0.000 C
ATOM     20  C4  BGC C   2      10.604  33.546  48.4170  0.00  0.00     0.000 C
ATOM     21  C5  BGC C   2      10.731  34.089  46.9970  0.00  0.00     0.000 C
ATOM     22  O5  BGC C   2      11.241  33.118  46.1340  0.00  0.00     0.000 O
ATOM     23   O  BGC C   2       9.411  30.197  47.2930  0.00  0.00     0.000 O
ATOM     25  HD  BGC C   2       8.895  30.154  47.9860  0.00  0.00     0.000 HD
ATOM     25   O  BGC C   2       9.846  31.708  49.7330  0.00  0.00     0.000 O
ATOM     27  HD  BGC C   2       9.329  31.665  50.4270  0.00  0.00     0.000 HD
ATOM     27   C  BGC C   2      11.590  35.364  46.8670  0.00  0.00     0.000 C
ATOM     28   O  BGC C   2      12.894  35.173  47.4380  0.00  0.00     0.000 O
ATOM     30  HD  BGC C   2      12.377  35.130  48.1320  0.00  0.00     0.000 HD
BRANCH 17 30
ATOM     30  O4  BGC C   3      11.005  31.080  45.1350  0.00  0.00     0.000 O
BRANCH 30 34
ATOM     31  C1  BGC C   3      10.804  29.965  41.2550  0.00  0.00     0.000 C
ATOM     32  C2  BGC C   3      11.698  31.192  41.5550  0.00  0.00     0.000 C
ATOM     33  C3  BGC C   3      11.983  31.307  43.0120  0.00  0.00     0.000 C
ATOM     34  C4  BGC C   3      10.654  31.248  43.7700  0.00  0.00     0.000 C
ATOM     35  C5  BGC C   3       9.742  30.070  43.3420  0.00  0.00     0.000 C
ATOM     36  O5  BGC C   3       9.582  30.065  41.9450  0.00  0.00     0.000 O
ATOM     37   O  BGC C   3      12.945  31.293  40.8930  0.00  0.00     0.000 O
ATOM     39  HD  BGC C   3      12.509  31.421  41.6300  0.00  0.00     0.000 HD
ATOM     39   O  BGC C   3      12.692  32.551  43.2900  0.00  0.00     0.000 O
ATOM     41  HD  BGC C   3      12.256  32.679  44.0270  0.00  0.00     0.000 HD
ATOM     41   C  BGC C   3       8.322  30.085  43.9520  0.00  0.00     0.000 C
ATOM     42   O  BGC C   3       7.479  31.225  43.5540  0.00  0.00     0.000 O
ATOM     44  HD  BGC C   3       7.043  31.354  44.2910  0.00  0.00     0.000 HD
BRANCH 31 44
ATOM     44  O4  BGC C   4      10.542  29.861  39.8950  0.00  0.00     0.000 O
BRANCH 44 48
ATOM     45  C1  BGC C   4      10.102  27.255  36.7690  0.00  0.00     0.000 C
ATOM     46  C2  BGC C   4       8.897  27.165  37.7590  0.00  0.00     0.000 C
ATOM     47  C3  BGC C   4       9.114  28.403  38.6380  0.00  0.00     0.000 C
ATOM     48  C4  BGC C   4      10.477  28.614  39.2680  0.00  0.00     0.000 C
ATOM     49  C5  BGC C   4      11.483  28.656  38.1070  0.00  0.00     0.000 C
ATOM     50  O5  BGC C   4      11.397  27.511  37.3320  0.00  0.00     0.000 O
ATOM     51   O  BGC C   4       7.429  27.176  37.2950  0.00  0.00     0.000 O
ATOM     53  HD  BGC C   4       6.884  27.237  37.9660  0.00  0.00     0.000 HD
ATOM     53   O  BGC C   4       8.221  28.054  39.7970  0.00  0.00     0.000 O
ATOM     55  HD  BGC C   4       7.677  28.115  40.4680  0.00  0.00     0.000 HD
ATOM     55   C  BGC C   4      12.902  28.698  38.6110  0.00  0.00     0.000 C
ATOM     56   O  BGC C   4      13.279  27.631  39.4890  0.00  0.00     0.000 O
ATOM     58  HD  BGC C   4      12.735  27.693  40.1600  0.00  0.00     0.000 HD
BRANCH 45 58
ATOM     58  O4  BGC C   5      10.252  26.090  36.0130  0.00  0.00     0.000 O
BRANCH 58 62
ATOM     59  C1  BGC C   5       8.094  26.024  33.8470  0.00  0.00     0.000 C
ATOM     60  C2  BGC C   5       8.902  24.840  33.6550  0.00  0.00     0.000 C
ATOM     61  C3  BGC C   5      10.404  25.101  33.7430  0.00  0.00     0.000 C
ATOM     62  C4  BGC C   5      10.642  26.311  34.6360  0.00  0.00     0.000 C
ATOM     63  C5  BGC C   5       9.648  27.373  34.2270  0.00  0.00     0.000 C
ATOM     64  O5  BGC C   5       8.540  26.987  33.4160  0.00  0.00     0.000 O
ATOM     65   O  BGC C   5      10.937  28.184  32.3520  0.00  0.00     0.000 O
ATOM     67  HD  BGC C   5      10.743  28.273  33.1910  0.00  0.00     0.000 HD
ATOM     67   O  BGC C   5      10.937  28.184  32.3520  0.00  0.00     0.000 O
ATOM     69  HD  BGC C   5      10.743  28.273  33.1910  0.00  0.00     0.000 HD
ENDBRANCH 58 62
ENDBRANCH 45 58
ENDBRANCH 44 48
ENDBRANCH 31 44
ENDBRANCH 30 34
ENDBRANCH 17 30
ENDBRANCH 16 20
ENDBRANCH 1 16
TORSDOF 8
ENDMDL
MODEL 26
REMARK VINA RESULT:      -0.1     37.462     43.997
ROOT
ATOM      1  C1  BGC C   1      19.878   5.853  58.2110  0.00  0.00     0.000 C
ATOM      2  C2  BGC C   1      19.810   4.382  58.6210  0.00  0.00     0.000 C
ATOM      3  C3  BGC C   1      18.515   4.111  59.3790  0.00  0.00     0.000 C
ATOM      4  C4  BGC C   1      18.290   5.105  60.5060  0.00  0.00     0.000 C
ATOM      5  C5  BGC C   1      18.540   6.528  60.0130  0.00  0.00     0.000 C
ATOM      6  O5  BGC C   1      19.728   6.676  59.3030  0.00  0.00     0.000 O
ATOM      7   O  BGC C   1      19.857   3.612  57.4430  0.00  0.00     0.000 O
ATOM      9  HD  BGC C   1      20.025   3.334  58.2460  0.00  0.00     0.000 HD
ATOM      9   O  BGC C   1      18.554   2.759  59.8550  0.00  0.00     0.000 O
ATOM     11  HD  BGC C   1      18.722   2.481  60.6580  0.00  0.00     0.000 HD
ATOM     11   O  BGC C   1      16.943   4.941  60.9360  0.00  0.00     0.000 O
ATOM     13  HD  BGC C   1      17.111   4.663  61.7390  0.00  0.00     0.000 HD
ATOM     13   O  BGC C   1      19.752   7.212  62.0620  0.00  0.00     0.000 O
ATOM     15  HD  BGC C   1      19.920   6.933  62.8650  0.00  0.00     0.000 HD
ATOM     15   C  BGC C   1      18.580   7.459  61.2380  0.00  0.00     0.000 C
ENDROOT
BRANCH 1 16
ATOM     16  O4  BGC C   2      21.153   6.111  57.6720  0.00  0.00     0.000 O
BRANCH 16 20
ATOM     17  C1  BGC C   2      22.810   8.543  54.8410  0.00  0.00     0.000 C
ATOM     18  C2  BGC C   2      22.579   9.173  56.2060  0.00  0.00     0.000 C
ATOM     19  C3  BGC C   2      22.311   8.104  57.2550  0.00  0.00     0.000 C
ATOM     20  C4  BGC C   2      21.225   7.198  56.7810  0.00  0.00     0.000 C
ATOM     21  C5  BGC C   2      21.517   6.682  55.3750  0.00  0.00     0.000 C
ATOM     22  O5  BGC C   2      21.720   7.741  54.4870  0.00  0.00     0.000 O
ATOM     23   O  BGC C   2      23.735   9.947  56.5600  0.00  0.00     0.000 O
ATOM     25  HD  BGC C   2      23.917   9.841  57.4000  0.00  0.00     0.000 HD
ATOM     25   O  BGC C   2      21.919   8.730  58.4710  0.00  0.00     0.000 O
ATOM     27  HD  BGC C   2      22.101   8.624  59.3110  0.00  0.00     0.000 HD
ATOM     27   C  BGC C   2      20.435   5.750  54.7910  0.00  0.00     0.000 C
ATOM     28   O  BGC C   2      19.139   6.369  54.8290  0.00  0.00     0.000 O
ATOM     30  HD  BGC C   2      19.321   6.263  55.6690  0.00  0.00     0.000 HD
BRANCH 17 30
ATOM     30  O4  BGC C   3      22.950   9.563  53.8750  0.00  0.00     0.000 O
BRANCH 30 34
ATOM     31  C1  BGC C   3      25.017  10.436  50.5140  0.00  0.00     0.000 C
ATOM     32  C2  BGC C   3      23.747   9.574  50.3150  0.00  0.00     0.000 C
ATOM     33  C3  BGC C   3      22.884   9.601  51.5280  0.00  0.00     0.000 C
ATOM     34  C4  BGC C   3      23.746   9.249  52.7430  0.00  0.00     0.000 C
ATOM     35  C5  BGC C   3      25.068  10.055  52.8250  0.00  0.00     0.000 C
ATOM     36  O5  BGC C   3      25.765   9.967  51.6080  0.00  0.00     0.000 O
ATOM     37   O  BGC C   3      22.904   9.863  49.2160  0.00  0.00     0.000 O
ATOM     39  HD  BGC C   3      22.947   9.623  50.0460  0.00  0.00     0.000 HD
ATOM     39   O  BGC C   3      21.777   8.663  51.3790  0.00  0.00     0.000 O
ATOM     41  HD  BGC C   3      21.820   8.422  52.2100  0.00  0.00     0.000 HD
ATOM     41   C  BGC C   3      26.046   9.600  53.9330  0.00  0.00     0.000 C
ATOM     42   O  BGC C   3      26.581   8.237  53.7760  0.00  0.00     0.000 O
ATOM     44  HD  BGC C   3      26.624   7.996  54.6060  0.00  0.00     0.000 HD
BRANCH 31 44
ATOM     44  O4  BGC C   4      25.819  10.410  49.3800  0.00  0.00     0.000 O
BRANCH 44 48
ATOM     45  C1  BGC C   4      28.251  12.639  46.9560  0.00  0.00     0.000 C
ATOM     46  C2  BGC C   4      28.923  12.364  48.3390  0.00  0.00     0.000 C
ATOM     47  C3  BGC C   4      28.003  11.290  48.9320  0.00  0.00     0.000 C
ATOM     48  C4  BGC C   4      26.510  11.549  48.9590  0.00  0.00     0.000 C
ATOM     49  C5  BGC C   4      26.092  11.800  47.5010  0.00  0.00     0.000 C
ATOM     50  O5  BGC C   4      26.828  12.833  46.9440  0.00  0.00     0.000 O
ATOM     51   O  BGC C   4      30.373  11.865  48.4810  0.00  0.00     0.000 O
ATOM     53  HD  BGC C   4      30.556  11.651  49.3000  0.00  0.00     0.000 HD
ATOM     53   O  BGC C   4      28.419  11.366  50.3750  0.00  0.00     0.000 O
ATOM     55  HD  BGC C   4      28.602  11.151  51.1940  0.00  0.00     0.000 HD
ATOM     55   C  BGC C   4      24.652  12.235  47.4100  0.00  0.00     0.000 C
ATOM     56   O  BGC C   4      24.304  13.392  48.1790  0.00  0.00     0.000 O
ATOM     58  HD  BGC C   4      24.487  13.178  48.9980  0.00  0.00     0.000 HD
BRANCH 45 58
ATOM     58  O4  BGC C   5      28.782  13.767  46.3260  0.00  0.00     0.000 O
BRANCH 58 62
ATOM     59  C1  BGC C   5      31.531  13.067  45.1840  0.00  0.00     0.000 C
ATOM     60  C2  BGC C   5      31.274  14.443  44.8180  0.00  0.00     0.000 C
ATOM     61  C3  BGC C   5      29.862  14.684  44.2890  0.00  0.00     0.000 C
ATOM     62  C4  BGC C   5      28.927  13.644  44.8900  0.00  0.00     0.000 C
ATOM     63  C5  BGC C   5      29.622  12.305  44.7900  0.00  0.00     0.000 C
ATOM     64  O5  BGC C   5      31.021  12.288  44.5160  0.00  0.00     0.000 O
ATOM     65   O  BGC C   5      29.008  11.900  42.4890  0.00  0.00     0.000 O
ATOM     67  HD  BGC C   5      28.813  11.778  43.3240  0.00  0.00     0.000 HD
ATOM     67   O  BGC C   5      29.008  11.900  42.4890  0.00  0.00     0.000 O
ATOM     69  HD  BGC C   5      28.813  11.778  43.3240  0.00  0.00     0.000 HD
ENDBRANCH 58 62
ENDBRANCH 45 58
ENDBRANCH 44 48
ENDBRANCH 31 44
ENDBRANCH 30 34
ENDBRANCH 17 30
ENDBRANCH 16 20
ENDBRANCH 1 16
TORSDOF 8
ENDMDL
MODEL 27
REMARK VINA RESULT:      -0.1     49.684     59.112
ROOT
ATOM      1  C1  BGC C   1       3.832  41.114  52.7350  0.00  0.00     0.000 C
ATOM      2  C2  BGC C   1       3.509  42.142  51.6510  0.00  0.00     0.000 C
ATOM      3  C3  BGC C   1       2.194  41.786  50.9690  0.00  0.00     0.000 C
ATOM      4  C4  BGC C   1       2.156  40.336  50.5140  0.00  0.00     0.000 C
ATOM      5  C5  BGC C   1       2.648  39.419  51.6310  0.00  0.00     0.000 C
ATOM      6  O5  BGC C   1       3.838  39.839  52.2190  0.00  0.00     0.000 O
ATOM      7   O  BGC C   1       3.411  43.399  52.2760  0.00  0.00     0.000 O
ATOM      9  HD  BGC C   1       3.534  43.254  51.4320  0.00  0.00     0.000 HD
ATOM      9   O  BGC C   1       1.998  42.696  49.8780  0.00  0.00     0.000 O
ATOM     11  HD  BGC C   1       2.121  42.550  49.0330  0.00  0.00     0.000 HD
ATOM     11   O  BGC C   1       0.805  40.047  50.1720  0.00  0.00     0.000 O
ATOM     13  HD  BGC C   1       0.928  39.902  49.3270  0.00  0.00     0.000 HD
ATOM     13   O  BGC C   1       3.978  37.988  50.1080  0.00  0.00     0.000 O
ATOM     15  HD  BGC C   1       4.101  37.843  49.2630  0.00  0.00     0.000 HD
ATOM     15   C  BGC C   1       2.861  38.014  51.0380  0.00  0.00     0.000 C
ENDROOT
BRANCH 1 16
ATOM     16  O4  BGC C   2       5.128  41.367  53.2230  0.00  0.00     0.000 O
BRANCH 16 20
ATOM     17  C1  BGC C   2       7.163  41.001  56.7450  0.00  0.00     0.000 C
ATOM     18  C2  BGC C   2       7.058  39.738  55.9030  0.00  0.00     0.000 C
ATOM     19  C3  BGC C   2       6.615  40.070  54.4850  0.00  0.00     0.000 C
ATOM     20  C4  BGC C   2       5.383  40.910  54.5300  0.00  0.00     0.000 C
ATOM     21  C5  BGC C   2       5.568  42.106  55.4590  0.00  0.00     0.000 C
ATOM     22  O5  BGC C   2       5.946  41.690  56.7370  0.00  0.00     0.000 O
ATOM     23   O  BGC C   2       8.335  39.082  55.8900  0.00  0.00     0.000 O
ATOM     25  HD  BGC C   2       8.502  38.774  55.0980  0.00  0.00     0.000 HD
ATOM     25   O  BGC C   2       6.350  38.861  53.7840  0.00  0.00     0.000 O
ATOM     27  HD  BGC C   2       6.517  38.553  52.9920  0.00  0.00     0.000 HD
ATOM     27   C  BGC C   2       4.334  43.023  55.5850  0.00  0.00     0.000 C
ATOM     28   O  BGC C   2       3.168  42.278  55.9690  0.00  0.00     0.000 O
ATOM     30  HD  BGC C   2       3.335  41.969  55.1770  0.00  0.00     0.000 HD
BRANCH 17 30
ATOM     30  O4  BGC C   3       7.472  40.648  58.0760  0.00  0.00     0.000 O
BRANCH 30 34
ATOM     31  C1  BGC C   3       9.635  41.935  61.2390  0.00  0.00     0.000 C
ATOM     32  C2  BGC C   3       8.233  42.569  61.0830  0.00  0.00     0.000 C
ATOM     33  C3  BGC C   3       7.396  41.797  60.1230  0.00  0.00     0.000 C
ATOM     34  C4  BGC C   3       8.193  41.612  58.8290  0.00  0.00     0.000 C
ATOM     35  C5  BGC C   3       9.636  41.092  59.0520  0.00  0.00     0.000 C
ATOM     36  O5  BGC C   3      10.298  41.893  60.0000  0.00  0.00     0.000 O
ATOM     37   O  BGC C   3       7.445  42.751  62.2450  0.00  0.00     0.000 O
ATOM     39  HD  BGC C   3       7.451  42.540  61.4050  0.00  0.00     0.000 HD
ATOM     39   O  BGC C   3       6.141  42.496  59.8730  0.00  0.00     0.000 O
ATOM     41  HD  BGC C   3       6.147  42.284  59.0330  0.00  0.00     0.000 HD
ATOM     41   C  BGC C   3      10.527  41.068  57.7890  0.00  0.00     0.000 C
ATOM     42   O  BGC C   3      10.814  42.386  57.1980  0.00  0.00     0.000 O
ATOM     44  HD  BGC C   3      10.820  42.175  56.3580  0.00  0.00     0.000 HD
BRANCH 31 44
ATOM     44  O4  BGC C   4      10.411  42.656  62.1370  0.00  0.00     0.000 O
BRANCH 44 48
ATOM     45  C1  BGC C   4      13.178  42.375  65.1410  0.00  0.00     0.000 C
ATOM     46  C2  BGC C   4      13.803  42.011  63.7560  0.00  0.00     0.000 C
ATOM     47  C3  BGC C   4      12.712  42.477  62.7830  0.00  0.00     0.000 C
ATOM     48  C4  BGC C   4      11.288  42.012  63.0130  0.00  0.00     0.000 C
ATOM     49  C5  BGC C   4      10.910  42.473  64.4290  0.00  0.00     0.000 C
ATOM     50  O5  BGC C   4      11.811  41.996  65.3660  0.00  0.00     0.000 O
ATOM     51   O  BGC C   4      15.143  42.587  63.2640  0.00  0.00     0.000 O
ATOM     53  HD  BGC C   4      15.292  42.381  62.4360  0.00  0.00     0.000 HD
ATOM     53   O  BGC C   4      13.146  41.745  61.5430  0.00  0.00     0.000 O
ATOM     55  HD  BGC C   4      13.295  41.540  60.7150  0.00  0.00     0.000 HD
ATOM     55   C  BGC C   4       9.568  41.928  64.8440  0.00  0.00     0.000 C
ATOM     56   O  BGC C   4       9.435  40.503  64.7890  0.00  0.00     0.000 O
ATOM     58  HD  BGC C   4       9.584  40.297  63.9610  0.00  0.00     0.000 HD
BRANCH 45 58
ATOM     58  O4  BGC C   5      13.894  41.820  66.2050  0.00  0.00     0.000 O
BRANCH 58 62
ATOM     59  C1  BGC C   5      16.468  43.421  66.6110  0.00  0.00     0.000 C
ATOM     60  C2  BGC C   5      16.454  42.400  67.6370  0.00  0.00     0.000 C
ATOM     61  C3  BGC C   5      15.103  42.245  68.3290  0.00  0.00     0.000 C
ATOM     62  C4  BGC C   5      14.004  42.676  67.3680  0.00  0.00     0.000 C
ATOM     63  C5  BGC C   5      14.452  43.969  66.7270  0.00  0.00     0.000 C
ATOM     64  O5  BGC C   5      15.824  44.340  66.8380  0.00  0.00     0.000 O
ATOM     65   O  BGC C   5      13.759  45.386  68.5570  0.00  0.00     0.000 O
ATOM     67  HD  BGC C   5      13.552  45.035  67.7930  0.00  0.00     0.000 HD
ATOM     67   O  BGC C   5      13.759  45.386  68.5570  0.00  0.00     0.000 O
ATOM     69  HD  BGC C   5      13.552  45.035  67.7930  0.00  0.00     0.000 HD
ENDBRANCH 58 62
ENDBRANCH 45 58
ENDBRANCH 44 48
ENDBRANCH 31 44
ENDBRANCH 30 34
ENDBRANCH 17 30
ENDBRANCH 16 20
ENDBRANCH 1 16
TORSDOF 8
ENDMDL
MODEL 28
REMARK VINA RESULT:      -0.1     30.844     36.690
ROOT
ATOM      1  C1  BGC C   1      26.445  38.632  14.3680  0.00  0.00     0.000 C
ATOM      2  C2  BGC C   1      25.526  37.413  14.4260  0.00  0.00     0.000 C
ATOM      3  C3  BGC C   1      24.085  37.832  14.1590  0.00  0.00     0.000 C
ATOM      4  C4  BGC C   1      23.656  39.004  15.0260  0.00  0.00     0.000 C
ATOM      5  C5  BGC C   1      24.727  40.092  15.0100  0.00  0.00     0.000 C
ATOM      6  O5  BGC C   1      26.016  39.615  15.2300  0.00  0.00     0.000 O
ATOM      7   O  BGC C   1      25.962  36.507  13.4410  0.00  0.00     0.000 O
ATOM      9  HD  BGC C   1      25.459  36.323  14.1220  0.00  0.00     0.000 HD
ATOM      9   O  BGC C   1      23.245  36.686  14.3530  0.00  0.00     0.000 O
ATOM     11  HD  BGC C   1      22.742  36.502  15.0330  0.00  0.00     0.000 HD
ATOM     11   O  BGC C   1      22.429  39.486  14.4900  0.00  0.00     0.000 O
ATOM     13  HD  BGC C   1      21.925  39.302  15.1700  0.00  0.00     0.000 HD
ATOM     13   O  BGC C   1      24.548  40.548  17.4380  0.00  0.00     0.000 O
ATOM     15  HD  BGC C   1      24.045  40.364  18.1190  0.00  0.00     0.000 HD
ATOM     15   C  BGC C   1      24.387  41.115  16.1090  0.00  0.00     0.000 C
ENDROOT
BRANCH 1 16
ATOM     16  O4  BGC C   2      27.732  38.247  14.7900  0.00  0.00     0.000 O
BRANCH 16 20
ATOM     17  C1  BGC C   2      31.608  39.264  14.0070  0.00  0.00     0.000 C
ATOM     18  C2  BGC C   2      30.875  40.153  14.9990  0.00  0.00     0.000 C
ATOM     19  C3  BGC C   2      29.597  39.483  15.4830  0.00  0.00     0.000 C
ATOM     20  C4  BGC C   2      28.790  39.040  14.3080  0.00  0.00     0.000 C
ATOM     21  C5  BGC C   2      29.637  38.222  13.3380  0.00  0.00     0.000 C
ATOM     22  O5  BGC C   2      30.767  38.937  12.9380  0.00  0.00     0.000 O
ATOM     23   O  BGC C   2      31.747  40.428  16.1060  0.00  0.00     0.000 O
ATOM     25  HD  BGC C   2      31.302  40.399  16.8490  0.00  0.00     0.000 HD
ATOM     25   O  BGC C   2      28.848  40.409  16.2600  0.00  0.00     0.000 O
ATOM     27  HD  BGC C   2      28.404  40.381  17.0030  0.00  0.00     0.000 HD
ATOM     27   C  BGC C   2      28.890  37.736  12.0790  0.00  0.00     0.000 C
ATOM     28   O  BGC C   2      28.269  38.832  11.3870  0.00  0.00     0.000 O
ATOM     30  HD  BGC C   2      27.824  38.803  12.1300  0.00  0.00     0.000 HD
BRANCH 17 30
ATOM     30  O4  BGC C   3      32.729  39.957  13.5010  0.00  0.00     0.000 O
BRANCH 30 34
ATOM     31  C1  BGC C   3      36.550  39.321  12.3440  0.00  0.00     0.000 C
ATOM     32  C2  BGC C   3      35.469  39.041  11.2730  0.00  0.00     0.000 C
ATOM     33  C3  BGC C   3      34.156  39.625  11.6660  0.00  0.00     0.000 C
ATOM     34  C4  BGC C   3      33.826  39.158  13.0860  0.00  0.00     0.000 C
ATOM     35  C5  BGC C   3      34.990  39.348  14.0930  0.00  0.00     0.000 C
ATOM     36  O5  BGC C   3      36.169  38.776  13.5830  0.00  0.00     0.000 O
ATOM     37   O  BGC C   3      35.714  39.462   9.9450  0.00  0.00     0.000 O
ATOM     39  HD  BGC C   3      35.126  39.369  10.5730  0.00  0.00     0.000 HD
ATOM     39   O  BGC C   3      33.121  39.217  10.7240  0.00  0.00     0.000 O
ATOM     41  HD  BGC C   3      32.533  39.123  11.3530  0.00  0.00     0.000 HD
ATOM     41   C  BGC C   3      34.758  38.722  15.4880  0.00  0.00     0.000 C
ATOM     42   O  BGC C   3      34.636  37.255  15.5050  0.00  0.00     0.000 O
ATOM     44  HD  BGC C   3      34.048  37.162  16.1340  0.00  0.00     0.000 HD
BRANCH 31 44
ATOM     44  O4  BGC C   4      37.772  38.777  11.9730  0.00  0.00     0.000 O
BRANCH 44 48
ATOM     45  C1  BGC C   4      41.824  39.361  11.9590  0.00  0.00     0.000 C
ATOM     46  C2  BGC C   4      41.296  39.070  13.4000  0.00  0.00     0.000 C
ATOM     47  C3  BGC C   4      39.866  38.587  13.1240  0.00  0.00     0.000 C
ATOM     48  C4  BGC C   4      38.970  39.441  12.2480  0.00  0.00     0.000 C
ATOM     49  C5  BGC C   4      39.703  39.593  10.9050  0.00  0.00     0.000 C
ATOM     50  O5  BGC C   4      40.971  40.120  11.0880  0.00  0.00     0.000 O
ATOM     51   O  BGC C   4      41.957  38.048  14.3430  0.00  0.00     0.000 O
ATOM     53  HD  BGC C   4      41.480  37.919  15.0550  0.00  0.00     0.000 HD
ATOM     53   O  BGC C   4      39.278  38.726  14.5010  0.00  0.00     0.000 O
ATOM     55  HD  BGC C   4      38.802  38.596  15.2120  0.00  0.00     0.000 HD
ATOM     55   C  BGC C   4      38.990  40.561   9.9970  0.00  0.00     0.000 C
ATOM     56   O  BGC C   4      38.770  41.870  10.5370  0.00  0.00     0.000 O
ATOM     58  HD  BGC C   4      38.293  41.740  11.2480  0.00  0.00     0.000 HD
BRANCH 45 58
ATOM     58  O4  BGC C   5      43.041  40.046  11.9720  0.00  0.00     0.000 O
BRANCH 58 62
ATOM     59  C1  BGC C   5      45.273  38.093  12.7150  0.00  0.00     0.000 C
ATOM     60  C2  BGC C   5      45.910  39.369  12.4720  0.00  0.00     0.000 C
ATOM     61  C3  BGC C   5      45.405  40.079  11.2190  0.00  0.00     0.000 C
ATOM     62  C4  BGC C   5      43.975  39.634  10.9440  0.00  0.00     0.000 C
ATOM     63  C5  BGC C   5      43.933  38.133  11.1080  0.00  0.00     0.000 C
ATOM     64  O5  BGC C   5      45.022  37.494  11.7720  0.00  0.00     0.000 O
ATOM     65   O  BGC C   5      44.782  37.636   8.9020  0.00  0.00     0.000 O
ATOM     67  HD  BGC C   5      44.084  37.748   9.4020  0.00  0.00     0.000 HD
ATOM     67   O  BGC C   5      44.782  37.636   8.9020  0.00  0.00     0.000 O
ATOM     69  HD  BGC C   5      44.084  37.748   9.4020  0.00  0.00     0.000 HD
ENDBRANCH 58 62
ENDBRANCH 45 58
ENDBRANCH 44 48
ENDBRANCH 31 44
ENDBRANCH 30 34
ENDBRANCH 17 30
ENDBRANCH 16 20
ENDBRANCH 1 16
TORSDOF 8
ENDMDL
MODEL 29
REMARK VINA RESULT:      -0.1     45.570     52.609
ROOT
ATOM      1  C1  BGC C   1      30.483  34.925  49.2050  0.00  0.00     0.000 C
ATOM      2  C2  BGC C   1      29.394  35.537  50.0850  0.00  0.00     0.000 C
ATOM      3  C3  BGC C   1      28.487  34.441  50.6310  0.00  0.00     0.000 C
ATOM      4  C4  BGC C   1      27.986  33.511  49.5390  0.00  0.00     0.000 C
ATOM      5  C5  BGC C   1      29.140  33.092  48.6330  0.00  0.00     0.000 C
ATOM      6  O5  BGC C   1      29.935  34.152  48.2070  0.00  0.00     0.000 O
ATOM      7   O  BGC C   1      30.034  36.215  51.1400  0.00  0.00     0.000 O
ATOM      9  HD  BGC C   1      29.218  36.331  50.8740  0.00  0.00     0.000 HD
ATOM      9   O  BGC C   1      27.409  35.068  51.3390  0.00  0.00     0.000 O
ATOM     11  HD  BGC C   1      26.593  35.185  51.0730  0.00  0.00     0.000 HD
ATOM     11   O  BGC C   1      27.410  32.384  50.1900  0.00  0.00     0.000 O
ATOM     13  HD  BGC C   1      26.594  32.501  49.9240  0.00  0.00     0.000 HD
ATOM     13   O  BGC C   1      27.820  33.328  46.5490  0.00  0.00     0.000 O
ATOM     15  HD  BGC C   1      27.004  33.445  46.2830  0.00  0.00     0.000 HD
ATOM     15   C  BGC C   1      28.548  32.394  47.3940  0.00  0.00     0.000 C
ENDROOT
BRANCH 1 16
ATOM     16  O4  BGC C   2      31.193  35.967  48.5760  0.00  0.00     0.000 O
BRANCH 16 20
ATOM     17  C1  BGC C   2      34.995  36.685  47.2710  0.00  0.00     0.000 C
ATOM     18  C2  BGC C   2      34.108  35.887  46.3280  0.00  0.00     0.000 C
ATOM     19  C3  BGC C   2      32.647  35.996  46.7400  0.00  0.00     0.000 C
ATOM     20  C4  BGC C   2      32.509  35.654  48.1860  0.00  0.00     0.000 C
ATOM     21  C5  BGC C   2      33.494  36.452  49.0350  0.00  0.00     0.000 C
ATOM     22  O5  BGC C   2      34.803  36.261  48.5910  0.00  0.00     0.000 O
ATOM     23   O  BGC C   2      34.291  36.381  44.9920  0.00  0.00     0.000 O
ATOM     25  HD  BGC C   2      33.529  36.413  44.5810  0.00  0.00     0.000 HD
ATOM     25   O  BGC C   2      31.872  35.097  45.9560  0.00  0.00     0.000 O
ATOM     27  HD  BGC C   2      31.111  35.130  45.5440  0.00  0.00     0.000 HD
ATOM     27   C  BGC C   2      33.437  36.148  50.5460  0.00  0.00     0.000 C
ATOM     28   O  BGC C   2      33.593  34.743  50.8020  0.00  0.00     0.000 O
ATOM     30  HD  BGC C   2      32.832  34.776  50.3900  0.00  0.00     0.000 HD
BRANCH 17 30
ATOM     30  O4  BGC C   3      36.348  36.478  46.9250  0.00  0.00     0.000 O
BRANCH 30 34
ATOM     31  C1  BGC C   3      39.872  38.447  46.7310  0.00  0.00     0.000 C
ATOM     32  C2  BGC C   3      39.500  37.873  48.1180  0.00  0.00     0.000 C
ATOM     33  C3  BGC C   3      38.387  36.889  48.0140  0.00  0.00     0.000 C
ATOM     34  C4  BGC C   3      37.243  37.537  47.2300  0.00  0.00     0.000 C
ATOM     35  C5  BGC C   3      37.691  38.207  45.9070  0.00  0.00     0.000 C
ATOM     36  O5  BGC C   3      38.762  39.085  46.1480  0.00  0.00     0.000 O
ATOM     37   O  BGC C   3      40.516  37.250  48.8820  0.00  0.00     0.000 O
ATOM     39  HD  BGC C   3      39.683  37.237  48.6450  0.00  0.00     0.000 HD
ATOM     39   O  BGC C   3      37.950  36.480  49.3430  0.00  0.00     0.000 O
ATOM     41  HD  BGC C   3      37.117  36.467  49.1060  0.00  0.00     0.000 HD
ATOM     41   C  BGC C   3      36.598  39.026  45.1820  0.00  0.00     0.000 C
ATOM     42   O  BGC C   3      36.107  40.204  45.9170  0.00  0.00     0.000 O
ATOM     44  HD  BGC C   3      35.274  40.191  45.6800  0.00  0.00     0.000 HD
BRANCH 31 44
ATOM     44  O4  BGC C   4      40.911  39.363  46.8330  0.00  0.00     0.000 O
BRANCH 44 48
ATOM     45  C1  BGC C   4      44.332  40.747  45.0590  0.00  0.00     0.000 C
ATOM     46  C2  BGC C   4      43.062  41.162  44.2490  0.00  0.00     0.000 C
ATOM     47  C3  BGC C   4      41.933  40.824  45.2310  0.00  0.00     0.000 C
ATOM     48  C4  BGC C   4      41.902  39.441  45.8510  0.00  0.00     0.000 C
ATOM     49  C5  BGC C   4      43.248  39.266  46.5740  0.00  0.00     0.000 C
ATOM     50  O5  BGC C   4      44.308  39.465  45.7060  0.00  0.00     0.000 O
ATOM     51   O  BGC C   4      42.824  42.596  43.7420  0.00  0.00     0.000 O
ATOM     53  HD  BGC C   4      42.027  42.689  43.4160  0.00  0.00     0.000 HD
ATOM     53   O  BGC C   4      40.762  40.832  44.2870  0.00  0.00     0.000 O
ATOM     55  HD  BGC C   4      39.965  40.925  43.9600  0.00  0.00     0.000 HD
ATOM     55   C  BGC C   4      43.411  37.863  47.0970  0.00  0.00     0.000 C
ATOM     56   O  BGC C   4      43.289  36.820  46.1230  0.00  0.00     0.000 O
ATOM     58  HD  BGC C   4      42.492  36.913  45.7970  0.00  0.00     0.000 HD
BRANCH 45 58
ATOM     58  O4  BGC C   5      45.483  40.740  44.2690  0.00  0.00     0.000 O
BRANCH 58 62
ATOM     59  C1  BGC C   5      46.373  43.626  43.7850  0.00  0.00     0.000 C
ATOM     60  C2  BGC C   5      47.348  42.782  43.1290  0.00  0.00     0.000 C
ATOM     61  C3  BGC C   5      47.795  41.591  43.9740  0.00  0.00     0.000 C
ATOM     62  C4  BGC C   5      46.675  41.222  44.9370  0.00  0.00     0.000 C
ATOM     63  C5  BGC C   5      46.161  42.508  45.5410  0.00  0.00     0.000 C
ATOM     64  O5  BGC C   5      46.516  43.739  44.9150  0.00  0.00     0.000 O
ATOM     65   O  BGC C   5      47.891  42.681  47.2180  0.00  0.00     0.000 O
ATOM     67  HD  BGC C   5      47.092  42.408  47.0260  0.00  0.00     0.000 HD
ATOM     67   O  BGC C   5      47.891  42.681  47.2180  0.00  0.00     0.000 O
ATOM     69  HD  BGC C   5      47.092  42.408  47.0260  0.00  0.00     0.000 HD
ENDBRANCH 58 62
ENDBRANCH 45 58
ENDBRANCH 44 48
ENDBRANCH 31 44
ENDBRANCH 30 34
ENDBRANCH 17 30
ENDBRANCH 16 20
ENDBRANCH 1 16
TORSDOF 8
ENDMDL
MODEL 30
REMARK VINA RESULT:      -0.1     42.659     52.317
ROOT
ATOM      1  C1  BGC C   1      40.350  22.793  41.6650  0.00  0.00     0.000 C
ATOM      2  C2  BGC C   1      39.923  21.598  40.8130  0.00  0.00     0.000 C
ATOM      3  C3  BGC C   1      39.044  22.067  39.6600  0.00  0.00     0.000 C
ATOM      4  C4  BGC C   1      37.909  22.962  40.1290  0.00  0.00     0.000 C
ATOM      5  C5  BGC C   1      38.436  24.020  41.0960  0.00  0.00     0.000 C
ATOM      6  O5  BGC C   1      39.256  23.507  42.0970  0.00  0.00     0.000 O
ATOM      7   O  BGC C   1      41.093  20.990  40.3210  0.00  0.00     0.000 O
ATOM      9  HD  BGC C   1      40.308  20.629  40.3680  0.00  0.00     0.000 HD
ATOM      9   O  BGC C   1      38.562  20.907  38.9680  0.00  0.00     0.000 O
ATOM     11  HD  BGC C   1      37.776  20.546  39.0160  0.00  0.00     0.000 HD
ATOM     11   O  BGC C   1      37.352  23.565  38.9650  0.00  0.00     0.000 O
ATOM     13  HD  BGC C   1      36.567  23.203  39.0130  0.00  0.00     0.000 HD
ATOM     13   O  BGC C   1      36.516  23.808  42.6470  0.00  0.00     0.000 O
ATOM     15  HD  BGC C   1      35.730  23.447  42.6940  0.00  0.00     0.000 HD
ATOM     15   C  BGC C   1      37.228  24.710  41.7550  0.00  0.00     0.000 C
ENDROOT
BRANCH 1 16
ATOM     16  O4  BGC C   2      41.008  22.314  42.8140  0.00  0.00     0.000 O
BRANCH 16 20
ATOM     17  C1  BGC C   2      44.004  23.520  45.3140  0.00  0.00     0.000 C
ATOM     18  C2  BGC C   2      42.629  24.108  45.5920  0.00  0.00     0.000 C
ATOM     19  C3  BGC C   2      41.550  23.327  44.8560  0.00  0.00     0.000 C
ATOM     20  C4  BGC C   2      41.912  23.212  43.4130  0.00  0.00     0.000 C
ATOM     21  C5  BGC C   2      43.335  22.686  43.2460  0.00  0.00     0.000 C
ATOM     22  O5  BGC C   2      44.246  23.487  43.9360  0.00  0.00     0.000 O
ATOM     23   O  BGC C   2      42.391  24.080  47.0070  0.00  0.00     0.000 O
ATOM     25  HD  BGC C   2      41.571  23.852  47.1660  0.00  0.00     0.000 HD
ATOM     25   O  BGC C   2      40.308  24.009  44.9870  0.00  0.00     0.000 O
ATOM     27  HD  BGC C   2      39.488  23.780  45.1460  0.00  0.00     0.000 HD
ATOM     27   C  BGC C   2      43.806  22.552  41.7830  0.00  0.00     0.000 C
ATOM     28   O  BGC C   2      43.652  23.790  41.0710  0.00  0.00     0.000 O
ATOM     30  HD  BGC C   2      42.832  23.562  41.2300  0.00  0.00     0.000 HD
BRANCH 17 30
ATOM     30  O4  BGC C   3      44.987  24.328  45.9240  0.00  0.00     0.000 O
BRANCH 30 34
ATOM     31  C1  BGC C   3      48.535  24.042  47.8390  0.00  0.00     0.000 C
ATOM     32  C2  BGC C   3      48.606  24.053  46.2930  0.00  0.00     0.000 C
ATOM     33  C3  BGC C   3      47.318  24.505  45.6980  0.00  0.00     0.000 C
ATOM     34  C4  BGC C   3      46.187  23.674  46.3090  0.00  0.00     0.000 C
ATOM     35  C5  BGC C   3      46.236  23.593  47.8560  0.00  0.00     0.000 C
ATOM     36  O5  BGC C   3      47.512  23.183  48.2790  0.00  0.00     0.000 O
ATOM     37   O  BGC C   3      49.625  24.815  45.6730  0.00  0.00     0.000 O
ATOM     39  HD  BGC C   3      48.799  24.555  45.6400  0.00  0.00     0.000 HD
ATOM     39   O  BGC C   3      47.354  24.359  44.2480  0.00  0.00     0.000 O
ATOM     41  HD  BGC C   3      46.529  24.098  44.2160  0.00  0.00     0.000 HD
ATOM     41   C  BGC C   3      45.221  22.616  48.4940  0.00  0.00     0.000 C
ATOM     42   O  BGC C   3      45.416  21.197  48.1520  0.00  0.00     0.000 O
ATOM     44  HD  BGC C   3      44.591  20.936  48.1200  0.00  0.00     0.000 HD
BRANCH 31 44
ATOM     44  O4  BGC C   4      49.739  23.622  48.3900  0.00  0.00     0.000 O
BRANCH 44 48
ATOM     45  C1  BGC C   4      52.400  24.206  51.4460  0.00  0.00     0.000 C
ATOM     46  C2  BGC C   4      51.084  23.538  51.9570  0.00  0.00     0.000 C
ATOM     47  C3  BGC C   4      50.398  23.141  50.6440  0.00  0.00     0.000 C
ATOM     48  C4  BGC C   4      50.232  24.193  49.5650  0.00  0.00     0.000 C
ATOM     49  C5  BGC C   4      51.647  24.702  49.2430  0.00  0.00     0.000 C
ATOM     50  O5  BGC C   4      52.280  25.166  50.3850  0.00  0.00     0.000 O
ATOM     51   O  BGC C   4      51.074  22.305  52.8780  0.00  0.00     0.000 O
ATOM     53  HD  BGC C   4      50.274  21.987  52.9750  0.00  0.00     0.000 HD
ATOM     53   O  BGC C   4      49.000  22.904  51.1470  0.00  0.00     0.000 O
ATOM     55  HD  BGC C   4      48.200  22.586  51.2440  0.00  0.00     0.000 HD
ATOM     55   C  BGC C   4      51.607  25.874  48.2980  0.00  0.00     0.000 C
ATOM     56   O  BGC C   4      50.818  26.990  48.7270  0.00  0.00     0.000 O
ATOM     58  HD  BGC C   4      50.018  26.673  48.8240  0.00  0.00     0.000 HD
BRANCH 45 58
ATOM     58  O4  BGC C   5      53.086  24.869  52.4660  0.00  0.00     0.000 O
BRANCH 58 62
ATOM     59  C1  BGC C   5      54.475  22.798  54.2360  0.00  0.00     0.000 C
ATOM     60  C2  BGC C   5      54.828  24.095  54.7710  0.00  0.00     0.000 C
ATOM     61  C3  BGC C   5      55.223  25.112  53.7030  0.00  0.00     0.000 C
ATOM     62  C4  BGC C   5      54.528  24.751  52.3980  0.00  0.00     0.000 C
ATOM     63  C5  BGC C   5      54.681  23.260  52.2060  0.00  0.00     0.000 C
ATOM     64  O5  BGC C   5      55.085  22.471  53.3240  0.00  0.00     0.000 O
ATOM     65   O  BGC C   5      56.911  23.375  51.2830  0.00  0.00     0.000 O
ATOM     67  HD  BGC C   5      56.061  23.346  51.1230  0.00  0.00     0.000 HD
ATOM     67   O  BGC C   5      56.911  23.375  51.2830  0.00  0.00     0.000 O
ATOM     69  HD  BGC C   5      56.061  23.346  51.1230  0.00  0.00     0.000 HD
ENDBRANCH 58 62
ENDBRANCH 45 58
ENDBRANCH 44 48
ENDBRANCH 31 44
ENDBRANCH 30 34
ENDBRANCH 17 30
ENDBRANCH 16 20
ENDBRANCH 1 16
TORSDOF 8
ENDMDL
MODEL 31
REMARK VINA RESULT:      -0.1     31.812     38.755
ROOT
ATOM      1  C1  BGC C   1      41.872  44.619  18.9760  0.00  0.00     0.000 C
ATOM      2  C2  BGC C   1      43.330  44.956  19.2880  0.00  0.00     0.000 C
ATOM      3  C3  BGC C   1      43.519  46.467  19.3310  0.00  0.00     0.000 C
ATOM      4  C4  BGC C   1      42.949  47.153  18.1000  0.00  0.00     0.000 C
ATOM      5  C5  BGC C   1      41.551  46.621  17.7990  0.00  0.00     0.000 C
ATOM      6  O5  BGC C   1      41.463  45.231  17.8130  0.00  0.00     0.000 O
ATOM      7   O  BGC C   1      43.635  44.389  20.5400  0.00  0.00     0.000 O
ATOM      9  HD  BGC C   1      44.204  44.644  19.9390  0.00  0.00     0.000 HD
ATOM      9   O  BGC C   1      44.918  46.736  19.4950  0.00  0.00     0.000 O
ATOM     11  HD  BGC C   1      45.486  46.990  18.8940  0.00  0.00     0.000 HD
ATOM     11   O  BGC C   1      42.916  48.547  18.3840  0.00  0.00     0.000 O
ATOM     13  HD  BGC C   1      43.485  48.802  17.7830  0.00  0.00     0.000 HD
ATOM     13   O  BGC C   1      41.930  46.509  15.3530  0.00  0.00     0.000 O
ATOM     15  HD  BGC C   1      42.499  46.763  14.7520  0.00  0.00     0.000 HD
ATOM     15   C  BGC C   1      41.136  47.125  16.4050  0.00  0.00     0.000 C
ENDROOT
BRANCH 1 16
ATOM     16  O4  BGC C   2      41.765  43.230  18.7690  0.00  0.00     0.000 O
BRANCH 16 20
ATOM     17  C1  BGC C   2      38.994  40.287  19.3450  0.00  0.00     0.000 C
ATOM     18  C2  BGC C   2      38.834  41.112  18.0780  0.00  0.00     0.000 C
ATOM     19  C3  BGC C   2      40.098  41.909  17.7890  0.00  0.00     0.000 C
ATOM     20  C4  BGC C   2      40.491  42.679  19.0040  0.00  0.00     0.000 C
ATOM     21  C5  BGC C   2      40.548  41.775  20.2320  0.00  0.00     0.000 C
ATOM     22  O5  BGC C   2      39.333  41.114  20.4210  0.00  0.00     0.000 O
ATOM     23   O  BGC C   2      38.536  40.230  16.9850  0.00  0.00     0.000 O
ATOM     25  HD  BGC C   2      38.965  40.480  16.2750  0.00  0.00     0.000 HD
ATOM     25   O  BGC C   2      39.851  42.803  16.7110  0.00  0.00     0.000 O
ATOM     27  HD  BGC C   2      40.280  43.054  16.0010  0.00  0.00     0.000 HD
ATOM     27   C  BGC C   2      40.929  42.491  21.5450  0.00  0.00     0.000 C
ATOM     28   O  BGC C   2      40.063  43.610  21.7970  0.00  0.00     0.000 O
ATOM     30  HD  BGC C   2      40.492  43.861  21.0880  0.00  0.00     0.000 HD
BRANCH 17 30
ATOM     30  O4  BGC C   3      37.772  39.645  19.6400  0.00  0.00     0.000 O
BRANCH 30 34
ATOM     31  C1  BGC C   3      36.332  36.171  21.1210  0.00  0.00     0.000 C
ATOM     32  C2  BGC C   3      36.736  37.232  22.1720  0.00  0.00     0.000 C
ATOM     33  C3  BGC C   3      36.917  38.570  21.5450  0.00  0.00     0.000 C
ATOM     34  C4  BGC C   3      37.863  38.419  20.3510  0.00  0.00     0.000 C
ATOM     35  C5  BGC C   3      37.482  37.260  19.3950  0.00  0.00     0.000 C
ATOM     36  O5  BGC C   3      37.316  36.068  20.1220  0.00  0.00     0.000 O
ATOM     37   O  BGC C   3      35.891  37.424  23.2920  0.00  0.00     0.000 O
ATOM     39  HD  BGC C   3      36.405  37.800  22.7040  0.00  0.00     0.000 HD
ATOM     39   O  BGC C   3      37.446  39.517  22.5190  0.00  0.00     0.000 O
ATOM     41  HD  BGC C   3      37.960  39.892  21.9310  0.00  0.00     0.000 HD
ATOM     41   C  BGC C   3      38.514  36.962  18.2820  0.00  0.00     0.000 C
ATOM     42   O  BGC C   3      39.827  36.491  18.7540  0.00  0.00     0.000 O
ATOM     44  HD  BGC C   3      40.340  36.867  18.1660  0.00  0.00     0.000 HD
BRANCH 31 44
ATOM     44  O4  BGC C   4      36.163  34.925  21.7110  0.00  0.00     0.000 O
BRANCH 44 48
ATOM     45  C1  BGC C   4      33.904  31.511  21.7190  0.00  0.00     0.000 C
ATOM     46  C2  BGC C   4      34.791  31.603  20.4370  0.00  0.00     0.000 C
ATOM     47  C3  BGC C   4      35.745  32.751  20.7920  0.00  0.00     0.000 C
ATOM     48  C4  BGC C   4      35.154  34.057  21.2860  0.00  0.00     0.000 C
ATOM     49  C5  BGC C   4      34.325  33.707  22.5320  0.00  0.00     0.000 C
ATOM     50  O5  BGC C   4      33.377  32.739  22.2430  0.00  0.00     0.000 O
ATOM     51   O  BGC C   4      35.647  30.430  19.9240  0.00  0.00     0.000 O
ATOM     53  HD  BGC C   4      36.166  30.676  19.2770  0.00  0.00     0.000 HD
ATOM     53   O  BGC C   4      36.272  33.078  19.4220  0.00  0.00     0.000 O
ATOM     55  HD  BGC C   4      36.792  33.324  18.7740  0.00  0.00     0.000 HD
ATOM     55   C  BGC C   4      33.548  34.899  23.0270  0.00  0.00     0.000 C
ATOM     56   O  BGC C   4      32.677  35.512  22.0690  0.00  0.00     0.000 O
ATOM     58  HD  BGC C   4      33.196  35.758  21.4210  0.00  0.00     0.000 HD
BRANCH 45 58
ATOM     58  O4  BGC C   5      32.794  30.683  21.5340  0.00  0.00     0.000 O
BRANCH 58 62
ATOM     59  C1  BGC C   5      33.709  27.765  21.5980  0.00  0.00     0.000 C
ATOM     60  C2  BGC C   5      32.273  27.740  21.4260  0.00  0.00     0.000 C
ATOM     61  C3  BGC C   5      31.528  28.708  22.3430  0.00  0.00     0.000 C
ATOM     62  C4  BGC C   5      32.449  29.871  22.6830  0.00  0.00     0.000 C
ATOM     63  C5  BGC C   5      33.799  29.287  23.0320  0.00  0.00     0.000 C
ATOM     64  O5  BGC C   5      34.062  27.931  22.6750  0.00  0.00     0.000 O
ATOM     65   O  BGC C   5      33.229  28.738  25.3140  0.00  0.00     0.000 O
ATOM     67  HD  BGC C   5      33.577  29.317  24.7730  0.00  0.00     0.000 HD
ATOM     67   O  BGC C   5      33.229  28.738  25.3140  0.00  0.00     0.000 O
ATOM     69  HD  BGC C   5      33.577  29.317  24.7730  0.00  0.00     0.000 HD
ENDBRANCH 58 62
ENDBRANCH 45 58
ENDBRANCH 44 48
ENDBRANCH 31 44
ENDBRANCH 30 34
ENDBRANCH 17 30
ENDBRANCH 16 20
ENDBRANCH 1 16
TORSDOF 8
ENDMDL
MODEL 32
REMARK VINA RESULT:      -0.1     17.831     24.683
ROOT
ATOM      1  C1  BGC C   1      17.952  18.354  26.3000  0.00  0.00     0.000 C
ATOM      2  C2  BGC C   1      16.587  17.679  26.1690  0.00  0.00     0.000 C
ATOM      3  C3  BGC C   1      15.739  18.411  25.1350  0.00  0.00     0.000 C
ATOM      4  C4  BGC C   1      15.695  19.910  25.3850  0.00  0.00     0.000 C
ATOM      5  C5  BGC C   1      17.100  20.441  25.6570  0.00  0.00     0.000 C
ATOM      6  O5  BGC C   1      17.814  19.693  26.5880  0.00  0.00     0.000 O
ATOM      7   O  BGC C   1      16.811  16.349  25.7640  0.00  0.00     0.000 O
ATOM      9  HD  BGC C   1      16.089  16.662  26.1260  0.00  0.00     0.000 HD
ATOM      9   O  BGC C   1      14.429  17.828  25.1410  0.00  0.00     0.000 O
ATOM     11  HD  BGC C   1      13.707  18.140  25.5030  0.00  0.00     0.000 HD
ATOM     11   O  BGC C   1      15.139  20.505  24.2190  0.00  0.00     0.000 O
ATOM     13  HD  BGC C   1      14.417  20.818  24.5810  0.00  0.00     0.000 HD
ATOM     13   O  BGC C   1      16.371  21.925  27.5020  0.00  0.00     0.000 O
ATOM     15  HD  BGC C   1      15.649  22.238  27.8640  0.00  0.00     0.000 HD
ATOM     15   C  BGC C   1      16.974  21.884  26.1790  0.00  0.00     0.000 C
ENDROOT
BRANCH 1 16
ATOM     16  O4  BGC C   2      18.642  17.769  27.3790  0.00  0.00     0.000 O
BRANCH 16 20
ATOM     17  C1  BGC C   2      22.505  16.944  28.4140  0.00  0.00     0.000 C
ATOM     18  C2  BGC C   2      22.034  18.365  28.6820  0.00  0.00     0.000 C
ATOM     19  C3  BGC C   2      20.516  18.454  28.6050  0.00  0.00     0.000 C
ATOM     20  C4  BGC C   2      20.045  17.860  27.3210  0.00  0.00     0.000 C
ATOM     21  C5  BGC C   2      20.635  16.468  27.1120  0.00  0.00     0.000 C
ATOM     22  O5  BGC C   2      22.029  16.503  27.1750  0.00  0.00     0.000 O
ATOM     23   O  BGC C   2      22.495  18.769  29.9810  0.00  0.00     0.000 O
ATOM     25  HD  BGC C   2      21.876  19.217  30.3890  0.00  0.00     0.000 HD
ATOM     25   O  BGC C   2      20.124  19.819  28.6760  0.00  0.00     0.000 O
ATOM     27  HD  BGC C   2      19.506  20.268  29.0850  0.00  0.00     0.000 HD
ATOM     27   C  BGC C   2      20.218  15.780  25.7950  0.00  0.00     0.000 C
ATOM     28   O  BGC C   2      20.506  16.612  24.6600  0.00  0.00     0.000 O
ATOM     30  HD  BGC C   2      19.888  17.060  25.0680  0.00  0.00     0.000 HD
BRANCH 17 30
ATOM     30  O4  BGC C   3      23.916  16.919  28.3890  0.00  0.00     0.000 O
BRANCH 30 34
ATOM     31  C1  BGC C   3      27.030  14.573  29.4570  0.00  0.00     0.000 C
ATOM     32  C2  BGC C   3      26.386  14.252  28.0870  0.00  0.00     0.000 C
ATOM     33  C3  BGC C   3      25.502  15.361  27.6330  0.00  0.00     0.000 C
ATOM     34  C4  BGC C   3      24.528  15.695  28.7660  0.00  0.00     0.000 C
ATOM     35  C5  BGC C   3      25.213  15.884  30.1440  0.00  0.00     0.000 C
ATOM     36  O5  BGC C   3      26.037  14.782  30.4300  0.00  0.00     0.000 O
ATOM     37   O  BGC C   3      27.239  13.948  26.9990  0.00  0.00     0.000 O
ATOM     39  HD  BGC C   3      26.513  14.343  27.2550  0.00  0.00     0.000 HD
ATOM     39   O  BGC C   3      24.787  14.973  26.4230  0.00  0.00     0.000 O
ATOM     41  HD  BGC C   3      24.061  15.368  26.6800  0.00  0.00     0.000 HD
ATOM     41   C  BGC C   3      24.247  16.041  31.3410  0.00  0.00     0.000 C
ATOM     42   O  BGC C   3      23.406  14.866  31.6270  0.00  0.00     0.000 O
ATOM     44  HD  BGC C   3      22.680  15.261  31.8840  0.00  0.00     0.000 HD
BRANCH 31 44
ATOM     44  O4  BGC C   4      27.855  13.537  29.8750  0.00  0.00     0.000 O
BRANCH 44 48
ATOM     45  C1  BGC C   4      31.382  12.620  31.7390  0.00  0.00     0.000 C
ATOM     46  C2  BGC C   4      30.332  13.178  32.7520  0.00  0.00     0.000 C
ATOM     47  C3  BGC C   4      29.043  13.150  31.9200  0.00  0.00     0.000 C
ATOM     48  C4  BGC C   4      29.051  13.796  30.5480  0.00  0.00     0.000 C
ATOM     49  C5  BGC C   4      30.162  13.094  29.7520  0.00  0.00     0.000 C
ATOM     50  O5  BGC C   4      31.376  13.174  30.4140  0.00  0.00     0.000 O
ATOM     51   O  BGC C   4      30.029  12.503  34.1010  0.00  0.00     0.000 O
ATOM     53  HD  BGC C   4      29.345  12.864  34.4910  0.00  0.00     0.000 HD
ATOM     53   O  BGC C   4      28.182  14.060  32.7530  0.00  0.00     0.000 O
ATOM     55  HD  BGC C   4      27.498  14.422  33.1420  0.00  0.00     0.000 HD
ATOM     55   C  BGC C   4      30.384  13.758  28.4180  0.00  0.00     0.000 C
ATOM     56   O  BGC C   4      30.686  15.157  28.4650  0.00  0.00     0.000 O
ATOM     58  HD  BGC C   4      30.002  15.519  28.8540  0.00  0.00     0.000 HD
BRANCH 45 58
ATOM     58  O4  BGC C   5      32.692  12.778  32.1980  0.00  0.00     0.000 O
BRANCH 58 62
ATOM     59  C1  BGC C   5      33.242  10.696  34.3690  0.00  0.00     0.000 C
ATOM     60  C2  BGC C   5      34.472  11.437  34.1930  0.00  0.00     0.000 C
ATOM     61  C3  BGC C   5      34.845  11.666  32.7310  0.00  0.00     0.000 C
ATOM     62  C4  BGC C   5      33.575  11.670  31.8920  0.00  0.00     0.000 C
ATOM     63  C5  BGC C   5      32.732  10.502  32.3490  0.00  0.00     0.000 C
ATOM     64  O5  BGC C   5      33.057   9.878  33.5890  0.00  0.00     0.000 O
ATOM     65   O  BGC C   5      33.900   8.848  31.0320  0.00  0.00     0.000 O
ATOM     67  HD  BGC C   5      33.232   9.397  31.0800  0.00  0.00     0.000 HD
ATOM     67   O  BGC C   5      33.900   8.848  31.0320  0.00  0.00     0.000 O
ATOM     69  HD  BGC C   5      33.232   9.397  31.0800  0.00  0.00     0.000 HD
ENDBRANCH 58 62
ENDBRANCH 45 58
ENDBRANCH 44 48
ENDBRANCH 31 44
ENDBRANCH 30 34
ENDBRANCH 17 30
ENDBRANCH 16 20
ENDBRANCH 1 16
TORSDOF 8
ENDMDL
MODEL 33
REMARK VINA RESULT:      -0.1     48.484     51.238
ROOT
ATOM      1  C1  BGC C   1       7.616  22.098  58.4780  0.00  0.00     0.000 C
ATOM      2  C2  BGC C   1       7.138  22.793  57.2040  0.00  0.00     0.000 C
ATOM      3  C3  BGC C   1       5.914  23.650  57.5040  0.00  0.00     0.000 C
ATOM      4  C4  BGC C   1       4.843  22.878  58.2570  0.00  0.00     0.000 C
ATOM      5  C5  BGC C   1       5.466  22.101  59.4130  0.00  0.00     0.000 C
ATOM      6  O5  BGC C   1       6.598  21.374  59.0560  0.00  0.00     0.000 O
ATOM      7   O  BGC C   1       8.196  23.598  56.7400  0.00  0.00     0.000 O
ATOM      9  HD  BGC C   1       7.514  23.329  56.2790  0.00  0.00     0.000 HD
ATOM      9   O  BGC C   1       5.424  24.176  56.2630  0.00  0.00     0.000 O
ATOM     11  HD  BGC C   1       4.742  23.907  55.8020  0.00  0.00     0.000 HD
ATOM     11   O  BGC C   1       3.903  23.836  58.7320  0.00  0.00     0.000 O
ATOM     13  HD  BGC C   1       3.221  23.567  58.2700  0.00  0.00     0.000 HD
ATOM     13   O  BGC C   1       4.110  20.068  59.0080  0.00  0.00     0.000 O
ATOM     15  HD  BGC C   1       3.428  19.800  58.5470  0.00  0.00     0.000 HD
ATOM     15   C  BGC C   1       4.408  21.126  59.9610  0.00  0.00     0.000 C
ENDROOT
BRANCH 1 16
ATOM     16  O4  BGC C   2       8.631  21.183  58.1390  0.00  0.00     0.000 O
BRANCH 16 20
ATOM     17  C1  BGC C   2      12.009  19.638  59.8360  0.00  0.00     0.000 C
ATOM     18  C2  BGC C   2      10.699  18.981  60.2440  0.00  0.00     0.000 C
ATOM     19  C3  BGC C   2       9.577  19.380  59.2970  0.00  0.00     0.000 C
ATOM     20  C4  BGC C   2       9.532  20.866  59.1730  0.00  0.00     0.000 C
ATOM     21  C5  BGC C   2      10.909  21.431  58.8380  0.00  0.00     0.000 C
ATOM     22  O5  BGC C   2      11.856  21.028  59.7810  0.00  0.00     0.000 O
ATOM     23   O  BGC C   2      10.875  17.557  60.2420  0.00  0.00     0.000 O
ATOM     25  HD  BGC C   2      10.174  17.171  59.9120  0.00  0.00     0.000 HD
ATOM     25   O  BGC C   2       8.340  18.902  59.8100  0.00  0.00     0.000 O
ATOM     27  HD  BGC C   2       7.638  18.516  59.4800  0.00  0.00     0.000 HD
ATOM     27   C  BGC C   2      10.964  22.967  58.7090  0.00  0.00     0.000 C
ATOM     28   O  BGC C   2      10.444  23.607  59.8860  0.00  0.00     0.000 O
ATOM     30  HD  BGC C   2       9.742  23.221  59.5560  0.00  0.00     0.000 HD
BRANCH 17 30
ATOM     30  O4  BGC C   3      13.001  19.333  60.7930  0.00  0.00     0.000 O
BRANCH 30 34
ATOM     31  C1  BGC C   3      16.948  18.505  61.0630  0.00  0.00     0.000 C
ATOM     32  C2  BGC C   3      16.579  20.007  61.0210  0.00  0.00     0.000 C
ATOM     33  C3  BGC C   3      15.125  20.212  61.2710  0.00  0.00     0.000 C
ATOM     34  C4  BGC C   3      14.339  19.304  60.3210  0.00  0.00     0.000 C
ATOM     35  C5  BGC C   3      14.832  17.835  60.3100  0.00  0.00     0.000 C
ATOM     36  O5  BGC C   3      16.221  17.791  60.0930  0.00  0.00     0.000 O
ATOM     37   O  BGC C   3      17.264  20.892  61.8870  0.00  0.00     0.000 O
ATOM     39  HD  BGC C   3      16.508  20.688  61.5170  0.00  0.00     0.000 HD
ATOM     39   O  BGC C   3      14.772  21.612  61.0730  0.00  0.00     0.000 O
ATOM     41  HD  BGC C   3      14.016  21.409  60.7020  0.00  0.00     0.000 HD
ATOM     41   C  BGC C   3      14.185  16.934  59.2330  0.00  0.00     0.000 C
ATOM     42   O  BGC C   3      14.473  17.316  57.8400  0.00  0.00     0.000 O
ATOM     44  HD  BGC C   3      13.717  17.112  57.4700  0.00  0.00     0.000 HD
BRANCH 31 44
ATOM     44  O4  BGC C   4      18.304  18.318  60.8310  0.00  0.00     0.000 O
BRANCH 44 48
ATOM     45  C1  BGC C   4      21.608  16.145  61.8900  0.00  0.00     0.000 C
ATOM     46  C2  BGC C   4      20.596  15.280  61.0720  0.00  0.00     0.000 C
ATOM     47  C3  BGC C   4      19.631  16.344  60.5340  0.00  0.00     0.000 C
ATOM     48  C4  BGC C   4      19.023  17.332  61.5100  0.00  0.00     0.000 C
ATOM     49  C5  BGC C   4      20.204  18.043  62.1910  0.00  0.00     0.000 C
ATOM     50  O5  BGC C   4      21.061  17.129  62.7820  0.00  0.00     0.000 O
ATOM     51   O  BGC C   4      21.019  14.394  59.8870  0.00  0.00     0.000 O
ATOM     53  HD  BGC C   4      20.331  14.073  59.4690  0.00  0.00     0.000 HD
ATOM     53   O  BGC C   4      18.479  15.465  60.1320  0.00  0.00     0.000 O
ATOM     55  HD  BGC C   4      17.791  15.144  59.7140  0.00  0.00     0.000 HD
ATOM     55   C  BGC C   4      19.735  18.938  63.3080  0.00  0.00     0.000 C
ATOM     56   O  BGC C   4      18.951  18.303  64.3250  0.00  0.00     0.000 O
ATOM     58  HD  BGC C   4      18.263  17.982  63.9070  0.00  0.00     0.000 HD
BRANCH 45 58
ATOM     58  O4  BGC C   5      22.453  15.362  62.6800  0.00  0.00     0.000 O
BRANCH 58 62
ATOM     59  C1  BGC C   5      24.561  14.059  60.8870  0.00  0.00     0.000 C
ATOM     60  C2  BGC C   5      24.864  13.647  62.2410  0.00  0.00     0.000 C
ATOM     61  C3  BGC C   5      24.796  14.783  63.2570  0.00  0.00     0.000 C
ATOM     62  C4  BGC C   5      23.820  15.837  62.7540  0.00  0.00     0.000 C
ATOM     63  C5  BGC C   5      24.120  16.064  61.2900  0.00  0.00     0.000 C
ATOM     64  O5  BGC C   5      24.929  15.107  60.6090  0.00  0.00     0.000 O
ATOM     65   O  BGC C   5      25.961  17.582  61.6670  0.00  0.00     0.000 O
ATOM     67  HD  BGC C   5      25.113  17.494  61.5170  0.00  0.00     0.000 HD
ATOM     67   O  BGC C   5      25.961  17.582  61.6670  0.00  0.00     0.000 O
ATOM     69  HD  BGC C   5      25.113  17.494  61.5170  0.00  0.00     0.000 HD
ENDBRANCH 58 62
ENDBRANCH 45 58
ENDBRANCH 44 48
ENDBRANCH 31 44
ENDBRANCH 30 34
ENDBRANCH 17 30
ENDBRANCH 16 20
ENDBRANCH 1 16
TORSDOF 8
ENDMDL
MODEL 34
REMARK VINA RESULT:      -0.1     49.940     52.570
ROOT
ATOM      1  C1  BGC C   1      14.134  38.122  54.1430  0.00  0.00     0.000 C
ATOM      2  C2  BGC C   1      12.853  38.948  54.2390  0.00  0.00     0.000 C
ATOM      3  C3  BGC C   1      12.674  39.782  52.9750  0.00  0.00     0.000 C
ATOM      4  C4  BGC C   1      13.924  40.571  52.6250  0.00  0.00     0.000 C
ATOM      5  C5  BGC C   1      15.157  39.675  52.7160  0.00  0.00     0.000 C
ATOM      6  O5  BGC C   1      15.222  38.926  53.8880  0.00  0.00     0.000 O
ATOM      7   O  BGC C   1      11.780  38.049  54.3870  0.00  0.00     0.000 O
ATOM      9  HD  BGC C   1      11.772  38.894  54.5760  0.00  0.00     0.000 HD
ATOM      9   O  BGC C   1      11.536  40.634  53.1620  0.00  0.00     0.000 O
ATOM     11  HD  BGC C   1      11.528  41.479  53.3520  0.00  0.00     0.000 HD
ATOM     11   O  BGC C   1      13.744  41.061  51.3010  0.00  0.00     0.000 O
ATOM     13  HD  BGC C   1      13.736  41.906  51.4900  0.00  0.00     0.000 HD
ATOM     13   O  BGC C   1      16.547  41.403  53.8190  0.00  0.00     0.000 O
ATOM     15  HD  BGC C   1      16.539  42.249  54.0080  0.00  0.00     0.000 HD
ATOM     15   C  BGC C   1      16.407  40.570  52.6350  0.00  0.00     0.000 C
ENDROOT
BRANCH 1 16
ATOM     16  O4  BGC C   2      14.364  37.502  55.3870  0.00  0.00     0.000 O
BRANCH 16 20
ATOM     17  C1  BGC C   2      16.022  34.043  56.7870  0.00  0.00     0.000 C
ATOM     18  C2  BGC C   2      16.996  35.166  56.4700  0.00  0.00     0.000 C
ATOM     19  C3  BGC C   2      16.262  36.490  56.3150  0.00  0.00     0.000 C
ATOM     20  C4  BGC C   2      15.140  36.328  55.3450  0.00  0.00     0.000 C
ATOM     21  C5  BGC C   2      14.269  35.130  55.7090  0.00  0.00     0.000 C
ATOM     22  O5  BGC C   2      15.034  33.966  55.8000  0.00  0.00     0.000 O
ATOM     23   O  BGC C   2      17.965  35.251  57.5260  0.00  0.00     0.000 O
ATOM     25  HD  BGC C   2      18.133  36.080  57.7090  0.00  0.00     0.000 HD
ATOM     25   O  BGC C   2      17.171  37.476  55.8400  0.00  0.00     0.000 O
ATOM     27  HD  BGC C   2      17.339  38.305  56.0230  0.00  0.00     0.000 HD
ATOM     27   C  BGC C   2      13.090  34.872  54.7480  0.00  0.00     0.000 C
ATOM     28   O  BGC C   2      13.543  34.755  53.3890  0.00  0.00     0.000 O
ATOM     30  HD  BGC C   2      13.711  35.585  53.5720  0.00  0.00     0.000 HD
BRANCH 17 30
ATOM     30  O4  BGC C   3      16.720  32.816  56.8210  0.00  0.00     0.000 O
BRANCH 30 34
ATOM     31  C1  BGC C   3      16.788  29.300  58.8130  0.00  0.00     0.000 C
ATOM     32  C2  BGC C   3      15.769  29.394  57.6530  0.00  0.00     0.000 C
ATOM     33  C3  BGC C   3      16.055  30.564  56.7780  0.00  0.00     0.000 C
ATOM     34  C4  BGC C   3      16.178  31.809  57.6610  0.00  0.00     0.000 C
ATOM     35  C5  BGC C   3      17.115  31.620  58.8810  0.00  0.00     0.000 C
ATOM     36  O5  BGC C   3      16.750  30.467  59.5980  0.00  0.00     0.000 O
ATOM     37   O  BGC C   3      15.624  28.278  56.7950  0.00  0.00     0.000 O
ATOM     39  HD  BGC C   3      15.645  29.141  56.8550  0.00  0.00     0.000 HD
ATOM     39   O  BGC C   3      14.997  30.724  55.7880  0.00  0.00     0.000 O
ATOM     41  HD  BGC C   3      15.019  31.588  55.8480  0.00  0.00     0.000 HD
ATOM     41   C  BGC C   3      17.120  32.790  59.8920  0.00  0.00     0.000 C
ATOM     42   O  BGC C   3      15.841  33.029  60.5810  0.00  0.00     0.000 O
ATOM     44  HD  BGC C   3      15.863  33.892  60.6410  0.00  0.00     0.000 HD
BRANCH 31 44
ATOM     44  O4  BGC C   4      16.519  28.206  59.6250  0.00  0.00     0.000 O
BRANCH 44 48
ATOM     45  C1  BGC C   4      18.191  25.177  61.8130  0.00  0.00     0.000 C
ATOM     46  C2  BGC C   4      18.414  26.564  62.4980  0.00  0.00     0.000 C
ATOM     47  C3  BGC C   4      17.466  27.468  61.7000  0.00  0.00     0.000 C
ATOM     48  C4  BGC C   4      17.553  27.453  60.1870  0.00  0.00     0.000 C
ATOM     49  C5  BGC C   4      17.315  25.996  59.7580  0.00  0.00     0.000 C
ATOM     50  O5  BGC C   4      18.212  25.143  60.3780  0.00  0.00     0.000 O
ATOM     51   O  BGC C   4      18.144  26.812  63.9930  0.00  0.00     0.000 O
ATOM     53  HD  BGC C   4      18.202  27.653  64.1910  0.00  0.00     0.000 HD
ATOM     53   O  BGC C   4      18.010  28.815  62.0890  0.00  0.00     0.000 O
ATOM     55  HD  BGC C   4      18.068  29.656  62.2870  0.00  0.00     0.000 HD
ATOM     55   C  BGC C   4      17.539  25.815  58.2790  0.00  0.00     0.000 C
ATOM     56   O  BGC C   4      18.825  26.218  57.7940  0.00  0.00     0.000 O
ATOM     58  HD  BGC C   4      18.884  27.059  57.9920  0.00  0.00     0.000 HD
BRANCH 45 58
ATOM     58  O4  BGC C   5      19.136  24.231  62.2190  0.00  0.00     0.000 O
BRANCH 58 62
ATOM     59  C1  BGC C   5      18.442  23.280  65.0410  0.00  0.00     0.000 C
ATOM     60  C2  BGC C   5      19.611  22.532  64.6340  0.00  0.00     0.000 C
ATOM     61  C3  BGC C   5      19.526  21.990  63.2090  0.00  0.00     0.000 C
ATOM     62  C4  BGC C   5      18.611  22.892  62.3920  0.00  0.00     0.000 C
ATOM     63  C5  BGC C   5      17.389  23.174  63.2360  0.00  0.00     0.000 C
ATOM     64  O5  BGC C   5      17.449  22.884  64.6310  0.00  0.00     0.000 O
ATOM     65   O  BGC C   5      16.257  21.109  62.6960  0.00  0.00     0.000 O
ATOM     67  HD  BGC C   5      16.366  21.947  62.5070  0.00  0.00     0.000 HD
ATOM     67   O  BGC C   5      16.257  21.109  62.6960  0.00  0.00     0.000 O
ATOM     69  HD  BGC C   5      16.366  21.947  62.5070  0.00  0.00     0.000 HD
ENDBRANCH 58 62
ENDBRANCH 45 58
ENDBRANCH 44 48
ENDBRANCH 31 44
ENDBRANCH 30 34
ENDBRANCH 17 30
ENDBRANCH 16 20
ENDBRANCH 1 16
TORSDOF 8
ENDMDL
MODEL 35
REMARK VINA RESULT:      -0.1     55.376     66.460
ROOT
ATOM      1  C1  BGC C   1      41.648  46.959  44.6980  0.00  0.00     0.000 C
ATOM      2  C2  BGC C   1      40.171  46.569  44.6570  0.00  0.00     0.000 C
ATOM      3  C3  BGC C   1      39.936  45.528  43.5700  0.00  0.00     0.000 C
ATOM      4  C4  BGC C   1      40.529  45.946  42.2350  0.00  0.00     0.000 C
ATOM      5  C5  BGC C   1      41.952  46.462  42.4270  0.00  0.00     0.000 C
ATOM      6  O5  BGC C   1      42.080  47.384  43.4620  0.00  0.00     0.000 O
ATOM      7   O  BGC C   1      39.838  46.043  45.9200  0.00  0.00     0.000 O
ATOM      9  HD  BGC C   1      39.284  46.341  45.3250  0.00  0.00     0.000 HD
ATOM      9   O  BGC C   1      38.524  45.290  43.4800  0.00  0.00     0.000 O
ATOM     11  HD  BGC C   1      37.970  45.589  42.8850  0.00  0.00     0.000 HD
ATOM     11   O  BGC C   1      40.510  44.795  41.3980  0.00  0.00     0.000 O
ATOM     13  HD  BGC C   1      39.956  45.094  40.8030  0.00  0.00     0.000 HD
ATOM     13   O  BGC C   1      41.664  48.358  40.8590  0.00  0.00     0.000 O
ATOM     15  HD  BGC C   1      41.110  48.656  40.2640  0.00  0.00     0.000 HD
ATOM     15   C  BGC C   1      42.401  47.130  41.1150  0.00  0.00     0.000 C
ENDROOT
BRANCH 1 16
ATOM     16  O4  BGC C   2      41.804  48.042  45.5840  0.00  0.00     0.000 O
BRANCH 16 20
ATOM     17  C1  BGC C   2      44.640  49.473  48.1500  0.00  0.00     0.000 C
ATOM     18  C2  BGC C   2      44.820  49.844  46.6870  0.00  0.00     0.000 C
ATOM     19  C3  BGC C   2      43.543  49.579  45.9020  0.00  0.00     0.000 C
ATOM     20  C4  BGC C   2      43.085  48.181  46.1520  0.00  0.00     0.000 C
ATOM     21  C5  BGC C   2      43.011  47.888  47.6470  0.00  0.00     0.000 C
ATOM     22  O5  BGC C   2      44.238  48.138  48.2650  0.00  0.00     0.000 O
ATOM     23   O  BGC C   2      45.182  51.231  46.6020  0.00  0.00     0.000 O
ATOM     25  HD  BGC C   2      44.772  51.605  45.9370  0.00  0.00     0.000 HD
ATOM     25   O  BGC C   2      43.802  49.760  44.5150  0.00  0.00     0.000 O
ATOM     27  HD  BGC C   2      43.392  50.134  43.8500  0.00  0.00     0.000 HD
ATOM     27   C  BGC C   2      42.563  46.455  48.0030  0.00  0.00     0.000 C
ATOM     28   O  BGC C   2      43.386  45.475  47.3500  0.00  0.00     0.000 O
ATOM     30  HD  BGC C   2      42.975  45.849  46.6850  0.00  0.00     0.000 HD
BRANCH 17 30
ATOM     30  O4  BGC C   3      45.869  49.632  48.8260  0.00  0.00     0.000 O
BRANCH 30 34
ATOM     31  C1  BGC C   3      47.358  50.814  52.3930  0.00  0.00     0.000 C
ATOM     32  C2  BGC C   3      46.886  49.343  52.3170  0.00  0.00     0.000 C
ATOM     33  C3  BGC C   3      46.688  48.912  50.9050  0.00  0.00     0.000 C
ATOM     34  C4  BGC C   3      45.790  49.938  50.2100  0.00  0.00     0.000 C
ATOM     35  C5  BGC C   3      46.237  51.407  50.4220  0.00  0.00     0.000 C
ATOM     36  O5  BGC C   3      46.413  51.666  51.7920  0.00  0.00     0.000 O
ATOM     37   O  BGC C   3      47.685  48.349  52.9320  0.00  0.00     0.000 O
ATOM     39  HD  BGC C   3      47.182  48.552  52.2570  0.00  0.00     0.000 HD
ATOM     39   O  BGC C   3      46.097  47.580  50.8630  0.00  0.00     0.000 O
ATOM     41  HD  BGC C   3      45.594  47.784  50.1880  0.00  0.00     0.000 HD
ATOM     41   C  BGC C   3      45.254  52.475  49.8900  0.00  0.00     0.000 C
ATOM     42   O  BGC C   3      43.940  52.504  50.5530  0.00  0.00     0.000 O
ATOM     44  HD  BGC C   3      43.436  52.708  49.8780  0.00  0.00     0.000 HD
BRANCH 31 44
ATOM     44  O4  BGC C   4      47.543  51.211  53.7110  0.00  0.00     0.000 O
BRANCH 44 48
ATOM     45  C1  BGC C   4      49.899  53.403  56.2410  0.00  0.00     0.000 C
ATOM     46  C2  BGC C   4      49.054  54.327  55.3070  0.00  0.00     0.000 C
ATOM     47  C3  BGC C   4      48.056  53.335  54.6970  0.00  0.00     0.000 C
ATOM     48  C4  BGC C   4      48.591  52.063  54.0670  0.00  0.00     0.000 C
ATOM     49  C5  BGC C   4      49.386  51.343  55.1670  0.00  0.00     0.000 C
ATOM     50  O5  BGC C   4      50.372  52.165  55.6880  0.00  0.00     0.000 O
ATOM     51   O  BGC C   4      48.252  55.534  55.8260  0.00  0.00     0.000 O
ATOM     53  HD  BGC C   4      47.748  55.870  55.2070  0.00  0.00     0.000 HD
ATOM     53   O  BGC C   4      47.567  54.149  53.5300  0.00  0.00     0.000 O
ATOM     55  HD  BGC C   4      47.063  54.485  52.9110  0.00  0.00     0.000 HD
ATOM     55   C  BGC C   4      50.110  50.139  54.6210  0.00  0.00     0.000 C
ATOM     56   O  BGC C   4      50.996  50.393  53.5240  0.00  0.00     0.000 O
ATOM     58  HD  BGC C   4      50.492  50.729  52.9050  0.00  0.00     0.000 HD
BRANCH 45 58
ATOM     58  O4  BGC C   5      51.039  54.047  56.7290  0.00  0.00     0.000 O
BRANCH 58 62
ATOM     59  C1  BGC C   5      50.208  56.007  58.9250  0.00  0.00     0.000 C
ATOM     60  C2  BGC C   5      51.649  56.085  58.8310  0.00  0.00     0.000 C
ATOM     61  C3  BGC C   5      52.333  54.724  58.7350  0.00  0.00     0.000 C
ATOM     62  C4  BGC C   5      51.367  53.731  58.1050  0.00  0.00     0.000 C
ATOM     63  C5  BGC C   5      50.024  53.928  58.7680  0.00  0.00     0.000 C
ATOM     64  O5  BGC C   5      49.813  55.117  59.5280  0.00  0.00     0.000 O
ATOM     65   O  BGC C   5      50.531  52.589  60.7140  0.00  0.00     0.000 O
ATOM     67  HD  BGC C   5      50.184  52.613  59.9210  0.00  0.00     0.000 HD
ATOM     67   O  BGC C   5      50.531  52.589  60.7140  0.00  0.00     0.000 O
ATOM     69  HD  BGC C   5      50.184  52.613  59.9210  0.00  0.00     0.000 HD
ENDBRANCH 58 62
ENDBRANCH 45 58
ENDBRANCH 44 48
ENDBRANCH 31 44
ENDBRANCH 30 34
ENDBRANCH 17 30
ENDBRANCH 16 20
ENDBRANCH 1 16
TORSDOF 8
ENDMDL
MODEL 36
REMARK VINA RESULT:      -0.1     51.731     61.431
ROOT
ATOM      1  C1  BGC C   1      41.074  63.964  44.5690  0.00  0.00     0.000 C
ATOM      2  C2  BGC C   1      42.384  63.593  45.2610  0.00  0.00     0.000 C
ATOM      3  C3  BGC C   1      42.669  64.567  46.3980  0.00  0.00     0.000 C
ATOM      4  C4  BGC C   1      42.563  66.016  45.9540  0.00  0.00     0.000 C
ATOM      5  C5  BGC C   1      41.290  66.228  45.1400  0.00  0.00     0.000 C
ATOM      6  O5  BGC C   1      41.094  65.274  44.1450  0.00  0.00     0.000 O
ATOM      7   O  BGC C   1      42.242  62.285  45.7620  0.00  0.00     0.000 O
ATOM      9  HD  BGC C   1      42.987  62.705  45.6260  0.00  0.00     0.000 HD
ATOM      9   O  BGC C   1      43.964  64.262  46.9320  0.00  0.00     0.000 O
ATOM     11  HD  BGC C   1      44.709  64.682  46.7960  0.00  0.00     0.000 HD
ATOM     11   O  BGC C   1      42.553  66.809  47.1360  0.00  0.00     0.000 O
ATOM     13  HD  BGC C   1      43.298  67.229  47.0000  0.00  0.00     0.000 HD
ATOM     13   O  BGC C   1      42.398  67.666  43.4540  0.00  0.00     0.000 O
ATOM     15  HD  BGC C   1      43.144  68.085  43.3180  0.00  0.00     0.000 HD
ATOM     15   C  BGC C   1      41.368  67.616  44.4800  0.00  0.00     0.000 C
ENDROOT
BRANCH 1 16
ATOM     16  O4  BGC C   2      40.928  63.162  43.4210  0.00  0.00     0.000 O
BRANCH 16 20
ATOM     17  C1  BGC C   2      37.893  61.488  41.2610  0.00  0.00     0.000 C
ATOM     18  C2  BGC C   2      38.199  62.946  40.9580  0.00  0.00     0.000 C
ATOM     19  C3  BGC C   2      39.549  63.347  41.5360  0.00  0.00     0.000 C
ATOM     20  C4  BGC C   2      39.605  62.971  42.9790  0.00  0.00     0.000 C
ATOM     21  C5  BGC C   2      39.207  61.512  43.1820  0.00  0.00     0.000 C
ATOM     22  O5  BGC C   2      37.946  61.259  42.6400  0.00  0.00     0.000 O
ATOM     23   O  BGC C   2      38.187  63.136  39.5350  0.00  0.00     0.000 O
ATOM     25  HD  BGC C   2      38.833  63.663  39.3000  0.00  0.00     0.000 HD
ATOM     25   O  BGC C   2      39.719  64.752  41.3970  0.00  0.00     0.000 O
ATOM     27  HD  BGC C   2      40.364  65.279  41.1620  0.00  0.00     0.000 HD
ATOM     27   C  BGC C   2      39.217  61.038  44.6500  0.00  0.00     0.000 C
ATOM     28   O  BGC C   2      38.406  61.889  45.4770  0.00  0.00     0.000 O
ATOM     30  HD  BGC C   2      39.052  62.416  45.2420  0.00  0.00     0.000 HD
BRANCH 17 30
ATOM     30  O4  BGC C   3      36.594  61.180  40.8040  0.00  0.00     0.000 O
BRANCH 30 34
ATOM     31  C1  BGC C   3      34.499  58.171  39.1020  0.00  0.00     0.000 C
ATOM     32  C2  BGC C   3      34.638  58.105  40.6420  0.00  0.00     0.000 C
ATOM     33  C3  BGC C   3      35.108  59.404  41.1970  0.00  0.00     0.000 C
ATOM     34  C4  BGC C   3      36.364  59.830  40.4310  0.00  0.00     0.000 C
ATOM     35  C5  BGC C   3      36.210  59.758  38.8900  0.00  0.00     0.000 C
ATOM     36  O5  BGC C   3      35.734  58.491  38.5100  0.00  0.00     0.000 O
ATOM     37   O  BGC C   3      33.505  57.730  41.4030  0.00  0.00     0.000 O
ATOM     39  HD  BGC C   3      34.203  58.240  41.3550  0.00  0.00     0.000 HD
ATOM     39   O  BGC C   3      35.381  59.274  42.6230  0.00  0.00     0.000 O
ATOM     41  HD  BGC C   3      36.079  59.785  42.5750  0.00  0.00     0.000 HD
ATOM     41   C  BGC C   3      37.510  60.004  38.0890  0.00  0.00     0.000 C
ATOM     42   O  BGC C   3      38.571  59.002  38.2930  0.00  0.00     0.000 O
ATOM     44  HD  BGC C   3      39.269  59.513  38.2440  0.00  0.00     0.000 HD
BRANCH 31 44
ATOM     44  O4  BGC C   4      34.059  56.958  38.5890  0.00  0.00     0.000 O
BRANCH 44 48
ATOM     45  C1  BGC C   4      31.651  55.191  35.7890  0.00  0.00     0.000 C
ATOM     46  C2  BGC C   4      32.898  55.860  35.1270  0.00  0.00     0.000 C
ATOM     47  C3  BGC C   4      33.780  56.164  36.3450  0.00  0.00     0.000 C
ATOM     48  C4  BGC C   4      33.168  56.910  37.5140  0.00  0.00     0.000 C
ATOM     49  C5  BGC C   4      31.968  56.069  37.9780  0.00  0.00     0.000 C
ATOM     50  O5  BGC C   4      31.085  55.846  36.9350  0.00  0.00     0.000 O
ATOM     51   O  BGC C   4      33.776  55.146  34.0840  0.00  0.00     0.000 O
ATOM     53  HD  BGC C   4      34.489  55.603  33.9030  0.00  0.00     0.000 HD
ATOM     53   O  BGC C   4      34.731  57.154  35.7310  0.00  0.00     0.000 O
ATOM     55  HD  BGC C   4      35.444  57.612  35.5500  0.00  0.00     0.000 HD
ATOM     55   C  BGC C   4      31.170  56.787  39.0360  0.00  0.00     0.000 C
ATOM     56   O  BGC C   4      30.691  58.088  38.6750  0.00  0.00     0.000 O
ATOM     58  HD  BGC C   4      31.404  58.545  38.4940  0.00  0.00     0.000 HD
BRANCH 45 58
ATOM     58  O4  BGC C   5      30.593  55.040  34.8900  0.00  0.00     0.000 O
BRANCH 58 62
ATOM     59  C1  BGC C   5      31.213  52.711  33.0070  0.00  0.00     0.000 C
ATOM     60  C2  BGC C   5      29.904  53.201  32.6340  0.00  0.00     0.000 C
ATOM     61  C3  BGC C   5      28.990  53.474  33.8250  0.00  0.00     0.000 C
ATOM     62  C4  BGC C   5      29.846  53.807  35.0380  0.00  0.00     0.000 C
ATOM     63  C5  BGC C   5      30.971  52.799  35.0840  0.00  0.00     0.000 C
ATOM     64  O5  BGC C   5      31.226  52.018  33.9180  0.00  0.00     0.000 O
ATOM     65   O  BGC C   5      29.678  51.062  36.1550  0.00  0.00     0.000 O
ATOM     67  HD  BGC C   5      30.222  51.728  36.2560  0.00  0.00     0.000 HD
ATOM     67   O  BGC C   5      29.678  51.062  36.1550  0.00  0.00     0.000 O
ATOM     69  HD  BGC C   5      30.222  51.728  36.2560  0.00  0.00     0.000 HD
ENDBRANCH 58 62
ENDBRANCH 45 58
ENDBRANCH 44 48
ENDBRANCH 31 44
ENDBRANCH 30 34
ENDBRANCH 17 30
ENDBRANCH 16 20
ENDBRANCH 1 16
TORSDOF 8
ENDMDL
MODEL 37
REMARK VINA RESULT:      -0.1     32.171     43.352
ROOT
ATOM      1  C1  BGC C   1      18.762  14.659  43.5270  0.00  0.00     0.000 C
ATOM      2  C2  BGC C   1      18.868  13.559  42.4720  0.00  0.00     0.000 C
ATOM      3  C3  BGC C   1      19.501  14.113  41.2010  0.00  0.00     0.000 C
ATOM      4  C4  BGC C   1      18.825  15.392  40.7330  0.00  0.00     0.000 C
ATOM      5  C5  BGC C   1      18.634  16.348  41.9070  0.00  0.00     0.000 C
ATOM      6  O5  BGC C   1      18.081  15.749  43.0350  0.00  0.00     0.000 O
ATOM      7   O  BGC C   1      19.669  12.533  43.0090  0.00  0.00     0.000 O
ATOM      9  HD  BGC C   1      19.124  12.462  42.3400  0.00  0.00     0.000 HD
ATOM      9   O  BGC C   1      19.461  13.088  40.2000  0.00  0.00     0.000 O
ATOM     11  HD  BGC C   1      18.916  13.017  39.5300  0.00  0.00     0.000 HD
ATOM     11   O  BGC C   1      19.669  15.963  39.7390  0.00  0.00     0.000 O
ATOM     13  HD  BGC C   1      19.124  15.892  39.0700  0.00  0.00     0.000 HD
ATOM     13   O  BGC C   1      16.350  17.014  41.2180  0.00  0.00     0.000 O
ATOM     15  HD  BGC C   1      15.805  16.943  40.5490  0.00  0.00     0.000 HD
ATOM     15   C  BGC C   1      17.705  17.488  41.4500  0.00  0.00     0.000 C
ENDROOT
BRANCH 1 16
ATOM     16  O4  BGC C   2      18.019  14.167  44.6170  0.00  0.00     0.000 O
BRANCH 16 20
ATOM     17  C1  BGC C   2      17.880  14.679  48.6660  0.00  0.00     0.000 C
ATOM     18  C2  BGC C   2      17.143  15.720  47.8390  0.00  0.00     0.000 C
ATOM     19  C3  BGC C   2      16.954  15.238  46.4080  0.00  0.00     0.000 C
ATOM     20  C4  BGC C   2      18.266  14.796  45.8520  0.00  0.00     0.000 C
ATOM     21  C5  BGC C   2      18.957  13.813  46.7930  0.00  0.00     0.000 C
ATOM     22  O5  BGC C   2      19.104  14.363  48.0670  0.00  0.00     0.000 O
ATOM     23   O  BGC C   2      15.871  15.983  48.4510  0.00  0.00     0.000 O
ATOM     25  HD  BGC C   2      15.260  16.064  47.8440  0.00  0.00     0.000 HD
ATOM     25   O  BGC C   2      16.431  16.301  45.6210  0.00  0.00     0.000 O
ATOM     27  HD  BGC C   2      15.819  16.382  45.0130  0.00  0.00     0.000 HD
ATOM     27   C  BGC C   2      20.334  13.315  46.3090  0.00  0.00     0.000 C
ATOM     28   O  BGC C   2      21.211  14.415  46.0150  0.00  0.00     0.000 O
ATOM     30  HD  BGC C   2      20.600  14.495  45.4070  0.00  0.00     0.000 HD
BRANCH 17 30
ATOM     30  O4  BGC C   3      18.130  15.199  49.9540  0.00  0.00     0.000 O
BRANCH 30 34
ATOM     31  C1  BGC C   3      18.283  14.050  53.8260  0.00  0.00     0.000 C
ATOM     32  C2  BGC C   3      19.570  13.807  53.0030  0.00  0.00     0.000 C
ATOM     33  C3  BGC C   3      19.541  14.564  51.7200  0.00  0.00     0.000 C
ATOM     34  C4  BGC C   3      18.223  14.251  51.0070  0.00  0.00     0.000 C
ATOM     35  C5  BGC C   3      16.973  14.390  51.9130  0.00  0.00     0.000 C
ATOM     36  O5  BGC C   3      17.149  13.651  53.0960  0.00  0.00     0.000 O
ATOM     37   O  BGC C   3      20.818  14.091  53.6080  0.00  0.00     0.000 O
ATOM     39  HD  BGC C   3      20.349  14.115  52.8800  0.00  0.00     0.000 HD
ATOM     39   O  BGC C   3      20.685  14.200  50.8940  0.00  0.00     0.000 O
ATOM     41  HD  BGC C   3      20.216  14.224  50.1670  0.00  0.00     0.000 HD
ATOM     41   C  BGC C   3      15.647  13.908  51.2800  0.00  0.00     0.000 C
ATOM     42   O  BGC C   3      15.587  12.469  50.9700  0.00  0.00     0.000 O
ATOM     44  HD  BGC C   3      15.117  12.493  50.2430  0.00  0.00     0.000 HD
BRANCH 31 44
ATOM     44  O4  BGC C   4      18.316  13.344  55.0220  0.00  0.00     0.000 O
BRANCH 44 48
ATOM     45  C1  BGC C   4      17.367  13.468  59.0020  0.00  0.00     0.000 C
ATOM     46  C2  BGC C   4      16.086  13.354  58.1150  0.00  0.00     0.000 C
ATOM     47  C3  BGC C   4      16.680  13.014  56.7420  0.00  0.00     0.000 C
ATOM     48  C4  BGC C   4      17.790  13.889  56.1950  0.00  0.00     0.000 C
ATOM     49  C5  BGC C   4      18.918  13.851  57.2390  0.00  0.00     0.000 C
ATOM     50  O5  BGC C   4      18.457  14.246  58.4840  0.00  0.00     0.000 O
ATOM     51   O  BGC C   4      14.960  12.343  58.3980  0.00  0.00     0.000 O
ATOM     53  HD  BGC C   4      14.381  12.325  57.7530  0.00  0.00     0.000 HD
ATOM     53   O  BGC C   4      15.497  13.327  55.8670  0.00  0.00     0.000 O
ATOM     55  HD  BGC C   4      14.918  13.308  55.2230  0.00  0.00     0.000 HD
ATOM     55   C  BGC C   4      20.020  14.818  56.8900  0.00  0.00     0.000 C
ATOM     56   O  BGC C   4      19.618  16.181  56.7180  0.00  0.00     0.000 O
ATOM     58  HD  BGC C   4      19.039  16.163  56.0740  0.00  0.00     0.000 HD
BRANCH 45 58
ATOM     58  O4  BGC C   5      17.091  14.012  60.2590  0.00  0.00     0.000 O
BRANCH 58 62
ATOM     59  C1  BGC C   5      15.727  11.887  61.9830  0.00  0.00     0.000 C
ATOM     60  C2  BGC C   5      15.870  13.060  62.8170  0.00  0.00     0.000 C
ATOM     61  C3  BGC C   5      17.243  13.720  62.7180  0.00  0.00     0.000 C
ATOM     62  C4  BGC C   5      17.837  13.417  61.3500  0.00  0.00     0.000 C
ATOM     63  C5  BGC C   5      17.612  11.948  61.0780  0.00  0.00     0.000 C
ATOM     64  O5  BGC C   5      16.672  11.246  61.8880  0.00  0.00     0.000 O
ATOM     65   O  BGC C   5      19.516  11.185  62.3550  0.00  0.00     0.000 O
ATOM     67  HD  BGC C   5      19.208  11.414  61.5780  0.00  0.00     0.000 HD
ATOM     67   O  BGC C   5      19.516  11.185  62.3550  0.00  0.00     0.000 O
ATOM     69  HD  BGC C   5      19.208  11.414  61.5780  0.00  0.00     0.000 HD
ENDBRANCH 58 62
ENDBRANCH 45 58
ENDBRANCH 44 48
ENDBRANCH 31 44
ENDBRANCH 30 34
ENDBRANCH 17 30
ENDBRANCH 16 20
ENDBRANCH 1 16
TORSDOF 8
ENDMDL
MODEL 38
REMARK VINA RESULT:      -0.1     66.580     75.232
ROOT
ATOM      1  C1  BGC C   1      62.758  62.800  48.1040  0.00  0.00     0.000 C
ATOM      2  C2  BGC C   1      63.889  61.798  48.3310  0.00  0.00     0.000 C
ATOM      3  C3  BGC C   1      64.444  61.947  49.7420  0.00  0.00     0.000 C
ATOM      4  C4  BGC C   1      64.785  63.390  50.0760  0.00  0.00     0.000 C
ATOM      5  C5  BGC C   1      63.643  64.312  49.6620  0.00  0.00     0.000 C
ATOM      6  O5  BGC C   1      63.177  64.084  48.3700  0.00  0.00     0.000 O
ATOM      7   O  BGC C   1      63.353  60.509  48.1500  0.00  0.00     0.000 O
ATOM      9  HD  BGC C   1      64.191  60.725  48.1280  0.00  0.00     0.000 HD
ATOM      9   O  BGC C   1      65.582  61.084  49.8660  0.00  0.00     0.000 O
ATOM     11  HD  BGC C   1      66.420  61.299  49.8440  0.00  0.00     0.000 HD
ATOM     11   O  BGC C   1      65.004  63.446  51.4820  0.00  0.00     0.000 O
ATOM     13  HD  BGC C   1      65.843  63.662  51.4600  0.00  0.00     0.000 HD
ATOM     13   O  BGC C   1      65.149  66.052  48.7430  0.00  0.00     0.000 O
ATOM     15  HD  BGC C   1      65.987  66.268  48.7210  0.00  0.00     0.000 HD
ATOM     15   C  BGC C   1      64.143  65.766  49.7540  0.00  0.00     0.000 C
ENDROOT
BRANCH 1 16
ATOM     16  O4  BGC C   2      62.387  62.761  46.7460  0.00  0.00     0.000 O
BRANCH 16 20
ATOM     17  C1  BGC C   2      59.008  63.283  44.5130  0.00  0.00     0.000 C
ATOM     18  C2  BGC C   2      59.743  64.553  44.9140  0.00  0.00     0.000 C
ATOM     19  C3  BGC C   2      61.145  64.231  45.4100  0.00  0.00     0.000 C
ATOM     20  C4  BGC C   2      61.072  63.178  46.4650  0.00  0.00     0.000 C
ATOM     21  C5  BGC C   2      60.251  61.983  45.9910  0.00  0.00     0.000 C
ATOM     22  O5  BGC C   2      58.977  62.384  45.5840  0.00  0.00     0.000 O
ATOM     23   O  BGC C   2      59.801  65.431  43.7800  0.00  0.00     0.000 O
ATOM     25  HD  BGC C   2      60.578  65.812  43.7390  0.00  0.00     0.000 HD
ATOM     25   O  BGC C   2      61.733  65.410  45.9460  0.00  0.00     0.000 O
ATOM     27  HD  BGC C   2      62.510  65.791  45.9050  0.00  0.00     0.000 HD
ATOM     27   C  BGC C   2      60.103  60.849  47.0270  0.00  0.00     0.000 C
ATOM     28   O  BGC C   2      59.580  61.344  48.2700  0.00  0.00     0.000 O
ATOM     30  HD  BGC C   2      60.357  61.724  48.2290  0.00  0.00     0.000 HD
BRANCH 17 30
ATOM     30  O4  BGC C   3      57.680  63.606  44.1580  0.00  0.00     0.000 O
BRANCH 30 34
ATOM     31  C1  BGC C   3      54.790  62.550  41.5370  0.00  0.00     0.000 C
ATOM     32  C2  BGC C   3      54.888  61.681  42.8130  0.00  0.00     0.000 C
ATOM     33  C3  BGC C   3      55.724  62.343  43.8530  0.00  0.00     0.000 C
ATOM     34  C4  BGC C   3      57.056  62.747  43.2160  0.00  0.00     0.000 C
ATOM     35  C5  BGC C   3      56.902  63.508  41.8740  0.00  0.00     0.000 C
ATOM     36  O5  BGC C   3      56.069  62.786  41.0020  0.00  0.00     0.000 O
ATOM     37   O  BGC C   3      53.689  61.288  43.4530  0.00  0.00     0.000 O
ATOM     39  HD  BGC C   3      54.509  61.547  43.5570  0.00  0.00     0.000 HD
ATOM     39   O  BGC C   3      55.932  61.442  44.9810  0.00  0.00     0.000 O
ATOM     41  HD  BGC C   3      56.753  61.700  45.0850  0.00  0.00     0.000 HD
ATOM     41   C  BGC C   3      58.222  63.770  41.1140  0.00  0.00     0.000 C
ATOM     42   O  BGC C   3      58.929  62.564  40.6500  0.00  0.00     0.000 O
ATOM     44  HD  BGC C   3      59.749  62.823  40.7540  0.00  0.00     0.000 HD
BRANCH 31 44
ATOM     44  O4  BGC C   4      54.008  61.931  40.5710  0.00  0.00     0.000 O
BRANCH 44 48
ATOM     45  C1  BGC C   4      51.204  62.534  37.6500  0.00  0.00     0.000 C
ATOM     46  C2  BGC C   4      52.601  63.088  37.2220  0.00  0.00     0.000 C
ATOM     47  C3  BGC C   4      53.523  62.488  38.2910  0.00  0.00     0.000 C
ATOM     48  C4  BGC C   4      53.154  62.671  39.7510  0.00  0.00     0.000 C
ATOM     49  C5  BGC C   4      51.752  62.065  39.9180  0.00  0.00     0.000 C
ATOM     50  O5  BGC C   4      50.852  62.642  39.0380  0.00  0.00     0.000 O
ATOM     51   O  BGC C   4      53.232  62.797  35.8480  0.00  0.00     0.000 O
ATOM     53  HD  BGC C   4      54.051  63.075  35.8100  0.00  0.00     0.000 HD
ATOM     53   O  BGC C   4      54.734  63.360  38.1030  0.00  0.00     0.000 O
ATOM     55  HD  BGC C   4      55.553  63.638  38.0650  0.00  0.00     0.000 HD
ATOM     55   C  BGC C   4      51.199  62.330  41.2940  0.00  0.00     0.000 C
ATOM     56   O  BGC C   4      51.139  63.707  41.6820  0.00  0.00     0.000 O
ATOM     58  HD  BGC C   4      51.958  63.986  41.6440  0.00  0.00     0.000 HD
BRANCH 45 58
ATOM     58  O4  BGC C   5      50.158  63.146  36.9550  0.00  0.00     0.000 O
BRANCH 58 62
ATOM     59  C1  BGC C   5      50.063  62.022  34.1130  0.00  0.00     0.000 C
ATOM     60  C2  BGC C   5      48.966  62.959  34.2190  0.00  0.00     0.000 C
ATOM     61  C3  BGC C   5      48.166  62.823  35.5120  0.00  0.00     0.000 C
ATOM     62  C4  BGC C   5      49.073  62.256  36.5950  0.00  0.00     0.000 C
ATOM     63  C5  BGC C   5      49.840  61.108  35.9820  0.00  0.00     0.000 C
ATOM     64  O5  BGC C   5      49.857  60.988  34.5610  0.00  0.00     0.000 O
ATOM     65   O  BGC C   5      48.073  59.482  36.2520  0.00  0.00     0.000 O
ATOM     67  HD  BGC C   5      48.792  59.834  36.5840  0.00  0.00     0.000 HD
ATOM     67   O  BGC C   5      48.073  59.482  36.2520  0.00  0.00     0.000 O
ATOM     69  HD  BGC C   5      48.792  59.834  36.5840  0.00  0.00     0.000 HD
ENDBRANCH 58 62
ENDBRANCH 45 58
ENDBRANCH 44 48
ENDBRANCH 31 44
ENDBRANCH 30 34
ENDBRANCH 17 30
ENDBRANCH 16 20
ENDBRANCH 1 16
TORSDOF 8
ENDMDL
MODEL 39
REMARK VINA RESULT:      -0.1     60.581     63.905
ROOT
ATOM      1  C1  BGC C   1       8.187  62.579  45.1940  0.00  0.00     0.000 C
ATOM      2  C2  BGC C   1       7.142  61.506  45.4940  0.00  0.00     0.000 C
ATOM      3  C3  BGC C   1       5.922  61.701  44.6010  0.00  0.00     0.000 C
ATOM      4  C4  BGC C   1       5.407  63.131  44.6370  0.00  0.00     0.000 C
ATOM      5  C5  BGC C   1       6.564  64.113  44.4830  0.00  0.00     0.000 C
ATOM      6  O5  BGC C   1       7.648  63.839  45.3130  0.00  0.00     0.000 O
ATOM      7   O  BGC C   1       7.736  60.255  45.2420  0.00  0.00     0.000 O
ATOM      9  HD  BGC C   1       7.028  60.400  45.7190  0.00  0.00     0.000 HD
ATOM      9   O  BGC C   1       4.919  60.759  45.0050  0.00  0.00     0.000 O
ATOM     11  HD  BGC C   1       4.211  60.905  45.4820  0.00  0.00     0.000 HD
ATOM     11   O  BGC C   1       4.479  63.261  43.5660  0.00  0.00     0.000 O
ATOM     13  HD  BGC C   1       3.771  63.407  44.0430  0.00  0.00     0.000 HD
ATOM     13   O  BGC C   1       5.709  65.662  46.2170  0.00  0.00     0.000 O
ATOM     15  HD  BGC C   1       5.001  65.808  46.6940  0.00  0.00     0.000 HD
ATOM     15   C  BGC C   1       6.041  65.525  44.8080  0.00  0.00     0.000 C
ENDROOT
BRANCH 1 16
ATOM     16  O4  BGC C   2       9.219  62.481  46.1480  0.00  0.00     0.000 O
BRANCH 16 20
ATOM     17  C1  BGC C   2      13.247  63.126  46.3300  0.00  0.00     0.000 C
ATOM     18  C2  BGC C   2      12.369  64.356  46.4980  0.00  0.00     0.000 C
ATOM     19  C3  BGC C   2      10.927  63.956  46.7770  0.00  0.00     0.000 C
ATOM     20  C4  BGC C   2      10.469  62.984  45.7410  0.00  0.00     0.000 C
ATOM     21  C5  BGC C   2      11.458  61.830  45.5980  0.00  0.00     0.000 C
ATOM     22  O5  BGC C   2      12.740  62.304  45.3180  0.00  0.00     0.000 O
ATOM     23   O  BGC C   2      12.886  65.151  47.5760  0.00  0.00     0.000 O
ATOM     25  HD  BGC C   2      12.234  65.465  48.0530  0.00  0.00     0.000 HD
ATOM     25   O  BGC C   2      10.105  65.116  46.7440  0.00  0.00     0.000 O
ATOM     27  HD  BGC C   2       9.454  65.430  47.2210  0.00  0.00     0.000 HD
ATOM     27   C  BGC C   2      11.076  60.781  44.5330  0.00  0.00     0.000 C
ATOM     28   O  BGC C   2      10.850  61.397  43.2540  0.00  0.00     0.000 O
ATOM     30  HD  BGC C   2      10.198  61.710  43.7320  0.00  0.00     0.000 HD
BRANCH 17 30
ATOM     30  O4  BGC C   3      14.551  63.531  45.9700  0.00  0.00     0.000 O
BRANCH 30 34
ATOM     31  C1  BGC C   3      18.422  62.543  46.5810  0.00  0.00     0.000 C
ATOM     32  C2  BGC C   3      17.696  61.753  45.4670  0.00  0.00     0.000 C
ATOM     33  C3  BGC C   3      16.416  62.411  45.0860  0.00  0.00     0.000 C
ATOM     34  C4  BGC C   3      15.606  62.665  46.3600  0.00  0.00     0.000 C
ATOM     35  C5  BGC C   3      16.418  63.348  47.4910  0.00  0.00     0.000 C
ATOM     36  O5  BGC C   3      17.610  62.640  47.7250  0.00  0.00     0.000 O
ATOM     37   O  BGC C   3      18.392  61.500  44.2600  0.00  0.00     0.000 O
ATOM     39  HD  BGC C   3      17.632  61.698  44.6250  0.00  0.00     0.000 HD
ATOM     39   O  BGC C   3      15.676  61.572  44.1510  0.00  0.00     0.000 O
ATOM     41  HD  BGC C   3      14.916  61.770  44.5160  0.00  0.00     0.000 HD
ATOM     41   C  BGC C   3      15.688  63.454  48.8500  0.00  0.00     0.000 C
ATOM     42   O  BGC C   3      15.373  62.168  49.4940  0.00  0.00     0.000 O
ATOM     44  HD  BGC C   3      14.613  62.366  49.8590  0.00  0.00     0.000 HD
BRANCH 31 44
ATOM     44  O4  BGC C   4      19.616  61.926  46.9320  0.00  0.00     0.000 O
BRANCH 44 48
ATOM     45  C1  BGC C   4      23.516  62.562  48.0040  0.00  0.00     0.000 C
ATOM     46  C2  BGC C   4      22.536  62.973  49.1490  0.00  0.00     0.000 C
ATOM     47  C3  BGC C   4      21.210  62.373  48.6650  0.00  0.00     0.000 C
ATOM     48  C4  BGC C   4      20.748  62.678  47.2540  0.00  0.00     0.000 C
ATOM     49  C5  BGC C   4      21.872  62.198  46.3220  0.00  0.00     0.000 C
ATOM     50  O5  BGC C   4      23.080  62.788  46.6540  0.00  0.00     0.000 O
ATOM     51   O  BGC C   4      22.734  62.544  50.6140  0.00  0.00     0.000 O
ATOM     53  HD  BGC C   4      22.049  62.753  51.1010  0.00  0.00     0.000 HD
ATOM     53   O  BGC C   4      20.251  63.130  49.5420  0.00  0.00     0.000 O
ATOM     55  HD  BGC C   4      19.566  63.339  50.0280  0.00  0.00     0.000 HD
ATOM     55   C  BGC C   4      21.607  62.595  44.8930  0.00  0.00     0.000 C
ATOM     56   O  BGC C   4      21.408  63.995  44.6660  0.00  0.00     0.000 O
ATOM     58  HD  BGC C   4      20.722  64.204  45.1530  0.00  0.00     0.000 HD
BRANCH 45 58
ATOM     58  O4  BGC C   5      24.749  63.209  48.1060  0.00  0.00     0.000 O
BRANCH 58 62
ATOM     59  C1  BGC C   5      26.366  61.914  50.3570  0.00  0.00     0.000 C
ATOM     60  C2  BGC C   5      27.209  62.942  49.7860  0.00  0.00     0.000 C
ATOM     61  C3  BGC C   5      27.212  62.954  48.2590  0.00  0.00     0.000 C
ATOM     62  C4  BGC C   5      25.891  62.388  47.7590  0.00  0.00     0.000 C
ATOM     63  C5  BGC C   5      25.602  61.144  48.5670  0.00  0.00     0.000 C
ATOM     64  O5  BGC C   5      26.339  60.932  49.7690  0.00  0.00     0.000 O
ATOM     65   O  BGC C   5      27.015  59.686  47.2580  0.00  0.00     0.000 O
ATOM     67  HD  BGC C   5      26.218  60.000  47.3870  0.00  0.00     0.000 HD
ATOM     67   O  BGC C   5      27.015  59.686  47.2580  0.00  0.00     0.000 O
ATOM     69  HD  BGC C   5      26.218  60.000  47.3870  0.00  0.00     0.000 HD
ENDBRANCH 58 62
ENDBRANCH 45 58
ENDBRANCH 44 48
ENDBRANCH 31 44
ENDBRANCH 30 34
ENDBRANCH 17 30
ENDBRANCH 16 20
ENDBRANCH 1 16
TORSDOF 8
ENDMDL
MODEL 40
REMARK VINA RESULT:      -0.1     58.454     63.761
ROOT
ATOM      1  C1  BGC C   1      66.483  30.010  46.6120  0.00  0.00     0.000 C
ATOM      2  C2  BGC C   1      67.550  28.916  46.6480  0.00  0.00     0.000 C
ATOM      3  C3  BGC C   1      67.367  28.049  47.8880  0.00  0.00     0.000 C
ATOM      4  C4  BGC C   1      67.249  28.877  49.1570  0.00  0.00     0.000 C
ATOM      5  C5  BGC C   1      66.272  30.030  48.9470  0.00  0.00     0.000 C
ATOM      6  O5  BGC C   1      66.493  30.747  47.7740  0.00  0.00     0.000 O
ATOM      7   O  BGC C   1      67.400  28.141  45.4830  0.00  0.00     0.000 O
ATOM      9  HD  BGC C   1      68.102  28.178  45.9890  0.00  0.00     0.000 HD
ATOM      9   O  BGC C   1      68.461  27.125  47.9500  0.00  0.00     0.000 O
ATOM     11  HD  BGC C   1      69.163  27.162  48.4560  0.00  0.00     0.000 HD
ATOM     11   O  BGC C   1      66.793  27.999  50.1800  0.00  0.00     0.000 O
ATOM     13  HD  BGC C   1      67.495  28.037  50.6860  0.00  0.00     0.000 HD
ATOM     13   O  BGC C   1      67.684  31.676  50.1440  0.00  0.00     0.000 O
ATOM     15  HD  BGC C   1      68.386  31.713  50.6500  0.00  0.00     0.000 HD
ATOM     15   C  BGC C   1      66.401  30.992  50.1420  0.00  0.00     0.000 C
ENDROOT
BRANCH 1 16
ATOM     16  O4  BGC C   2      66.781  30.896  45.5590  0.00  0.00     0.000 O
BRANCH 16 20
ATOM     17  C1  BGC C   2      64.750  33.262  42.9230  0.00  0.00     0.000 C
ATOM     18  C2  BGC C   2      64.978  33.851  44.3060  0.00  0.00     0.000 C
ATOM     19  C3  BGC C   2      66.035  33.060  45.0630  0.00  0.00     0.000 C
ATOM     20  C4  BGC C   2      65.685  31.609  45.0390  0.00  0.00     0.000 C
ATOM     21  C5  BGC C   2      65.402  31.138  43.6150  0.00  0.00     0.000 C
ATOM     22  O5  BGC C   2      64.402  31.911  43.0230  0.00  0.00     0.000 O
ATOM     23   O  BGC C   2      65.382  35.222  44.1660  0.00  0.00     0.000 O
ATOM     25  HD  BGC C   2      66.009  35.406  44.7340  0.00  0.00     0.000 HD
ATOM     25   O  BGC C   2      66.089  33.519  46.4080  0.00  0.00     0.000 O
ATOM     27  HD  BGC C   2      66.715  33.704  46.9770  0.00  0.00     0.000 HD
ATOM     27   C  BGC C   2      65.012  29.650  43.4930  0.00  0.00     0.000 C
ATOM     28   O  BGC C   2      63.902  29.332  44.3470  0.00  0.00     0.000 O
ATOM     30  HD  BGC C   2      64.528  29.516  44.9160  0.00  0.00     0.000 HD
BRANCH 17 30
ATOM     30  O4  BGC C   3      63.694  33.953  42.2910  0.00  0.00     0.000 O
BRANCH 30 34
ATOM     31  C1  BGC C   3      62.553  35.284  38.6490  0.00  0.00     0.000 C
ATOM     32  C2  BGC C   3      62.221  33.804  38.9560  0.00  0.00     0.000 C
ATOM     33  C3  BGC C   3      62.358  33.513  40.4100  0.00  0.00     0.000 C
ATOM     34  C4  BGC C   3      63.734  33.998  40.8720  0.00  0.00     0.000 C
ATOM     35  C5  BGC C   3      64.068  35.446  40.4290  0.00  0.00     0.000 C
ATOM     36  O5  BGC C   3      63.868  35.586  39.0450  0.00  0.00     0.000 O
ATOM     37   O  BGC C   3      60.956  33.304  38.5640  0.00  0.00     0.000 O
ATOM     39  HD  BGC C   3      61.577  33.298  39.1680  0.00  0.00     0.000 HD
ATOM     39   O  BGC C   3      62.194  32.085  40.6560  0.00  0.00     0.000 O
ATOM     41  HD  BGC C   3      62.815  32.079  41.2590  0.00  0.00     0.000 HD
ATOM     41   C  BGC C   3      65.516  35.903  40.7200  0.00  0.00     0.000 C
ATOM     42   O  BGC C   3      66.564  35.162  39.9980  0.00  0.00     0.000 O
ATOM     44  HD  BGC C   3      67.185  35.156  40.6020  0.00  0.00     0.000 HD
BRANCH 31 44
ATOM     44  O4  BGC C   4      62.423  35.552  37.2920  0.00  0.00     0.000 O
BRANCH 44 48
ATOM     45  C1  BGC C   4      61.189  38.316  34.5360  0.00  0.00     0.000 C
ATOM     46  C2  BGC C   4      62.499  38.773  35.2530  0.00  0.00     0.000 C
ATOM     47  C3  BGC C   4      62.929  37.491  35.9780  0.00  0.00     0.000 C
ATOM     48  C4  BGC C   4      61.913  36.773  36.8440  0.00  0.00     0.000 C
ATOM     49  C5  BGC C   4      60.726  36.442  35.9270  0.00  0.00     0.000 C
ATOM     50  O5  BGC C   4      60.233  37.584  35.3190  0.00  0.00     0.000 O
ATOM     51   O  BGC C   4      63.725  39.311  34.4940  0.00  0.00     0.000 O
ATOM     53  HD  BGC C   4      64.406  39.410  35.0200  0.00  0.00     0.000 HD
ATOM     53   O  BGC C   4      63.911  38.069  36.9600  0.00  0.00     0.000 O
ATOM     55  HD  BGC C   4      64.592  38.168  37.4850  0.00  0.00     0.000 HD
ATOM     55   C  BGC C   4      59.572  35.869  36.7080  0.00  0.00     0.000 C
ATOM     56   O  BGC C   4      59.090  36.680  37.7860  0.00  0.00     0.000 O
ATOM     58  HD  BGC C   4      59.770  36.779  38.3120  0.00  0.00     0.000 HD
BRANCH 45 58
ATOM     58  O4  BGC C   5      60.479  39.393  33.9990  0.00  0.00     0.000 O
BRANCH 58 62
ATOM     59  C1  BGC C   5      61.889  40.344  31.4580  0.00  0.00     0.000 C
ATOM     60  C2  BGC C   5      60.712  41.172  31.6070  0.00  0.00     0.000 C
ATOM     61  C3  BGC C   5      59.454  40.389  31.9710  0.00  0.00     0.000 C
ATOM     62  C4  BGC C   5      59.858  39.126  32.7170  0.00  0.00     0.000 C
ATOM     63  C5  BGC C   5      61.016  38.511  31.9650  0.00  0.00     0.000 C
ATOM     64  O5  BGC C   5      61.697  39.312  31.0010  0.00  0.00     0.000 O
ATOM     65   O  BGC C   5      59.650  37.402  30.3090  0.00  0.00     0.000 O
ATOM     67  HD  BGC C   5      60.063  37.341  31.0680  0.00  0.00     0.000 HD
ATOM     67   O  BGC C   5      59.650  37.402  30.3090  0.00  0.00     0.000 O
ATOM     69  HD  BGC C   5      60.063  37.341  31.0680  0.00  0.00     0.000 HD
ENDBRANCH 58 62
ENDBRANCH 45 58
ENDBRANCH 44 48
ENDBRANCH 31 44
ENDBRANCH 30 34
ENDBRANCH 17 30
ENDBRANCH 16 20
ENDBRANCH 1 16
TORSDOF 8
ENDMDL
MODEL 41
REMARK VINA RESULT:      -0.1     27.975     36.802
ROOT
ATOM      1  C1  BGC C   1      32.758   7.785  28.6570  0.00  0.00     0.000 C
ATOM      2  C2  BGC C   1      31.472   7.036  28.3070  0.00  0.00     0.000 C
ATOM      3  C3  BGC C   1      31.547   6.510  26.8790  0.00  0.00     0.000 C
ATOM      4  C4  BGC C   1      31.954   7.589  25.8890  0.00  0.00     0.000 C
ATOM      5  C5  BGC C   1      33.153   8.369  26.4220  0.00  0.00     0.000 C
ATOM      6  O5  BGC C   1      33.012   8.782  27.7440  0.00  0.00     0.000 O
ATOM      7   O  BGC C   1      31.344   5.969  29.2160  0.00  0.00     0.000 O
ATOM      9  HD  BGC C   1      30.713   6.309  28.7310  0.00  0.00     0.000 HD
ATOM      9   O  BGC C   1      30.276   5.933  26.5510  0.00  0.00     0.000 O
ATOM     11  HD  BGC C   1      29.645   6.273  26.0660  0.00  0.00     0.000 HD
ATOM     11   O  BGC C   1      32.274   6.929  24.6690  0.00  0.00     0.000 O
ATOM     13  HD  BGC C   1      31.643   7.269  24.1840  0.00  0.00     0.000 HD
ATOM     13   O  BGC C   1      32.262  10.567  25.7060  0.00  0.00     0.000 O
ATOM     15  HD  BGC C   1      31.631  10.907  25.2210  0.00  0.00     0.000 HD
ATOM     15   C  BGC C   1      33.347   9.613  25.5360  0.00  0.00     0.000 C
ENDROOT
BRANCH 1 16
ATOM     16  O4  BGC C   2      32.590   8.406  29.9100  0.00  0.00     0.000 O
BRANCH 16 20
ATOM     17  C1  BGC C   2      34.899   9.419  33.1220  0.00  0.00     0.000 C
ATOM     18  C2  BGC C   2      34.926  10.390  31.9520  0.00  0.00     0.000 C
ATOM     19  C3  BGC C   2      33.777  10.111  30.9930  0.00  0.00     0.000 C
ATOM     20  C4  BGC C   2      33.777   8.666  30.6210  0.00  0.00     0.000 C
ATOM     21  C5  BGC C   2      33.828   7.780  31.8630  0.00  0.00     0.000 C
ATOM     22  O5  BGC C   2      34.930   8.100  32.6580  0.00  0.00     0.000 O
ATOM     23   O  BGC C   2      34.841  11.730  32.4590  0.00  0.00     0.000 O
ATOM     25  HD  BGC C   2      34.322  12.206  31.9560  0.00  0.00     0.000 HD
ATOM     25   O  BGC C   2      33.939  10.908  29.8260  0.00  0.00     0.000 O
ATOM     27  HD  BGC C   2      33.420  11.384  29.3220  0.00  0.00     0.000 HD
ATOM     27   C  BGC C   2      33.851   6.265  31.5750  0.00  0.00     0.000 C
ATOM     28   O  BGC C   2      34.921   5.921  30.6810  0.00  0.00     0.000 O
ATOM     30  HD  BGC C   2      34.402   6.397  30.1770  0.00  0.00     0.000 HD
BRANCH 17 30
ATOM     30  O4  BGC C   3      36.033   9.637  33.9340  0.00  0.00     0.000 O
BRANCH 30 34
ATOM     31  C1  BGC C   3      37.157   9.637  37.8160  0.00  0.00     0.000 C
ATOM     32  C2  BGC C   3      37.160   8.257  37.1170  0.00  0.00     0.000 C
ATOM     33  C3  BGC C   3      37.076   8.402  35.6370  0.00  0.00     0.000 C
ATOM     34  C4  BGC C   3      35.891   9.315  35.3090  0.00  0.00     0.000 C
ATOM     35  C5  BGC C   3      35.869  10.630  36.1290  0.00  0.00     0.000 C
ATOM     36  O5  BGC C   3      35.985  10.347  37.5010  0.00  0.00     0.000 O
ATOM     37   O  BGC C   3      38.238   7.376  37.3730  0.00  0.00     0.000 O
ATOM     39  HD  BGC C   3      37.683   7.682  36.7830  0.00  0.00     0.000 HD
ATOM     39   O  BGC C   3      36.922   7.095  35.0100  0.00  0.00     0.000 O
ATOM     41  HD  BGC C   3      36.367   7.401  34.4200  0.00  0.00     0.000 HD
ATOM     41   C  BGC C   3      34.595  11.488  35.9580  0.00  0.00     0.000 C
ATOM     42   O  BGC C   3      33.349  10.864  36.4330  0.00  0.00     0.000 O
ATOM     44  HD  BGC C   3      32.794  11.170  35.8430  0.00  0.00     0.000 HD
BRANCH 31 44
ATOM     44  O4  BGC C   4      37.238   9.497  39.1960  0.00  0.00     0.000 O
BRANCH 44 48
ATOM     45  C1  BGC C   4      38.857  11.045  42.6220  0.00  0.00     0.000 C
ATOM     46  C2  BGC C   4      37.750  11.982  42.0420  0.00  0.00     0.000 C
ATOM     47  C3  BGC C   4      37.093  11.083  40.9870  0.00  0.00     0.000 C
ATOM     48  C4  BGC C   4      37.980  10.393  39.9690  0.00  0.00     0.000 C
ATOM     49  C5  BGC C   4      38.981   9.550  40.7750  0.00  0.00     0.000 C
ATOM     50  O5  BGC C   4      39.676  10.334  41.6810  0.00  0.00     0.000 O
ATOM     51   O  BGC C   4      36.626  12.584  42.9040  0.00  0.00     0.000 O
ATOM     53  HD  BGC C   4      36.031  12.982  42.4170  0.00  0.00     0.000 HD
ATOM     53   O  BGC C   4      36.354  12.122  40.1900  0.00  0.00     0.000 O
ATOM     55  HD  BGC C   4      35.759  12.520  39.7020  0.00  0.00     0.000 HD
ATOM     55   C  BGC C   4      40.029   8.939  39.8820  0.00  0.00     0.000 C
ATOM     56   O  BGC C   4      40.771   9.862  39.0760  0.00  0.00     0.000 O
ATOM     58  HD  BGC C   4      40.175  10.259  38.5890  0.00  0.00     0.000 HD
BRANCH 45 58
ATOM     58  O4  BGC C   5      39.752  11.732  43.4450  0.00  0.00     0.000 O
BRANCH 58 62
ATOM     59  C1  BGC C   5      38.404  12.295  46.1310  0.00  0.00     0.000 C
ATOM     60  C2  BGC C   5      39.749  12.818  46.2310  0.00  0.00     0.000 C
ATOM     61  C3  BGC C   5      40.816  11.875  45.6820  0.00  0.00     0.000 C
ATOM     62  C4  BGC C   5      40.190  10.993  44.6110  0.00  0.00     0.000 C
ATOM     63  C5  BGC C   5      38.865  10.505  45.1500  0.00  0.00     0.000 C
ATOM     64  O5  BGC C   5      38.314  11.165  46.2880  0.00  0.00     0.000 O
ATOM     65   O  BGC C   5      39.798   8.698  46.4540  0.00  0.00     0.000 O
ATOM     67  HD  BGC C   5      39.445   8.943  45.7020  0.00  0.00     0.000 HD
ATOM     67   O  BGC C   5      39.798   8.698  46.4540  0.00  0.00     0.000 O
ATOM     69  HD  BGC C   5      39.445   8.943  45.7020  0.00  0.00     0.000 HD
ENDBRANCH 58 62
ENDBRANCH 45 58
ENDBRANCH 44 48
ENDBRANCH 31 44
ENDBRANCH 30 34
ENDBRANCH 17 30
ENDBRANCH 16 20
ENDBRANCH 1 16
TORSDOF 8
ENDMDL
MODEL 42
REMARK VINA RESULT:      -0.1     70.171     74.720
ROOT
ATOM      1  C1  BGC C   1      19.316  67.039  64.3920  0.00  0.00     0.000 C
ATOM      2  C2  BGC C   1      18.476  67.433  65.6070  0.00  0.00     0.000 C
ATOM      3  C3  BGC C   1      17.177  68.089  65.1530  0.00  0.00     0.000 C
ATOM      4  C4  BGC C   1      17.416  69.202  64.1470  0.00  0.00     0.000 C
ATOM      5  C5  BGC C   1      18.392  68.739  63.0690  0.00  0.00     0.000 C
ATOM      6  O5  BGC C   1      19.534  68.122  63.5720  0.00  0.00     0.000 O
ATOM      7   O  BGC C   1      18.203  66.257  66.3310  0.00  0.00     0.000 O
ATOM      9  HD  BGC C   1      18.150  67.068  66.6290  0.00  0.00     0.000 HD
ATOM      9   O  BGC C   1      16.486  68.558  66.3180  0.00  0.00     0.000 O
ATOM     11  HD  BGC C   1      16.432  69.369  66.6170  0.00  0.00     0.000 HD
ATOM     11   O  BGC C   1      16.150  69.528  63.5860  0.00  0.00     0.000 O
ATOM     13  HD  BGC C   1      16.096  70.340  63.8840  0.00  0.00     0.000 HD
ATOM     13   O  BGC C   1      19.640  70.879  63.0330  0.00  0.00     0.000 O
ATOM     15  HD  BGC C   1      19.586  71.690  63.3310  0.00  0.00     0.000 HD
ATOM     15   C  BGC C   1      18.819  69.970  62.2480  0.00  0.00     0.000 C
ENDROOT
BRANCH 1 16
ATOM     16  O4  BGC C   2      20.577  66.601  64.8390  0.00  0.00     0.000 O
BRANCH 16 20
ATOM     17  C1  BGC C   2      23.434  63.919  63.6900  0.00  0.00     0.000 C
ATOM     18  C2  BGC C   2      23.465  65.266  62.9860  0.00  0.00     0.000 C
ATOM     19  C3  BGC C   2      22.617  66.286  63.7330  0.00  0.00     0.000 C
ATOM     20  C4  BGC C   2      21.256  65.724  63.9720  0.00  0.00     0.000 C
ATOM     21  C5  BGC C   2      21.338  64.341  64.6100  0.00  0.00     0.000 C
ATOM     22  O5  BGC C   2      22.114  63.479  63.8340  0.00  0.00     0.000 O
ATOM     23   O  BGC C   2      24.827  65.713  62.9000  0.00  0.00     0.000 O
ATOM     25  HD  BGC C   2      24.871  66.564  63.0560  0.00  0.00     0.000 HD
ATOM     25   O  BGC C   2      22.519  67.472  62.9540  0.00  0.00     0.000 O
ATOM     27  HD  BGC C   2      22.563  68.323  63.1100  0.00  0.00     0.000 HD
ATOM     27   C  BGC C   2      19.975  63.671  64.8780  0.00  0.00     0.000 C
ATOM     28   O  BGC C   2      19.179  63.614  63.6830  0.00  0.00     0.000 O
ATOM     30  HD  BGC C   2      19.223  64.465  63.8390  0.00  0.00     0.000 HD
BRANCH 17 30
ATOM     30  O4  BGC C   3      24.142  62.973  62.9170  0.00  0.00     0.000 O
BRANCH 30 34
ATOM     31  C1  BGC C   3      26.591  59.785  63.3340  0.00  0.00     0.000 C
ATOM     32  C2  BGC C   3      25.076  59.485  63.4330  0.00  0.00     0.000 C
ATOM     33  C3  BGC C   3      24.266  60.629  62.9290  0.00  0.00     0.000 C
ATOM     34  C4  BGC C   3      24.742  61.903  63.6310  0.00  0.00     0.000 C
ATOM     35  C5  BGC C   3      26.281  62.091  63.6100  0.00  0.00     0.000 C
ATOM     36  O5  BGC C   3      26.917  60.930  64.0830  0.00  0.00     0.000 O
ATOM     37   O  BGC C   3      24.577  58.326  62.7920  0.00  0.00     0.000 O
ATOM     39  HD  BGC C   3      24.434  59.156  62.9920  0.00  0.00     0.000 HD
ATOM     39   O  BGC C   3      22.849  60.390  63.1760  0.00  0.00     0.000 O
ATOM     41  HD  BGC C   3      22.706  61.220  63.3760  0.00  0.00     0.000 HD
ATOM     41   C  BGC C   3      26.809  63.267  64.4640  0.00  0.00     0.000 C
ATOM     42   O  BGC C   3      26.582  63.142  65.9130  0.00  0.00     0.000 O
ATOM     44  HD  BGC C   3      26.438  63.972  66.1140  0.00  0.00     0.000 HD
BRANCH 31 44
ATOM     44  O4  BGC C   4      27.342  58.715  63.8040  0.00  0.00     0.000 O
BRANCH 44 48
ATOM     45  C1  BGC C   4      30.732  56.498  63.2110  0.00  0.00     0.000 C
ATOM     46  C2  BGC C   4      31.072  57.926  63.7440  0.00  0.00     0.000 C
ATOM     47  C3  BGC C   4      29.694  58.440  64.1780  0.00  0.00     0.000 C
ATOM     48  C4  BGC C   4      28.545  58.356  63.1920  0.00  0.00     0.000 C
ATOM     49  C5  BGC C   4      28.416  56.872  62.8110  0.00  0.00     0.000 C
ATOM     50  O5  BGC C   4      29.613  56.379  62.3180  0.00  0.00     0.000 O
ATOM     51   O  BGC C   4      32.048  58.174  64.9090  0.00  0.00     0.000 O
ATOM     53  HD  BGC C   4      32.039  59.003  65.1590  0.00  0.00     0.000 HD
ATOM     53   O  BGC C   4      29.989  59.912  64.2770  0.00  0.00     0.000 O
ATOM     55  HD  BGC C   4      29.980  60.741  64.5280  0.00  0.00     0.000 HD
ATOM     55   C  BGC C   4      27.412  56.675  61.7050  0.00  0.00     0.000 C
ATOM     56   O  BGC C   4      27.653  57.423  60.5080  0.00  0.00     0.000 O
ATOM     58  HD  BGC C   4      27.644  58.252  60.7580  0.00  0.00     0.000 HD
BRANCH 45 58
ATOM     58  O4  BGC C   5      31.807  55.918  62.5330  0.00  0.00     0.000 O
BRANCH 58 62
ATOM     59  C1  BGC C   5      33.881  54.983  64.5760  0.00  0.00     0.000 C
ATOM     60  C2  BGC C   5      34.391  54.607  63.2750  0.00  0.00     0.000 C
ATOM     61  C3  BGC C   5      33.341  53.975  62.3650  0.00  0.00     0.000 C
ATOM     62  C4  BGC C   5      31.967  54.496  62.7610  0.00  0.00     0.000 C
ATOM     63  C5  BGC C   5      31.884  54.440  64.2690  0.00  0.00     0.000 C
ATOM     64  O5  BGC C   5      33.093  54.273  65.0070  0.00  0.00     0.000 O
ATOM     65   O  BGC C   5      31.309  52.097  64.3810  0.00  0.00     0.000 O
ATOM     67  HD  BGC C   5      31.022  52.914  64.3580  0.00  0.00     0.000 HD
ATOM     67   O  BGC C   5      31.309  52.097  64.3810  0.00  0.00     0.000 O
ATOM     69  HD  BGC C   5      31.022  52.914  64.3580  0.00  0.00     0.000 HD
ENDBRANCH 58 62
ENDBRANCH 45 58
ENDBRANCH 44 48
ENDBRANCH 31 44
ENDBRANCH 30 34
ENDBRANCH 17 30
ENDBRANCH 16 20
ENDBRANCH 1 16
TORSDOF 8
ENDMDL
MODEL 43
REMARK VINA RESULT:      -0.1     42.245     52.414
ROOT
ATOM      1  C1  BGC C   1      37.573  21.961  44.4300  0.00  0.00     0.000 C
ATOM      2  C2  BGC C   1      37.348  20.667  43.6490  0.00  0.00     0.000 C
ATOM      3  C3  BGC C   1      36.291  20.884  42.5720  0.00  0.00     0.000 C
ATOM      4  C4  BGC C   1      35.032  21.530  43.1250  0.00  0.00     0.000 C
ATOM      5  C5  BGC C   1      35.394  22.716  44.0140  0.00  0.00     0.000 C
ATOM      6  O5  BGC C   1      36.390  22.437  44.9460  0.00  0.00     0.000 O
ATOM      7   O  BGC C   1      38.577  20.308  43.0620  0.00  0.00     0.000 O
ATOM      9  HD  BGC C   1      37.897  19.787  43.1910  0.00  0.00     0.000 HD
ATOM      9   O  BGC C   1      36.019  19.618  41.9550  0.00  0.00     0.000 O
ATOM     11  HD  BGC C   1      35.339  19.097  42.0840  0.00  0.00     0.000 HD
ATOM     11   O  BGC C   1      34.257  21.946  42.0060  0.00  0.00     0.000 O
ATOM     13  HD  BGC C   1      33.578  21.425  42.1350  0.00  0.00     0.000 HD
ATOM     13   O  BGC C   1      33.709  22.158  45.7430  0.00  0.00     0.000 O
ATOM     15  HD  BGC C   1      33.030  21.637  45.8720  0.00  0.00     0.000 HD
ATOM     15   C  BGC C   1      34.125  23.155  44.7680  0.00  0.00     0.000 C
ENDROOT
BRANCH 1 16
ATOM     16  O4  BGC C   2      38.418  21.686  45.5220  0.00  0.00     0.000 O
BRANCH 16 20
ATOM     17  C1  BGC C   2      41.278  23.622  47.7020  0.00  0.00     0.000 C
ATOM     18  C2  BGC C   2      39.837  23.907  48.0950  0.00  0.00     0.000 C
ATOM     19  C3  BGC C   2      38.897  22.879  47.4810  0.00  0.00     0.000 C
ATOM     20  C4  BGC C   2      39.150  22.784  46.0140  0.00  0.00     0.000 C
ATOM     21  C5  BGC C   2      40.633  22.575  45.7250  0.00  0.00     0.000 C
ATOM     22  O5  BGC C   2      41.402  23.584  46.3090  0.00  0.00     0.000 O
ATOM     23   O  BGC C   2      39.735  23.888  49.5260  0.00  0.00     0.000 O
ATOM     25  HD  BGC C   2      39.002  23.494  49.7670  0.00  0.00     0.000 HD
ATOM     25   O  BGC C   2      37.552  23.279  47.7130  0.00  0.00     0.000 O
ATOM     27  HD  BGC C   2      36.819  22.884  47.9530  0.00  0.00     0.000 HD
ATOM     27   C  BGC C   2      40.994  22.485  44.2280  0.00  0.00     0.000 C
ATOM     28   O  BGC C   2      40.509  23.628  43.5060  0.00  0.00     0.000 O
ATOM     30  HD  BGC C   2      39.776  23.233  43.7460  0.00  0.00     0.000 HD
BRANCH 17 30
ATOM     30  O4  BGC C   3      42.108  24.650  48.1990  0.00  0.00     0.000 O
BRANCH 30 34
ATOM     31  C1  BGC C   3      45.784  25.225  49.7770  0.00  0.00     0.000 C
ATOM     32  C2  BGC C   3      45.716  25.186  48.2320  0.00  0.00     0.000 C
ATOM     33  C3  BGC C   3      44.313  25.320  47.7510  0.00  0.00     0.000 C
ATOM     34  C4  BGC C   3      43.451  24.289  48.4840  0.00  0.00     0.000 C
ATOM     35  C5  BGC C   3      43.651  24.287  50.0210  0.00  0.00     0.000 C
ATOM     36  O5  BGC C   3      45.018  24.184  50.3310  0.00  0.00     0.000 O
ATOM     37   O  BGC C   3      46.483  26.125  47.5010  0.00  0.00     0.000 O
ATOM     39  HD  BGC C   3      45.736  25.689  47.5530  0.00  0.00     0.000 HD
ATOM     39   O  BGC C   3      44.255  25.124  46.3070  0.00  0.00     0.000 O
ATOM     41  HD  BGC C   3      43.508  24.688  46.3590  0.00  0.00     0.000 HD
ATOM     41   C  BGC C   3      42.936  23.141  50.7740  0.00  0.00     0.000 C
ATOM     42   O  BGC C   3      43.409  21.785  50.4470  0.00  0.00     0.000 O
ATOM     44  HD  BGC C   3      42.662  21.350  50.4990  0.00  0.00     0.000 HD
BRANCH 31 44
ATOM     44  O4  BGC C   4      47.094  25.102  50.2220  0.00  0.00     0.000 O
BRANCH 44 48
ATOM     45  C1  BGC C   4      49.815  26.382  53.0000  0.00  0.00     0.000 C
ATOM     46  C2  BGC C   4      48.729  25.465  53.6480  0.00  0.00     0.000 C
ATOM     47  C3  BGC C   4      48.036  24.872  52.4140  0.00  0.00     0.000 C
ATOM     48  C4  BGC C   4      47.549  25.817  51.3320  0.00  0.00     0.000 C
ATOM     49  C5  BGC C   4      48.782  26.607  50.8680  0.00  0.00     0.000 C
ATOM     50  O5  BGC C   4      49.394  27.247  51.9330  0.00  0.00     0.000 O
ATOM     51   O  BGC C   4      49.072  24.300  54.5930  0.00  0.00     0.000 O
ATOM     53  HD  BGC C   4      48.373  23.820  54.7720  0.00  0.00     0.000 HD
ATOM     53   O  BGC C   4      46.774  24.358  53.0520  0.00  0.00     0.000 O
ATOM     55  HD  BGC C   4      46.076  23.878  53.2310  0.00  0.00     0.000 HD
ATOM     55   C  BGC C   4      48.402  27.701  49.9040  0.00  0.00     0.000 C
ATOM     56   O  BGC C   4      47.427  28.636  50.3810  0.00  0.00     0.000 O
ATOM     58  HD  BGC C   4      46.728  28.156  50.5600  0.00  0.00     0.000 HD
BRANCH 45 58
ATOM     58  O4  BGC C   5      50.424  27.221  53.9360  0.00  0.00     0.000 O
BRANCH 58 62
ATOM     59  C1  BGC C   5      52.385  25.580  55.6130  0.00  0.00     0.000 C
ATOM     60  C2  BGC C   5      52.487  26.944  56.0830  0.00  0.00     0.000 C
ATOM     61  C3  BGC C   5      52.553  27.976  54.9610  0.00  0.00     0.000 C
ATOM     62  C4  BGC C   5      51.845  27.417  53.7350  0.00  0.00     0.000 C
ATOM     63  C5  BGC C   5      52.306  25.989  53.5630  0.00  0.00     0.000 C
ATOM     64  O5  BGC C   5      52.970  25.356  54.6550  0.00  0.00     0.000 O
ATOM     65   O  BGC C   5      54.367  26.548  52.4320  0.00  0.00     0.000 O
ATOM     67  HD  BGC C   5      53.533  26.327  52.3530  0.00  0.00     0.000 HD
ATOM     67   O  BGC C   5      54.367  26.548  52.4320  0.00  0.00     0.000 O
ATOM     69  HD  BGC C   5      53.533  26.327  52.3530  0.00  0.00     0.000 HD
ENDBRANCH 58 62
ENDBRANCH 45 58
ENDBRANCH 44 48
ENDBRANCH 31 44
ENDBRANCH 30 34
ENDBRANCH 17 30
ENDBRANCH 16 20
ENDBRANCH 1 16
TORSDOF 8
ENDMDL
MODEL 44
REMARK VINA RESULT:      -0.1     20.798     30.970
ROOT
ATOM      1  C1  BGC C   1      15.793   7.992  31.0370  0.00  0.00     0.000 C
ATOM      2  C2  BGC C   1      16.134   7.570  29.6080  0.00  0.00     0.000 C
ATOM      3  C3  BGC C   1      15.115   8.153  28.6350  0.00  0.00     0.000 C
ATOM      4  C4  BGC C   1      13.685   7.874  29.0650  0.00  0.00     0.000 C
ATOM      5  C5  BGC C   1      13.509   8.187  30.5480  0.00  0.00     0.000 C
ATOM      6  O5  BGC C   1      14.501   7.643  31.3590  0.00  0.00     0.000 O
ATOM      7   O  BGC C   1      17.422   8.059  29.3190  0.00  0.00     0.000 O
ATOM      9  HD  BGC C   1      17.005   7.428  28.8970  0.00  0.00     0.000 HD
ATOM      9   O  BGC C   1      15.395   7.628  27.3300  0.00  0.00     0.000 O
ATOM     11  HD  BGC C   1      14.979   6.996  26.9090  0.00  0.00     0.000 HD
ATOM     11   O  BGC C   1      12.846   8.701  28.2650  0.00  0.00     0.000 O
ATOM     13  HD  BGC C   1      12.429   8.069  27.8430  0.00  0.00     0.000 HD
ATOM     13   O  BGC C   1      12.134   6.174  30.9890  0.00  0.00     0.000 O
ATOM     15  HD  BGC C   1      11.717   5.542  30.5670  0.00  0.00     0.000 HD
ATOM     15   C  BGC C   1      12.146   7.628  30.9980  0.00  0.00     0.000 C
ENDROOT
BRANCH 1 16
ATOM     16  O4  BGC C   2      16.640   7.300  31.9240  0.00  0.00     0.000 O
BRANCH 16 20
ATOM     17  C1  BGC C   2      18.406   7.944  35.5490  0.00  0.00     0.000 C
ATOM     18  C2  BGC C   2      16.959   7.477  35.5880  0.00  0.00     0.000 C
ATOM     19  C3  BGC C   2      16.533   6.928  34.2340  0.00  0.00     0.000 C
ATOM     20  C4  BGC C   2      16.851   7.922  33.1690  0.00  0.00     0.000 C
ATOM     21  C5  BGC C   2      18.303   8.383  33.2650  0.00  0.00     0.000 C
ATOM     22  O5  BGC C   2      18.581   8.892  34.5350  0.00  0.00     0.000 O
ATOM     23   O  BGC C   2      16.825   6.470  36.6030  0.00  0.00     0.000 O
ATOM     25  HD  BGC C   2      16.305   5.836  36.3250  0.00  0.00     0.000 HD
ATOM     25   O  BGC C   2      15.133   6.674  34.2530  0.00  0.00     0.000 O
ATOM     27  HD  BGC C   2      14.613   6.039  33.9750  0.00  0.00     0.000 HD
ATOM     27   C  BGC C   2      18.720   9.430  32.2120  0.00  0.00     0.000 C
ATOM     28   O  BGC C   2      17.841  10.566  32.2320  0.00  0.00     0.000 O
ATOM     30  HD  BGC C   2      17.321   9.932  31.9540  0.00  0.00     0.000 HD
BRANCH 17 30
ATOM     30  O4  BGC C   3      18.735   8.542  36.7850  0.00  0.00     0.000 O
BRANCH 30 34
ATOM     31  C1  BGC C   3      21.815   8.885  39.3800  0.00  0.00     0.000 C
ATOM     32  C2  BGC C   3      21.821   9.881  38.1970  0.00  0.00     0.000 C
ATOM     33  C3  BGC C   3      20.499   9.911  37.5110  0.00  0.00     0.000 C
ATOM     34  C4  BGC C   3      20.100   8.473  37.1710  0.00  0.00     0.000 C
ATOM     35  C5  BGC C   3      20.231   7.490  38.3620  0.00  0.00     0.000 C
ATOM     36  O5  BGC C   3      21.513   7.587  38.9310  0.00  0.00     0.000 O
ATOM     37   O  BGC C   3      22.170  11.229  38.4540  0.00  0.00     0.000 O
ATOM     39  HD  BGC C   3      21.660  10.690  38.0080  0.00  0.00     0.000 HD
ATOM     39   O  BGC C   3      20.574  10.734  36.3090  0.00  0.00     0.000 O
ATOM     41  HD  BGC C   3      20.063  10.196  35.8630  0.00  0.00     0.000 HD
ATOM     41   C  BGC C   3      20.012   6.000  38.0100  0.00  0.00     0.000 C
ATOM     42   O  BGC C   3      21.001   5.422  37.0840  0.00  0.00     0.000 O
ATOM     44  HD  BGC C   3      20.491   4.884  36.6380  0.00  0.00     0.000 HD
BRANCH 31 44
ATOM     44  O4  BGC C   4      23.048   8.862  40.0180  0.00  0.00     0.000 O
BRANCH 44 48
ATOM     45  C1  BGC C   4      24.929   8.615  43.6460  0.00  0.00     0.000 C
ATOM     46  C2  BGC C   4      24.282   7.250  43.2470  0.00  0.00     0.000 C
ATOM     47  C3  BGC C   4      23.928   7.486  41.7730  0.00  0.00     0.000 C
ATOM     48  C4  BGC C   4      23.140   8.728  41.4060  0.00  0.00     0.000 C
ATOM     49  C5  BGC C   4      23.966   9.923  41.9070  0.00  0.00     0.000 C
ATOM     50  O5  BGC C   4      24.233   9.810  43.2610  0.00  0.00     0.000 O
ATOM     51   O  BGC C   4      25.032   5.909  43.3360  0.00  0.00     0.000 O
ATOM     53  HD  BGC C   4      24.580   5.267  42.9710  0.00  0.00     0.000 HD
ATOM     53   O  BGC C   4      22.959   6.355  41.5590  0.00  0.00     0.000 O
ATOM     55  HD  BGC C   4      22.506   5.713  41.1940  0.00  0.00     0.000 HD
ATOM     55   C  BGC C   4      23.211  11.217  41.7490  0.00  0.00     0.000 C
ATOM     56   O  BGC C   4      21.927  11.266  42.3820  0.00  0.00     0.000 O
ATOM     58  HD  BGC C   4      21.474  10.624  42.0170  0.00  0.00     0.000 HD
BRANCH 45 58
ATOM     58  O4  BGC C   5      25.118   8.726  45.0250  0.00  0.00     0.000 O
BRANCH 58 62
ATOM     59  C1  BGC C   5      27.515   7.011  45.8420  0.00  0.00     0.000 C
ATOM     60  C2  BGC C   5      27.044   7.656  47.0480  0.00  0.00     0.000 C
ATOM     61  C3  BGC C   5      26.728   9.139  46.8670  0.00  0.00     0.000 C
ATOM     62  C4  BGC C   5      26.346   9.388  45.4150  0.00  0.00     0.000 C
ATOM     63  C5  BGC C   5      27.348   8.653  44.5550  0.00  0.00     0.000 C
ATOM     64  O5  BGC C   5      28.173   7.666  45.1710  0.00  0.00     0.000 O
ATOM     65   O  BGC C   5      29.047  10.367  44.6680  0.00  0.00     0.000 O
ATOM     67  HD  BGC C   5      28.376  10.039  44.2300  0.00  0.00     0.000 HD
ATOM     67   O  BGC C   5      29.047  10.367  44.6680  0.00  0.00     0.000 O
ATOM     69  HD  BGC C   5      28.376  10.039  44.2300  0.00  0.00     0.000 HD
ENDBRANCH 58 62
ENDBRANCH 45 58
ENDBRANCH 44 48
ENDBRANCH 31 44
ENDBRANCH 30 34
ENDBRANCH 17 30
ENDBRANCH 16 20
ENDBRANCH 1 16
TORSDOF 8
ENDMDL
MODEL 45
REMARK VINA RESULT:      -0.1     27.832     31.153
ROOT
ATOM      1  C1  BGC C   1      16.971  10.387  43.0070  0.00  0.00     0.000 C
ATOM      2  C2  BGC C   1      15.460  10.401  42.7760  0.00  0.00     0.000 C
ATOM      3  C3  BGC C   1      14.729  10.146  44.0890  0.00  0.00     0.000 C
ATOM      4  C4  BGC C   1      15.259   8.920  44.8130  0.00  0.00     0.000 C
ATOM      5  C5  BGC C   1      16.784   8.943  44.8430  0.00  0.00     0.000 C
ATOM      6  O5  BGC C   1      17.367   9.214  43.6080  0.00  0.00     0.000 O
ATOM      7   O  BGC C   1      15.122  11.669  42.2650  0.00  0.00     0.000 O
ATOM      9  HD  BGC C   1      14.642  10.949  42.2140  0.00  0.00     0.000 HD
ATOM      9   O  BGC C   1      13.328  10.038  43.8040  0.00  0.00     0.000 O
ATOM     11  HD  BGC C   1      12.848   9.318  43.7520  0.00  0.00     0.000 HD
ATOM     11   O  BGC C   1      14.720   8.956  46.1310  0.00  0.00     0.000 O
ATOM     13  HD  BGC C   1      14.241   8.237  46.0790  0.00  0.00     0.000 HD
ATOM     13   O  BGC C   1      17.003   6.526  44.3440  0.00  0.00     0.000 O
ATOM     15  HD  BGC C   1      16.523   5.807  44.2920  0.00  0.00     0.000 HD
ATOM     15   C  BGC C   1      17.275   7.565  45.3250  0.00  0.00     0.000 C
ENDROOT
BRANCH 1 16
ATOM     16  O4  BGC C   2      17.617  10.447  41.7570  0.00  0.00     0.000 O
BRANCH 16 20
ATOM     17  C1  BGC C   2      21.079  11.962  40.2080  0.00  0.00     0.000 C
ATOM     18  C2  BGC C   2      21.194  10.611  40.8960  0.00  0.00     0.000 C
ATOM     19  C3  BGC C   2      19.819   9.991  41.1010  0.00  0.00     0.000 C
ATOM     20  C4  BGC C   2      18.923  10.974  41.7760  0.00  0.00     0.000 C
ATOM     21  C5  BGC C   2      18.938  12.317  41.0520  0.00  0.00     0.000 C
ATOM     22  O5  BGC C   2      20.240  12.809  40.9410  0.00  0.00     0.000 O
ATOM     23   O  BGC C   2      22.018   9.752  40.0940  0.00  0.00     0.000 O
ATOM     25  HD  BGC C   2      21.689   8.951  40.0840  0.00  0.00     0.000 HD
ATOM     25   O  BGC C   2      19.948   8.825  41.9060  0.00  0.00     0.000 O
ATOM     27  HD  BGC C   2      19.619   8.024  41.8950  0.00  0.00     0.000 HD
ATOM     27   C  BGC C   2      18.053  13.406  41.6910  0.00  0.00     0.000 C
ATOM     28   O  BGC C   2      18.376  13.592  43.0790  0.00  0.00     0.000 O
ATOM     30  HD  BGC C   2      18.047  12.790  43.0680  0.00  0.00     0.000 HD
BRANCH 17 30
ATOM     30  O4  BGC C   3      22.358  12.555  40.1290  0.00  0.00     0.000 O
BRANCH 30 34
ATOM     31  C1  BGC C   3      24.612  14.833  37.6660  0.00  0.00     0.000 C
ATOM     32  C2  BGC C   3      23.635  15.604  38.5860  0.00  0.00     0.000 C
ATOM     33  C3  BGC C   3      23.118  14.730  39.6750  0.00  0.00     0.000 C
ATOM     34  C4  BGC C   3      22.570  13.447  39.0450  0.00  0.00     0.000 C
ATOM     35  C5  BGC C   3      23.541  12.782  38.0360  0.00  0.00     0.000 C
ATOM     36  O5  BGC C   3      23.970  13.724  37.0860  0.00  0.00     0.000 O
ATOM     37   O  BGC C   3      24.092  16.791  39.2060  0.00  0.00     0.000 O
ATOM     39  HD  BGC C   3      23.615  16.073  39.2890  0.00  0.00     0.000 HD
ATOM     39   O  BGC C   3      22.085  15.427  40.4330  0.00  0.00     0.000 O
ATOM     41  HD  BGC C   3      21.608  14.708  40.5160  0.00  0.00     0.000 HD
ATOM     41   C  BGC C   3      22.951  11.590  37.2470  0.00  0.00     0.000 C
ATOM     42   O  BGC C   3      21.831  11.924  36.3500  0.00  0.00     0.000 O
ATOM     44  HD  BGC C   3      21.355  11.206  36.4330  0.00  0.00     0.000 HD
BRANCH 31 44
ATOM     44  O4  BGC C   4      25.093  15.652  36.6530  0.00  0.00     0.000 O
BRANCH 44 48
ATOM     45  C1  BGC C   4      28.382  16.617  34.4150  0.00  0.00     0.000 C
ATOM     46  C2  BGC C   4      27.817  15.214  34.0210  0.00  0.00     0.000 C
ATOM     47  C3  BGC C   4      26.459  15.207  34.7340  0.00  0.00     0.000 C
ATOM     48  C4  BGC C   4      26.414  15.551  36.2100  0.00  0.00     0.000 C
ATOM     49  C5  BGC C   4      27.028  16.954  36.3420  0.00  0.00     0.000 C
ATOM     50  O5  BGC C   4      28.301  16.993  35.7980  0.00  0.00     0.000 O
ATOM     51   O  BGC C   4      27.578  14.787  32.5610  0.00  0.00     0.000 O
ATOM     53  HD  BGC C   4      27.155  14.033  32.5170  0.00  0.00     0.000 HD
ATOM     53   O  BGC C   4      26.154  13.735  34.6880  0.00  0.00     0.000 O
ATOM     55  HD  BGC C   4      25.731  12.980  34.6430  0.00  0.00     0.000 HD
ATOM     55   C  BGC C   4      27.193  17.348  37.7870  0.00  0.00     0.000 C
ATOM     56   O  BGC C   4      27.963  16.447  38.5900  0.00  0.00     0.000 O
ATOM     58  HD  BGC C   4      27.541  15.692  38.5460  0.00  0.00     0.000 HD
BRANCH 45 58
ATOM     58  O4  BGC C   5      29.729  16.757  34.0730  0.00  0.00     0.000 O
BRANCH 58 62
ATOM     59  C1  BGC C   5      29.948  17.188  31.0530  0.00  0.00     0.000 C
ATOM     60  C2  BGC C   5      31.296  17.252  31.5740  0.00  0.00     0.000 C
ATOM     61  C3  BGC C   5      31.423  18.090  32.8440  0.00  0.00     0.000 C
ATOM     62  C4  BGC C   5      30.092  18.071  33.5820  0.00  0.00     0.000 C
ATOM     63  C5  BGC C   5      29.007  18.300  32.5550  0.00  0.00     0.000 C
ATOM     64  O5  BGC C   5      29.337  18.149  31.1760  0.00  0.00     0.000 O
ATOM     65   O  BGC C   5      29.237  20.704  32.5090  0.00  0.00     0.000 O
ATOM     67  HD  BGC C   5      28.825  20.021  32.8470  0.00  0.00     0.000 HD
ATOM     67   O  BGC C   5      29.237  20.704  32.5090  0.00  0.00     0.000 O
ATOM     69  HD  BGC C   5      28.825  20.021  32.8470  0.00  0.00     0.000 HD
ENDBRANCH 58 62
ENDBRANCH 45 58
ENDBRANCH 44 48
ENDBRANCH 31 44
ENDBRANCH 30 34
ENDBRANCH 17 30
ENDBRANCH 16 20
ENDBRANCH 1 16
TORSDOF 8
ENDMDL
MODEL 46
REMARK VINA RESULT:      -0.1     81.246     83.263
ROOT
ATOM      1  C1  BGC C   1      49.831  56.936  70.1010  0.00  0.00     0.000 C
ATOM      2  C2  BGC C   1      49.872  58.262  70.8600  0.00  0.00     0.000 C
ATOM      3  C3  BGC C   1      48.456  58.779  71.0850  0.00  0.00     0.000 C
ATOM      4  C4  BGC C   1      47.640  58.795  69.8030  0.00  0.00     0.000 C
ATOM      5  C5  BGC C   1      47.803  57.474  69.0570  0.00  0.00     0.000 C
ATOM      6  O5  BGC C   1      49.127  57.062  68.9260  0.00  0.00     0.000 O
ATOM      7   O  BGC C   1      50.507  58.024  72.0930  0.00  0.00     0.000 O
ATOM      9  HD  BGC C   1      50.398  58.793  71.7120  0.00  0.00     0.000 HD
ATOM      9   O  BGC C   1      48.547  60.080  71.6800  0.00  0.00     0.000 O
ATOM     11  HD  BGC C   1      48.437  60.850  71.2980  0.00  0.00     0.000 HD
ATOM     11   O  BGC C   1      46.284  59.004  70.1820  0.00  0.00     0.000 O
ATOM     13  HD  BGC C   1      46.174  59.774  69.8000  0.00  0.00     0.000 HD
ATOM     13   O  BGC C   1      47.986  58.553  66.8340  0.00  0.00     0.000 O
ATOM     15  HD  BGC C   1      47.877  59.322  66.4520  0.00  0.00     0.000 HD
ATOM     15   C  BGC C   1      47.200  57.641  67.6500  0.00  0.00     0.000 C
ENDROOT
BRANCH 1 16
ATOM     16  O4  BGC C   2      51.148  56.575  69.7550  0.00  0.00     0.000 O
BRANCH 16 20
ATOM     17  C1  BGC C   2      53.310  53.151  69.2290  0.00  0.00     0.000 C
ATOM     18  C2  BGC C   2      52.461  53.589  68.0460  0.00  0.00     0.000 C
ATOM     19  C3  BGC C   2      52.003  55.031  68.2150  0.00  0.00     0.000 C
ATOM     20  C4  BGC C   2      51.365  55.199  69.5530  0.00  0.00     0.000 C
ATOM     21  C5  BGC C   2      52.264  54.659  70.6610  0.00  0.00     0.000 C
ATOM     22  O5  BGC C   2      52.603  53.326  70.4240  0.00  0.00     0.000 O
ATOM     23   O  BGC C   2      53.233  53.446  66.8440  0.00  0.00     0.000 O
ATOM     25  HD  BGC C   2      53.091  54.119  66.3180  0.00  0.00     0.000 HD
ATOM     25   O  BGC C   2      51.067  55.347  67.1920  0.00  0.00     0.000 O
ATOM     27  HD  BGC C   2      50.925  56.020  66.6660  0.00  0.00     0.000 HD
ATOM     27   C  BGC C   2      51.677  54.772  72.0830  0.00  0.00     0.000 C
ATOM     28   O  BGC C   2      50.379  54.160  72.1610  0.00  0.00     0.000 O
ATOM     30  HD  BGC C   2      50.238  54.833  71.6350  0.00  0.00     0.000 HD
BRANCH 17 30
ATOM     30  O4  BGC C   3      53.629  51.783  69.0920  0.00  0.00     0.000 O
BRANCH 30 34
ATOM     31  C1  BGC C   3      56.645  49.181  69.7790  0.00  0.00     0.000 C
ATOM     32  C2  BGC C   3      55.727  49.478  70.9880  0.00  0.00     0.000 C
ATOM     33  C3  BGC C   3      54.471  50.153  70.5580  0.00  0.00     0.000 C
ATOM     34  C4  BGC C   3      54.844  51.358  69.6910  0.00  0.00     0.000 C
ATOM     35  C5  BGC C   3      55.864  51.032  68.5710  0.00  0.00     0.000 C
ATOM     36  O5  BGC C   3      56.982  50.373  69.1120  0.00  0.00     0.000 O
ATOM     37   O  BGC C   3      55.338  48.398  71.8170  0.00  0.00     0.000 O
ATOM     39  HD  BGC C   3      55.098  49.142  71.4430  0.00  0.00     0.000 HD
ATOM     39   O  BGC C   3      53.694  50.562  71.7220  0.00  0.00     0.000 O
ATOM     41  HD  BGC C   3      53.454  51.305  71.3480  0.00  0.00     0.000 HD
ATOM     41   C  BGC C   3      56.401  52.256  67.7950  0.00  0.00     0.000 C
ATOM     42   O  BGC C   3      57.189  53.210  68.5950  0.00  0.00     0.000 O
ATOM     44  HD  BGC C   3      56.949  53.953  68.2210  0.00  0.00     0.000 HD
BRANCH 31 44
ATOM     44  O4  BGC C   4      57.814  48.550  70.1840  0.00  0.00     0.000 O
BRANCH 44 48
ATOM     45  C1  BGC C   4      60.556  45.664  69.2300  0.00  0.00     0.000 C
ATOM     46  C2  BGC C   4      60.679  46.900  68.2830  0.00  0.00     0.000 C
ATOM     47  C3  BGC C   4      59.808  47.939  69.0020  0.00  0.00     0.000 C
ATOM     48  C4  BGC C   4      58.400  47.548  69.4060  0.00  0.00     0.000 C
ATOM     49  C5  BGC C   4      58.541  46.316  70.3140  0.00  0.00     0.000 C
ATOM     50  O5  BGC C   4      59.239  45.305  69.6750  0.00  0.00     0.000 O
ATOM     51   O  BGC C   4      62.024  47.572  67.9520  0.00  0.00     0.000 O
ATOM     53  HD  BGC C   4      61.911  48.309  67.5110  0.00  0.00     0.000 HD
ATOM     53   O  BGC C   4      59.612  48.926  67.8840  0.00  0.00     0.000 O
ATOM     55  HD  BGC C   4      59.498  49.663  67.4430  0.00  0.00     0.000 HD
ATOM     55   C  BGC C   4      57.196  45.727  70.6540  0.00  0.00     0.000 C
ATOM     56   O  BGC C   4      56.378  45.365  69.5350  0.00  0.00     0.000 O
ATOM     58  HD  BGC C   4      56.265  46.102  69.0950  0.00  0.00     0.000 HD
BRANCH 45 58
ATOM     58  O4  BGC C   5      61.080  44.504  68.6540  0.00  0.00     0.000 O
BRANCH 58 62
ATOM     59  C1  BGC C   5      64.134  44.642  68.7410  0.00  0.00     0.000 C
ATOM     60  C2  BGC C   5      63.799  43.366  68.1480  0.00  0.00     0.000 C
ATOM     61  C3  BGC C   5      62.683  42.624  68.8790  0.00  0.00     0.000 C
ATOM     62  C4  BGC C   5      61.789  43.640  69.5750  0.00  0.00     0.000 C
ATOM     63  C5  BGC C   5      62.694  44.639  70.2600  0.00  0.00     0.000 C
ATOM     64  O5  BGC C   5      64.069  44.673  69.8840  0.00  0.00     0.000 O
ATOM     65   O  BGC C   5      63.101  43.278  72.2130  0.00  0.00     0.000 O
ATOM     67  HD  BGC C   5      62.623  43.903  71.8520  0.00  0.00     0.000 HD
ATOM     67   O  BGC C   5      63.101  43.278  72.2130  0.00  0.00     0.000 O
ATOM     69  HD  BGC C   5      62.623  43.903  71.8520  0.00  0.00     0.000 HD
ENDBRANCH 58 62
ENDBRANCH 45 58
ENDBRANCH 44 48
ENDBRANCH 31 44
ENDBRANCH 30 34
ENDBRANCH 17 30
ENDBRANCH 16 20
ENDBRANCH 1 16
TORSDOF 8
ENDMDL
MODEL 47
REMARK VINA RESULT:      -0.1     59.212     68.158
ROOT
ATOM      1  C1  BGC C   1      38.973  56.757  41.6490  0.00  0.00     0.000 C
ATOM      2  C2  BGC C   1      39.109  55.408  40.9430  0.00  0.00     0.000 C
ATOM      3  C3  BGC C   1      39.527  55.617  39.4930  0.00  0.00     0.000 C
ATOM      4  C4  BGC C   1      38.645  56.630  38.7810  0.00  0.00     0.000 C
ATOM      5  C5  BGC C   1      38.457  57.870  39.6510  0.00  0.00     0.000 C
ATOM      6  O5  BGC C   1      38.109  57.584  40.9690  0.00  0.00     0.000 O
ATOM      7   O  BGC C   1      40.089  54.668  41.6320  0.00  0.00     0.000 O
ATOM      9  HD  BGC C   1      39.490  54.351  41.0930  0.00  0.00     0.000 HD
ATOM      9   O  BGC C   1      39.514  54.341  38.8380  0.00  0.00     0.000 O
ATOM     11  HD  BGC C   1      38.915  54.025  38.2980  0.00  0.00     0.000 HD
ATOM     11   O  BGC C   1      39.298  56.957  37.5590  0.00  0.00     0.000 O
ATOM     13  HD  BGC C   1      38.699  56.640  37.0190  0.00  0.00     0.000 HD
ATOM     13   O  BGC C   1      36.045  58.085  39.1280  0.00  0.00     0.000 O
ATOM     15  HD  BGC C   1      35.446  57.768  38.5880  0.00  0.00     0.000 HD
ATOM     15   C  BGC C   1      37.345  58.731  39.0250  0.00  0.00     0.000 C
ENDROOT
BRANCH 1 16
ATOM     16  O4  BGC C   2      38.420  56.543  42.9260  0.00  0.00     0.000 O
BRANCH 16 20
ATOM     17  C1  BGC C   2      38.646  58.218  46.6430  0.00  0.00     0.000 C
ATOM     18  C2  BGC C   2      37.696  58.894  45.6660  0.00  0.00     0.000 C
ATOM     19  C3  BGC C   2      37.421  57.993  44.4710  0.00  0.00     0.000 C
ATOM     20  C4  BGC C   2      38.713  57.531  43.8860  0.00  0.00     0.000 C
ATOM     21  C5  BGC C   2      39.621  56.940  44.9600  0.00  0.00     0.000 C
ATOM     22  O5  BGC C   2      39.830  57.854  45.9940  0.00  0.00     0.000 O
ATOM     23   O  BGC C   2      36.474  59.208  46.3500  0.00  0.00     0.000 O
ATOM     25  HD  BGC C   2      35.796  59.047  45.8360  0.00  0.00     0.000 HD
ATOM     25   O  BGC C   2      36.685  58.722  43.4960  0.00  0.00     0.000 O
ATOM     27  HD  BGC C   2      36.007  58.562  42.9820  0.00  0.00     0.000 HD
ATOM     27   C  BGC C   2      40.992  56.451  44.4500  0.00  0.00     0.000 C
ATOM     28   O  BGC C   2      41.684  57.490  43.7380  0.00  0.00     0.000 O
ATOM     30  HD  BGC C   2      41.006  57.330  43.2240  0.00  0.00     0.000 HD
BRANCH 17 30
ATOM     30  O4  BGC C   3      38.962  59.118  47.6840  0.00  0.00     0.000 O
BRANCH 30 34
ATOM     31  C1  BGC C   3      39.672  59.189  51.6620  0.00  0.00     0.000 C
ATOM     32  C2  BGC C   3      40.885  58.833  50.7700  0.00  0.00     0.000 C
ATOM     33  C3  BGC C   3      40.622  59.169  49.3440  0.00  0.00     0.000 C
ATOM     34  C4  BGC C   3      39.287  58.538  48.9380  0.00  0.00     0.000 C
ATOM     35  C5  BGC C   3      38.133  58.823  49.9330  0.00  0.00     0.000 C
ATOM     36  O5  BGC C   3      38.527  58.488  51.2400  0.00  0.00     0.000 O
ATOM     37   O  BGC C   3      42.143  59.398  51.0900  0.00  0.00     0.000 O
ATOM     39  HD  BGC C   3      41.599  59.161  50.4590  0.00  0.00     0.000 HD
ATOM     39   O  BGC C   3      41.710  58.684  48.5030  0.00  0.00     0.000 O
ATOM     41  HD  BGC C   3      41.167  58.447  47.8710  0.00  0.00     0.000 HD
ATOM     41   C  BGC C   3      36.821  58.054  49.6530  0.00  0.00     0.000 C
ATOM     42   O  BGC C   3      36.914  56.590  49.7740  0.00  0.00     0.000 O
ATOM     44  HD  BGC C   3      36.371  56.353  49.1420  0.00  0.00     0.000 HD
BRANCH 31 44
ATOM     44  O4  BGC C   4      39.922  58.876  52.9920  0.00  0.00     0.000 O
BRANCH 44 48
ATOM     45  C1  BGC C   4      39.393  60.087  56.8660  0.00  0.00     0.000 C
ATOM     46  C2  BGC C   4      38.050  59.596  56.2350  0.00  0.00     0.000 C
ATOM     47  C3  BGC C   4      38.534  58.921  54.9460  0.00  0.00     0.000 C
ATOM     48  C4  BGC C   4      39.457  59.694  54.0250  0.00  0.00     0.000 C
ATOM     49  C5  BGC C   4      40.685  60.072  54.8690  0.00  0.00     0.000 C
ATOM     50  O5  BGC C   4      40.312  60.773  56.0030  0.00  0.00     0.000 O
ATOM     51   O  BGC C   4      37.100  58.615  56.9460  0.00  0.00     0.000 O
ATOM     53  HD  BGC C   4      36.464  58.353  56.4200  0.00  0.00     0.000 HD
ATOM     53   O  BGC C   4      37.234  58.849  54.1920  0.00  0.00     0.000 O
ATOM     55  HD  BGC C   4      36.598  58.587  53.6660  0.00  0.00     0.000 HD
ATOM     55   C  BGC C   4      41.610  60.989  54.1120  0.00  0.00     0.000 C
ATOM     56   O  BGC C   4      41.019  62.197  53.6190  0.00  0.00     0.000 O
ATOM     58  HD  BGC C   4      40.383  61.934  53.0930  0.00  0.00     0.000 HD
BRANCH 45 58
ATOM     58  O4  BGC C   5      39.184  60.951  57.9440  0.00  0.00     0.000 O
BRANCH 58 62
ATOM     59  C1  BGC C   5      38.297  59.316  60.3710  0.00  0.00     0.000 C
ATOM     60  C2  BGC C   5      38.374  60.692  60.8110  0.00  0.00     0.000 C
ATOM     61  C3  BGC C   5      39.632  61.417  60.3390  0.00  0.00     0.000 C
ATOM     62  C4  BGC C   5      40.111  60.779  59.0430  0.00  0.00     0.000 C
ATOM     63  C5  BGC C   5      40.051  59.281  59.2320  0.00  0.00     0.000 C
ATOM     64  O5  BGC C   5      39.301  58.767  60.3300  0.00  0.00     0.000 O
ATOM     65   O  BGC C   5      42.162  59.111  60.3940  0.00  0.00     0.000 O
ATOM     67  HD  BGC C   5      41.747  59.070  59.6360  0.00  0.00     0.000 HD
ATOM     67   O  BGC C   5      42.162  59.111  60.3940  0.00  0.00     0.000 O
ATOM     69  HD  BGC C   5      41.747  59.070  59.6360  0.00  0.00     0.000 HD
ENDBRANCH 58 62
ENDBRANCH 45 58
ENDBRANCH 44 48
ENDBRANCH 31 44
ENDBRANCH 30 34
ENDBRANCH 17 30
ENDBRANCH 16 20
ENDBRANCH 1 16
TORSDOF 8
ENDMDL
MODEL 48
REMARK VINA RESULT:      -0.1     71.247     78.355
ROOT
ATOM      1  C1  BGC C   1      17.706  60.749  64.1430  0.00  0.00     0.000 C
ATOM      2  C2  BGC C   1      17.284  59.898  62.9460  0.00  0.00     0.000 C
ATOM      3  C3  BGC C   1      15.771  59.955  62.7720  0.00  0.00     0.000 C
ATOM      4  C4  BGC C   1      15.032  59.659  64.0660  0.00  0.00     0.000 C
ATOM      5  C5  BGC C   1      15.644  60.451  65.2170  0.00  0.00     0.000 C
ATOM      6  O5  BGC C   1      17.032  60.368  65.2810  0.00  0.00     0.000 O
ATOM      7   O  BGC C   1      17.928  60.420  61.8080  0.00  0.00     0.000 O
ATOM      9  HD  BGC C   1      17.581  59.631  61.8850  0.00  0.00     0.000 HD
ATOM      9   O  BGC C   1      15.409  59.043  61.7260  0.00  0.00     0.000 O
ATOM     11  HD  BGC C   1      15.062  58.254  61.8030  0.00  0.00     0.000 HD
ATOM     11   O  BGC C   1      13.673  60.027  63.8570  0.00  0.00     0.000 O
ATOM     13  HD  BGC C   1      13.326  59.237  63.9340  0.00  0.00     0.000 HD
ATOM     13   O  BGC C   1      15.522  58.560  66.8140  0.00  0.00     0.000 O
ATOM     15  HD  BGC C   1      15.175  57.771  66.8910  0.00  0.00     0.000 HD
ATOM     15   C  BGC C   1      15.059  59.911  66.5350  0.00  0.00     0.000 C
ENDROOT
BRANCH 1 16
ATOM     16  O4  BGC C   2      19.077  60.538  64.3850  0.00  0.00     0.000 O
BRANCH 16 20
ATOM     17  C1  BGC C   2      22.264  62.658  65.8070  0.00  0.00     0.000 C
ATOM     18  C2  BGC C   2      21.352  62.045  66.8570  0.00  0.00     0.000 C
ATOM     19  C3  BGC C   2      20.438  60.999  66.2350  0.00  0.00     0.000 C
ATOM     20  C4  BGC C   2      19.743  61.584  65.0510  0.00  0.00     0.000 C
ATOM     21  C5  BGC C   2      20.739  62.239  64.0990  0.00  0.00     0.000 C
ATOM     22  O5  BGC C   2      21.506  63.198  64.7630  0.00  0.00     0.000 O
ATOM     23   O  BGC C   2      22.160  61.456  67.8870  0.00  0.00     0.000 O
ATOM     25  HD  BGC C   2      21.819  60.701  68.1370  0.00  0.00     0.000 HD
ATOM     25   O  BGC C   2      19.479  60.583  67.2000  0.00  0.00     0.000 O
ATOM     27  HD  BGC C   2      19.137  59.828  67.4500  0.00  0.00     0.000 HD
ATOM     27   C  BGC C   2      20.107  62.890  62.8510  0.00  0.00     0.000 C
ATOM     28   O  BGC C   2      19.084  63.830  63.2160  0.00  0.00     0.000 O
ATOM     30  HD  BGC C   2      18.743  63.075  63.4670  0.00  0.00     0.000 HD
BRANCH 17 30
ATOM     30  O4  BGC C   3      23.022  63.694  66.3950  0.00  0.00     0.000 O
BRANCH 30 34
ATOM     31  C1  BGC C   3      26.709  65.345  66.2640  0.00  0.00     0.000 C
ATOM     32  C2  BGC C   3      25.710  65.848  65.1940  0.00  0.00     0.000 C
ATOM     33  C3  BGC C   3      24.315  65.455  65.5330  0.00  0.00     0.000 C
ATOM     34  C4  BGC C   3      24.292  63.950  65.8140  0.00  0.00     0.000 C
ATOM     35  C5  BGC C   3      25.394  63.480  66.7970  0.00  0.00     0.000 C
ATOM     36  O5  BGC C   3      26.651  63.944  66.3730  0.00  0.00     0.000 O
ATOM     37   O  BGC C   3      25.678  67.232  64.9030  0.00  0.00     0.000 O
ATOM     39  HD  BGC C   3      25.216  66.507  65.0040  0.00  0.00     0.000 HD
ATOM     39   O  BGC C   3      23.414  65.800  64.4400  0.00  0.00     0.000 O
ATOM     41  HD  BGC C   3      22.952  65.074  64.5410  0.00  0.00     0.000 HD
ATOM     41   C  BGC C   3      25.516  61.948  66.9620  0.00  0.00     0.000 C
ATOM     42   O  BGC C   3      25.921  61.217  65.7490  0.00  0.00     0.000 O
ATOM     44  HD  BGC C   3      25.459  60.492  65.8500  0.00  0.00     0.000 HD
BRANCH 31 44
ATOM     44  O4  BGC C   4      28.009  65.715  65.9450  0.00  0.00     0.000 O
BRANCH 44 48
ATOM     45  C1  BGC C   4      31.577  67.027  67.4640  0.00  0.00     0.000 C
ATOM     46  C2  BGC C   4      31.310  65.536  67.8460  0.00  0.00     0.000 C
ATOM     47  C3  BGC C   4      30.124  65.183  66.9380  0.00  0.00     0.000 C
ATOM     48  C4  BGC C   4      28.914  66.096  66.9390  0.00  0.00     0.000 C
ATOM     49  C5  BGC C   4      29.430  67.490  66.5490  0.00  0.00     0.000 C
ATOM     50  O5  BGC C   4      30.441  67.903  67.4010  0.00  0.00     0.000 O
ATOM     51   O  BGC C   4      32.366  64.428  67.6830  0.00  0.00     0.000 O
ATOM     53  HD  BGC C   4      32.027  63.643  67.8270  0.00  0.00     0.000 HD
ATOM     53   O  BGC C   4      29.644  63.931  67.6200  0.00  0.00     0.000 O
ATOM     55  HD  BGC C   4      29.306  63.147  67.7640  0.00  0.00     0.000 HD
ATOM     55   C  BGC C   4      28.347  68.531  66.6730  0.00  0.00     0.000 C
ATOM     56   O  BGC C   4      27.727  68.629  67.9600  0.00  0.00     0.000 O
ATOM     58  HD  BGC C   4      27.388  67.845  68.1040  0.00  0.00     0.000 HD
BRANCH 45 58
ATOM     58  O4  BGC C   5      32.471  67.644  68.3420  0.00  0.00     0.000 O
BRANCH 58 62
ATOM     59  C1  BGC C   5      35.303  66.669  67.7270  0.00  0.00     0.000 C
ATOM     60  C2  BGC C   5      35.426  67.631  68.8000  0.00  0.00     0.000 C
ATOM     61  C3  BGC C   5      34.599  68.896  68.5870  0.00  0.00     0.000 C
ATOM     62  C4  BGC C   5      33.400  68.560  67.7120  0.00  0.00     0.000 C
ATOM     63  C5  BGC C   5      33.904  67.709  66.5690  0.00  0.00     0.000 C
ATOM     64  O5  BGC C   5      35.200  67.125  66.6810  0.00  0.00     0.000 O
ATOM     65   O  BGC C   5      34.684  69.562  65.2300  0.00  0.00     0.000 O
ATOM     67  HD  BGC C   5      34.037  69.014  65.4020  0.00  0.00     0.000 HD
ATOM     67   O  BGC C   5      34.684  69.562  65.2300  0.00  0.00     0.000 O
ATOM     69  HD  BGC C   5      34.037  69.014  65.4020  0.00  0.00     0.000 HD
ENDBRANCH 58 62
ENDBRANCH 45 58
ENDBRANCH 44 48
ENDBRANCH 31 44
ENDBRANCH 30 34
ENDBRANCH 17 30
ENDBRANCH 16 20
ENDBRANCH 1 16
TORSDOF 8
ENDMDL
MODEL 49
REMARK VINA RESULT:      -0.1     67.394     71.319
ROOT
ATOM      1  C1  BGC C   1      68.628  10.208  55.5280  0.00  0.00     0.000 C
ATOM      2  C2  BGC C   1      69.809  10.631  54.6550  0.00  0.00     0.000 C
ATOM      3  C3  BGC C   1      70.203   9.491  53.7230  0.00  0.00     0.000 C
ATOM      4  C4  BGC C   1      70.388   8.179  54.4660  0.00  0.00     0.000 C
ATOM      5  C5  BGC C   1      69.221   7.943  55.4210  0.00  0.00     0.000 C
ATOM      6  O5  BGC C   1      68.909   9.047  56.2100  0.00  0.00     0.000 O
ATOM      7   O  BGC C   1      69.403  11.754  53.9100  0.00  0.00     0.000 O
ATOM      9  HD  BGC C   1      70.219  11.504  54.0600  0.00  0.00     0.000 HD
ATOM      9   O  BGC C   1      71.391   9.882  53.0200  0.00  0.00     0.000 O
ATOM     11  HD  BGC C   1      72.206   9.632  53.1710  0.00  0.00     0.000 HD
ATOM     11   O  BGC C   1      70.458   7.154  53.4800  0.00  0.00     0.000 O
ATOM     13  HD  BGC C   1      71.274   6.904  53.6310  0.00  0.00     0.000 HD
ATOM     13   O  BGC C   1      70.663   7.117  57.2580  0.00  0.00     0.000 O
ATOM     15  HD  BGC C   1      71.478   6.867  57.4080  0.00  0.00     0.000 HD
ATOM     15   C  BGC C   1      69.587   6.767  56.3440  0.00  0.00     0.000 C
ENDROOT
BRANCH 1 16
ATOM     16  O4  BGC C   2      68.400  11.208  56.4930  0.00  0.00     0.000 O
BRANCH 16 20
ATOM     17  C1  BGC C   2      65.234  12.789  58.5300  0.00  0.00     0.000 C
ATOM     18  C2  BGC C   2      65.816  11.505  59.0990  0.00  0.00     0.000 C
ATOM     19  C3  BGC C   2      67.183  11.217  58.4940  0.00  0.00     0.000 C
ATOM     20  C4  BGC C   2      67.091  11.269  57.0060  0.00  0.00     0.000 C
ATOM     21  C5  BGC C   2      66.424  12.561  56.5430  0.00  0.00     0.000 C
ATOM     22  O5  BGC C   2      65.169  12.714  57.1350  0.00  0.00     0.000 O
ATOM     23   O  BGC C   2      65.917  11.634  60.5260  0.00  0.00     0.000 O
ATOM     25  HD  BGC C   2      66.659  11.286  60.8040  0.00  0.00     0.000 HD
ATOM     25   O  BGC C   2      67.614   9.925  58.9050  0.00  0.00     0.000 O
ATOM     27  HD  BGC C   2      68.356   9.577  59.1830  0.00  0.00     0.000 HD
ATOM     27   C  BGC C   2      66.267  12.695  55.0140  0.00  0.00     0.000 C
ATOM     28   O  BGC C   2      65.581  11.560  54.4590  0.00  0.00     0.000 O
ATOM     30  HD  BGC C   2      66.324  11.213  54.7380  0.00  0.00     0.000 HD
BRANCH 17 30
ATOM     30  O4  BGC C   3      63.927  12.970  59.0320  0.00  0.00     0.000 O
BRANCH 30 34
ATOM     31  C1  BGC C   3      61.415  15.889  60.2590  0.00  0.00     0.000 C
ATOM     32  C2  BGC C   3      61.456  15.637  58.7330  0.00  0.00     0.000 C
ATOM     33  C3  BGC C   3      62.124  14.344  58.4180  0.00  0.00     0.000 C
ATOM     34  C4  BGC C   3      63.476  14.312  59.1370  0.00  0.00     0.000 C
ATOM     35  C5  BGC C   3      63.395  14.694  60.6370  0.00  0.00     0.000 C
ATOM     36  O5  BGC C   3      62.718  15.916  60.7890  0.00  0.00     0.000 O
ATOM     37   O  BGC C   3      60.235  15.642  58.0180  0.00  0.00     0.000 O
ATOM     39  HD  BGC C   3      61.015  15.278  58.1070  0.00  0.00     0.000 HD
ATOM     39   O  BGC C   3      62.292  14.201  56.9770  0.00  0.00     0.000 O
ATOM     41  HD  BGC C   3      63.072  13.837  57.0660  0.00  0.00     0.000 HD
ATOM     41   C  BGC C   3      64.759  14.850  61.3480  0.00  0.00     0.000 C
ATOM     42   O  BGC C   3      65.608  15.944  60.8450  0.00  0.00     0.000 O
ATOM     44  HD  BGC C   3      66.389  15.580  60.9340  0.00  0.00     0.000 HD
BRANCH 31 44
ATOM     44  O4  BGC C   4      60.790  17.095  60.5480  0.00  0.00     0.000 O
BRANCH 44 48
ATOM     45  C1  BGC C   4      58.256  19.010  63.1310  0.00  0.00     0.000 C
ATOM     46  C2  BGC C   4      59.637  18.719  63.8000  0.00  0.00     0.000 C
ATOM     47  C3  BGC C   4      60.493  18.305  62.5960  0.00  0.00     0.000 C
ATOM     48  C4  BGC C   4      59.965  17.229  61.6670  0.00  0.00     0.000 C
ATOM     49  C5  BGC C   4      58.608  17.736  61.1520  0.00  0.00     0.000 C
ATOM     50  O5  BGC C   4      57.757  18.034  62.2030  0.00  0.00     0.000 O
ATOM     51   O  BGC C   4      60.426  19.780  64.5880  0.00  0.00     0.000 O
ATOM     53  HD  BGC C   4      61.219  19.499  64.7930  0.00  0.00     0.000 HD
ATOM     53   O  BGC C   4      61.640  17.646  63.3120  0.00  0.00     0.000 O
ATOM     55  HD  BGC C   4      62.433  17.364  63.5170  0.00  0.00     0.000 HD
ATOM     55   C  BGC C   4      57.899  16.681  60.3440  0.00  0.00     0.000 C
ATOM     56   O  BGC C   4      57.684  15.431  61.0080  0.00  0.00     0.000 O
ATOM     58  HD  BGC C   4      58.477  15.149  61.2140  0.00  0.00     0.000 HD
BRANCH 45 58
ATOM     58  O4  BGC C   5      57.238  19.176  64.0740  0.00  0.00     0.000 O
BRANCH 58 62
ATOM     59  C1  BGC C   5      57.525  21.932  65.3690  0.00  0.00     0.000 C
ATOM     60  C2  BGC C   5      56.349  21.326  65.9540  0.00  0.00     0.000 C
ATOM     61  C3  BGC C   5      55.437  20.649  64.9340  0.00  0.00     0.000 C
ATOM     62  C4  BGC C   5      56.273  20.205  63.7430  0.00  0.00     0.000 C
ATOM     63  C5  BGC C   5      57.191  21.351  63.3860  0.00  0.00     0.000 C
ATOM     64  O5  BGC C   5      57.362  22.400  64.3360  0.00  0.00     0.000 O
ATOM     65   O  BGC C   5      55.548  22.570  62.1020  0.00  0.00     0.000 O
ATOM     67  HD  BGC C   5      56.198  21.998  62.0920  0.00  0.00     0.000 HD
ATOM     67   O  BGC C   5      55.548  22.570  62.1020  0.00  0.00     0.000 O
ATOM     69  HD  BGC C   5      56.198  21.998  62.0920  0.00  0.00     0.000 HD
ENDBRANCH 58 62
ENDBRANCH 45 58
ENDBRANCH 44 48
ENDBRANCH 31 44
ENDBRANCH 30 34
ENDBRANCH 17 30
ENDBRANCH 16 20
ENDBRANCH 1 16
TORSDOF 8
ENDMDL
MODEL 50
REMARK VINA RESULT:      -0.1     44.994     51.173
ROOT
ATOM      1  C1  BGC C   1      12.001  58.787  37.7570  0.00  0.00     0.000 C
ATOM      2  C2  BGC C   1      11.026  59.110  36.6250  0.00  0.00     0.000 C
ATOM      3  C3  BGC C   1      10.507  60.535  36.7740  0.00  0.00     0.000 C
ATOM      4  C4  BGC C   1       9.986  60.814  38.1740  0.00  0.00     0.000 C
ATOM      5  C5  BGC C   1      10.977  60.308  39.2170  0.00  0.00     0.000 C
ATOM      6  O5  BGC C   1      11.422  59.009  38.9850  0.00  0.00     0.000 O
ATOM      7   O  BGC C   1      11.724  58.967  35.4110  0.00  0.00     0.000 O
ATOM      9  HD  BGC C   1      10.864  58.971  35.5120  0.00  0.00     0.000 HD
ATOM      9   O  BGC C   1       9.502  60.749  35.7740  0.00  0.00     0.000 O
ATOM     11  HD  BGC C   1       8.642  60.753  35.8750  0.00  0.00     0.000 HD
ATOM     11   O  BGC C   1       9.812  62.224  38.2740  0.00  0.00     0.000 O
ATOM     13  HD  BGC C   1       8.952  62.227  38.3750  0.00  0.00     0.000 HD
ATOM     13   O  BGC C   1       9.217  59.372  40.6890  0.00  0.00     0.000 O
ATOM     15  HD  BGC C   1       8.357  59.376  40.7900  0.00  0.00     0.000 HD
ATOM     15   C  BGC C   1      10.288  60.352  40.5940  0.00  0.00     0.000 C
ENDROOT
BRANCH 1 16
ATOM     16  O4  BGC C   2      12.325  57.418  37.6950  0.00  0.00     0.000 O
BRANCH 16 20
ATOM     17  C1  BGC C   2      15.520  55.020  38.5440  0.00  0.00     0.000 C
ATOM     18  C2  BGC C   2      14.635  55.391  39.7240  0.00  0.00     0.000 C
ATOM     19  C3  BGC C   2      13.308  55.962  39.2450  0.00  0.00     0.000 C
ATOM     20  C4  BGC C   2      13.560  57.062  38.2690  0.00  0.00     0.000 C
ATOM     21  C5  BGC C   2      14.518  56.610  37.1700  0.00  0.00     0.000 C
ATOM     22  O5  BGC C   2      15.711  56.130  37.7150  0.00  0.00     0.000 O
ATOM     23   O  BGC C   2      14.417  54.220  40.5260  0.00  0.00     0.000 O
ATOM     25  HD  BGC C   2      13.594  54.195  40.7970  0.00  0.00     0.000 HD
ATOM     25   O  BGC C   2      12.585  56.466  40.3620  0.00  0.00     0.000 O
ATOM     27  HD  BGC C   2      11.763  56.441  40.6330  0.00  0.00     0.000 HD
ATOM     27   C  BGC C   2      14.855  57.691  36.1220  0.00  0.00     0.000 C
ATOM     28   O  BGC C   2      15.352  58.886  36.7470  0.00  0.00     0.000 O
ATOM     30  HD  BGC C   2      14.529  58.860  37.0180  0.00  0.00     0.000 HD
BRANCH 17 30
ATOM     30  O4  BGC C   3      16.778  54.594  39.0220  0.00  0.00     0.000 O
BRANCH 30 34
ATOM     31  C1  BGC C   3      19.688  51.904  38.2250  0.00  0.00     0.000 C
ATOM     32  C2  BGC C   3      19.753  53.223  37.4180  0.00  0.00     0.000 C
ATOM     33  C3  BGC C   3      18.874  54.265  38.0160  0.00  0.00     0.000 C
ATOM     34  C4  BGC C   3      17.477  53.667  38.2060  0.00  0.00     0.000 C
ATOM     35  C5  BGC C   3      17.479  52.286  38.9090  0.00  0.00     0.000 C
ATOM     36  O5  BGC C   3      18.370  51.413  38.2600  0.00  0.00     0.000 O
ATOM     37   O  BGC C   3      21.018  53.829  37.2220  0.00  0.00     0.000 O
ATOM     39  HD  BGC C   3      20.174  53.955  37.3740  0.00  0.00     0.000 HD
ATOM     39   O  BGC C   3      18.830  55.442  37.1560  0.00  0.00     0.000 O
ATOM     41  HD  BGC C   3      17.987  55.568  37.3080  0.00  0.00     0.000 HD
ATOM     41   C  BGC C   3      16.109  51.571  38.9540  0.00  0.00     0.000 C
ATOM     42   O  BGC C   3      15.555  51.194  37.6420  0.00  0.00     0.000 O
ATOM     44  HD  BGC C   3      14.712  51.321  37.7940  0.00  0.00     0.000 HD
BRANCH 31 44
ATOM     44  O4  BGC C   4      20.511  50.936  37.6650  0.00  0.00     0.000 O
BRANCH 44 48
ATOM     45  C1  BGC C   4      23.101  47.873  38.4820  0.00  0.00     0.000 C
ATOM     46  C2  BGC C   4      21.628  47.479  38.8220  0.00  0.00     0.000 C
ATOM     47  C3  BGC C   4      20.834  48.614  38.1620  0.00  0.00     0.000 C
ATOM     48  C4  BGC C   4      21.227  50.046  38.4690  0.00  0.00     0.000 C
ATOM     49  C5  BGC C   4      22.703  50.181  38.0630  0.00  0.00     0.000 C
ATOM     50  O5  BGC C   4      23.485  49.238  38.7090  0.00  0.00     0.000 O
ATOM     51   O  BGC C   4      20.993  46.148  38.3780  0.00  0.00     0.000 O
ATOM     53  HD  BGC C   4      20.143  46.132  38.5430  0.00  0.00     0.000 HD
ATOM     53   O  BGC C   4      19.511  48.436  38.8540  0.00  0.00     0.000 O
ATOM     55  HD  BGC C   4      18.661  48.420  39.0180  0.00  0.00     0.000 HD
ATOM     55   C  BGC C   4      23.264  51.519  38.4720  0.00  0.00     0.000 C
ATOM     56   O  BGC C   4      23.152  51.839  39.8630  0.00  0.00     0.000 O
ATOM     58  HD  BGC C   4      22.302  51.823  40.0280  0.00  0.00     0.000 HD
BRANCH 45 58
ATOM     58  O4  BGC C   5      24.029  47.106  39.1900  0.00  0.00     0.000 O
BRANCH 58 62
ATOM     59  C1  BGC C   5      24.173  44.318  37.9420  0.00  0.00     0.000 C
ATOM     60  C2  BGC C   5      25.136  44.333  39.0210  0.00  0.00     0.000 C
ATOM     61  C3  BGC C   5      25.993  45.596  39.0610  0.00  0.00     0.000 C
ATOM     62  C4  BGC C   5      25.211  46.742  38.4360  0.00  0.00     0.000 C
ATOM     63  C5  BGC C   5      24.585  46.217  37.1650  0.00  0.00     0.000 C
ATOM     64  O5  BGC C   5      24.532  44.805  36.9700  0.00  0.00     0.000 O
ATOM     65   O  BGC C   5      26.563  46.488  35.8050  0.00  0.00     0.000 O
ATOM     67  HD  BGC C   5      25.816  46.833  36.0750  0.00  0.00     0.000 HD
ATOM     67   O  BGC C   5      26.563  46.488  35.8050  0.00  0.00     0.000 O
ATOM     69  HD  BGC C   5      25.816  46.833  36.0750  0.00  0.00     0.000 HD
ENDBRANCH 58 62
ENDBRANCH 45 58
ENDBRANCH 44 48
ENDBRANCH 31 44
ENDBRANCH 30 34
ENDBRANCH 17 30
ENDBRANCH 16 20
ENDBRANCH 1 16
TORSDOF 8
ENDMDL
MODEL 51
REMARK VINA RESULT:      -0.1     67.624     70.966
ROOT
ATOM      1  C1  BGC C   1      60.505  63.527  14.5000  0.00  0.00     0.000 C
ATOM      2  C2  BGC C   1      60.443  62.595  13.2900  0.00  0.00     0.000 C
ATOM      3  C3  BGC C   1      61.799  61.933  13.0710  0.00  0.00     0.000 C
ATOM      4  C4  BGC C   1      62.934  62.943  13.0490  0.00  0.00     0.000 C
ATOM      5  C5  BGC C   1      62.800  63.915  14.2180  0.00  0.00     0.000 C
ATOM      6  O5  BGC C   1      61.521  64.446  14.3620  0.00  0.00     0.000 O
ATOM      7   O  BGC C   1      59.461  61.622  13.5570  0.00  0.00     0.000 O
ATOM      9  HD  BGC C   1      59.781  61.830  12.7790  0.00  0.00     0.000 HD
ATOM      9   O  BGC C   1      61.732  61.174  11.8570  0.00  0.00     0.000 O
ATOM     11  HD  BGC C   1      62.052  61.382  11.0790  0.00  0.00     0.000 HD
ATOM     11   O  BGC C   1      64.146  62.201  13.1370  0.00  0.00     0.000 O
ATOM     13  HD  BGC C   1      64.466  62.409  12.3600  0.00  0.00     0.000 HD
ATOM     13   O  BGC C   1      63.401  65.900  12.8630  0.00  0.00     0.000 O
ATOM     15  HD  BGC C   1      63.721  66.108  12.0850  0.00  0.00     0.000 HD
ATOM     15   C  BGC C   1      63.790  65.073  13.9940  0.00  0.00     0.000 C
ENDROOT
BRANCH 1 16
ATOM     16  O4  BGC C   2      59.301  64.253  14.5710  0.00  0.00     0.000 O
BRANCH 16 20
ATOM     17  C1  BGC C   2      56.907  65.874  17.4540  0.00  0.00     0.000 C
ATOM     18  C2  BGC C   2      58.106  66.712  17.0380  0.00  0.00     0.000 C
ATOM     19  C3  BGC C   2      58.699  66.194  15.7350  0.00  0.00     0.000 C
ATOM     20  C4  BGC C   2      58.955  64.729  15.8500  0.00  0.00     0.000 C
ATOM     21  C5  BGC C   2      57.714  63.993  16.3470  0.00  0.00     0.000 C
ATOM     22  O5  BGC C   2      57.269  64.527  17.5570  0.00  0.00     0.000 O
ATOM     23   O  BGC C   2      57.689  68.078  16.8920  0.00  0.00     0.000 O
ATOM     25  HD  BGC C   2      58.066  68.431  16.1970  0.00  0.00     0.000 HD
ATOM     25   O  BGC C   2      59.919  66.878  15.4730  0.00  0.00     0.000 O
ATOM     27  HD  BGC C   2      60.296  67.231  14.7780  0.00  0.00     0.000 HD
ATOM     27   C  BGC C   2      57.891  62.470  16.5150  0.00  0.00     0.000 C
ATOM     28   O  BGC C   2      59.014  62.166  17.3590  0.00  0.00     0.000 O
ATOM     30  HD  BGC C   2      59.391  62.519  16.6640  0.00  0.00     0.000 HD
BRANCH 17 30
ATOM     30  O4  BGC C   3      56.447  66.314  18.7150  0.00  0.00     0.000 O
BRANCH 30 34
ATOM     31  C1  BGC C   3      53.021  66.861  20.7870  0.00  0.00     0.000 C
ATOM     32  C2  BGC C   3      53.597  65.426  20.8120  0.00  0.00     0.000 C
ATOM     33  C3  BGC C   3      55.006  65.403  20.3290  0.00  0.00     0.000 C
ATOM     34  C4  BGC C   3      55.066  66.123  18.9800  0.00  0.00     0.000 C
ATOM     35  C5  BGC C   3      54.363  67.505  18.9780  0.00  0.00     0.000 C
ATOM     36  O5  BGC C   3      53.057  67.385  19.4830  0.00  0.00     0.000 O
ATOM     37   O  BGC C   3      53.581  64.716  22.0360  0.00  0.00     0.000 O
ATOM     39  HD  BGC C   3      54.019  64.887  21.3100  0.00  0.00     0.000 HD
ATOM     39   O  BGC C   3      55.476  64.028  20.2130  0.00  0.00     0.000 O
ATOM     41  HD  BGC C   3      55.915  64.199  19.4860  0.00  0.00     0.000 HD
ATOM     41   C  BGC C   3      54.245  68.178  17.5910  0.00  0.00     0.000 C
ATOM     42   O  BGC C   3      53.409  67.459  16.6140  0.00  0.00     0.000 O
ATOM     44  HD  BGC C   3      53.848  67.631  15.8880  0.00  0.00     0.000 HD
BRANCH 31 44
ATOM     44  O4  BGC C   4      51.708  66.878  21.2400  0.00  0.00     0.000 O
BRANCH 44 48
ATOM     45  C1  BGC C   4      48.959  68.966  23.4420  0.00  0.00     0.000 C
ATOM     46  C2  BGC C   4      49.284  69.694  22.0980  0.00  0.00     0.000 C
ATOM     47  C3  BGC C   4      50.058  68.615  21.3310  0.00  0.00     0.000 C
ATOM     48  C4  BGC C   4      51.227  67.935  22.0170  0.00  0.00     0.000 C
ATOM     49  C5  BGC C   4      50.663  67.310  23.3030  0.00  0.00     0.000 C
ATOM     50  O5  BGC C   4      50.034  68.265  24.0850  0.00  0.00     0.000 O
ATOM     51   O  BGC C   4      48.195  70.242  21.1580  0.00  0.00     0.000 O
ATOM     53  HD  BGC C   4      48.530  70.511  20.4060  0.00  0.00     0.000 HD
ATOM     53   O  BGC C   4      50.697  69.466  20.2680  0.00  0.00     0.000 O
ATOM     55  HD  BGC C   4      51.033  69.735  19.5160  0.00  0.00     0.000 HD
ATOM     55   C  BGC C   4      51.761  66.741  24.1640  0.00  0.00     0.000 C
ATOM     56   O  BGC C   4      52.799  67.657  24.5300  0.00  0.00     0.000 O
ATOM     58  HD  BGC C   4      53.134  67.926  23.7790  0.00  0.00     0.000 HD
BRANCH 45 58
ATOM     58  O4  BGC C   5      48.458  69.841  24.4080  0.00  0.00     0.000 O
BRANCH 58 62
ATOM     59  C1  BGC C   5      45.554  70.515  23.7290  0.00  0.00     0.000 C
ATOM     60  C2  BGC C   5      45.856  71.206  24.9630  0.00  0.00     0.000 C
ATOM     61  C3  BGC C   5      46.605  70.348  25.9790  0.00  0.00     0.000 C
ATOM     62  C4  BGC C   5      47.404  69.288  25.2340  0.00  0.00     0.000 C
ATOM     63  C5  BGC C   5      46.496  68.702  24.1780  0.00  0.00     0.000 C
ATOM     64  O5  BGC C   5      45.300  69.405  23.8480  0.00  0.00     0.000 O
ATOM     65   O  BGC C   5      45.369  67.170  25.6680  0.00  0.00     0.000 O
ATOM     67  HD  BGC C   5      46.013  67.289  25.1020  0.00  0.00     0.000 HD
ATOM     67   O  BGC C   5      45.369  67.170  25.6680  0.00  0.00     0.000 O
ATOM     69  HD  BGC C   5      46.013  67.289  25.1020  0.00  0.00     0.000 HD
ENDBRANCH 58 62
ENDBRANCH 45 58
ENDBRANCH 44 48
ENDBRANCH 31 44
ENDBRANCH 30 34
ENDBRANCH 17 30
ENDBRANCH 16 20
ENDBRANCH 1 16
TORSDOF 8
ENDMDL
MODEL 52
REMARK VINA RESULT:      -0.1     63.215     66.107
ROOT
ATOM      1  C1  BGC C   1      17.729  48.171  64.4900  0.00  0.00     0.000 C
ATOM      2  C2  BGC C   1      16.508  49.090  64.4590  0.00  0.00     0.000 C
ATOM      3  C3  BGC C   1      15.473  48.617  65.4730  0.00  0.00     0.000 C
ATOM      4  C4  BGC C   1      15.169  47.134  65.3360  0.00  0.00     0.000 C
ATOM      5  C5  BGC C   1      16.465  46.337  65.2190  0.00  0.00     0.000 C
ATOM      6  O5  BGC C   1      17.364  46.859  64.2940  0.00  0.00     0.000 O
ATOM      7   O  BGC C   1      16.947  50.388  64.7770  0.00  0.00     0.000 O
ATOM      9  HD  BGC C   1      16.205  50.179  64.3830  0.00  0.00     0.000 HD
ATOM      9   O  BGC C   1      14.297  49.423  65.3180  0.00  0.00     0.000 O
ATOM     11  HD  BGC C   1      13.555  49.214  64.9240  0.00  0.00     0.000 HD
ATOM     11   O  BGC C   1      14.437  46.755  66.4960  0.00  0.00     0.000 O
ATOM     13  HD  BGC C   1      13.694  46.546  66.1020  0.00  0.00     0.000 HD
ATOM     13   O  BGC C   1      15.595  44.849  63.4400  0.00  0.00     0.000 O
ATOM     15  HD  BGC C   1      14.853  44.639  63.0460  0.00  0.00     0.000 HD
ATOM     15   C  BGC C   1      16.108  44.899  64.8010  0.00  0.00     0.000 C
ENDROOT
BRANCH 1 16
ATOM     16  O4  BGC C   2      18.584  48.524  63.4280  0.00  0.00     0.000 O
BRANCH 16 20
ATOM     17  C1  BGC C   2      22.592  48.547  62.6470  0.00  0.00     0.000 C
ATOM     18  C2  BGC C   2      21.884  47.215  62.4500  0.00  0.00     0.000 C
ATOM     19  C3  BGC C   2      20.375  47.407  62.4120  0.00  0.00     0.000 C
ATOM     20  C4  BGC C   2      19.940  48.189  63.6060  0.00  0.00     0.000 C
ATOM     21  C5  BGC C   2      20.763  49.465  63.7540  0.00  0.00     0.000 C
ATOM     22  O5  BGC C   2      22.127  49.176  63.8060  0.00  0.00     0.000 O
ATOM     23   O  BGC C   2      22.346  46.621  61.2280  0.00  0.00     0.000 O
ATOM     25  HD  BGC C   2      21.683  46.256  60.8060  0.00  0.00     0.000 HD
ATOM     25   O  BGC C   2      19.741  46.133  62.4130  0.00  0.00     0.000 O
ATOM     27  HD  BGC C   2      19.079  45.769  61.9920  0.00  0.00     0.000 HD
ATOM     27   C  BGC C   2      20.396  50.332  64.9770  0.00  0.00     0.000 C
ATOM     28   O  BGC C   2      20.450  49.567  66.1920  0.00  0.00     0.000 O
ATOM     30  HD  BGC C   2      19.788  49.202  65.7700  0.00  0.00     0.000 HD
BRANCH 17 30
ATOM     30  O4  BGC C   3      23.979  48.321  62.7830  0.00  0.00     0.000 O
BRANCH 30 34
ATOM     31  C1  BGC C   3      27.536  49.965  61.7930  0.00  0.00     0.000 C
ATOM     32  C2  BGC C   3      26.876  50.517  63.0790  0.00  0.00     0.000 C
ATOM     33  C3  BGC C   3      25.774  49.630  63.5430  0.00  0.00     0.000 C
ATOM     34  C4  BGC C   3      24.831  49.376  62.3640  0.00  0.00     0.000 C
ATOM     35  C5  BGC C   3      25.556  48.945  61.0640  0.00  0.00     0.000 C
ATOM     36  O5  BGC C   3      26.587  49.852  60.7620  0.00  0.00     0.000 O
ATOM     37   O  BGC C   3      27.698  50.759  64.2060  0.00  0.00     0.000 O
ATOM     39  HD  BGC C   3      26.929  50.479  63.9220  0.00  0.00     0.000 HD
ATOM     39   O  BGC C   3      25.067  50.246  64.6590  0.00  0.00     0.000 O
ATOM     41  HD  BGC C   3      24.298  49.967  64.3760  0.00  0.00     0.000 HD
ATOM     41   C  BGC C   3      24.658  48.857  59.8090  0.00  0.00     0.000 C
ATOM     42   O  BGC C   3      24.070  50.134  59.3680  0.00  0.00     0.000 O
ATOM     44  HD  BGC C   3      23.301  49.854  59.0850  0.00  0.00     0.000 HD
BRANCH 31 44
ATOM     44  O4  BGC C   4      28.565  50.794  61.3650  0.00  0.00     0.000 O
BRANCH 44 48
ATOM     45  C1  BGC C   4      32.315  50.893  59.7260  0.00  0.00     0.000 C
ATOM     46  C2  BGC C   4      31.247  50.444  58.6780  0.00  0.00     0.000 C
ATOM     47  C3  BGC C   4      29.934  50.777  59.3980  0.00  0.00     0.000 C
ATOM     48  C4  BGC C   4      29.733  50.266  60.8110  0.00  0.00     0.000 C
ATOM     49  C5  BGC C   4      30.901  50.826  61.6390  0.00  0.00     0.000 C
ATOM     50  O5  BGC C   4      32.120  50.470  61.0840  0.00  0.00     0.000 O
ATOM     51   O  BGC C   4      31.163  51.040  57.2600  0.00  0.00     0.000 O
ATOM     53  HD  BGC C   4      30.451  50.774  56.8460  0.00  0.00     0.000 HD
ATOM     53   O  BGC C   4      28.975  49.966  58.5710  0.00  0.00     0.000 O
ATOM     55  HD  BGC C   4      28.263  49.700  58.1560  0.00  0.00     0.000 HD
ATOM     55   C  BGC C   4      30.910  50.254  63.0330  0.00  0.00     0.000 C
ATOM     56   O  BGC C   4      30.948  48.825  63.1170  0.00  0.00     0.000 O
ATOM     58  HD  BGC C   4      30.236  48.558  62.7020  0.00  0.00     0.000 HD
BRANCH 45 58
ATOM     58  O4  BGC C   5      33.600  50.462  59.3870  0.00  0.00     0.000 O
BRANCH 58 62
ATOM     59  C1  BGC C   5      34.666  52.210  57.1150  0.00  0.00     0.000 C
ATOM     60  C2  BGC C   5      35.722  51.279  57.4450  0.00  0.00     0.000 C
ATOM     61  C3  BGC C   5      35.952  51.118  58.9450  0.00  0.00     0.000 C
ATOM     62  C4  BGC C   5      34.651  51.416  59.6770  0.00  0.00     0.000 C
ATOM     63  C5  BGC C   5      34.071  52.671  59.0670  0.00  0.00     0.000 C
ATOM     64  O5  BGC C   5      34.585  53.114  57.8130  0.00  0.00     0.000 O
ATOM     65   O  BGC C   5      35.437  54.200  60.3440  0.00  0.00     0.000 O
ATOM     67  HD  BGC C   5      34.683  53.778  60.2850  0.00  0.00     0.000 HD
ATOM     67   O  BGC C   5      35.437  54.200  60.3440  0.00  0.00     0.000 O
ATOM     69  HD  BGC C   5      34.683  53.778  60.2850  0.00  0.00     0.000 HD
ENDBRANCH 58 62
ENDBRANCH 45 58
ENDBRANCH 44 48
ENDBRANCH 31 44
ENDBRANCH 30 34
ENDBRANCH 17 30
ENDBRANCH 16 20
ENDBRANCH 1 16
TORSDOF 8
ENDMDL
MODEL 53
REMARK VINA RESULT:      -0.1     59.221     62.425
ROOT
ATOM      1  C1  BGC C   1      58.255  22.848  51.3660  0.00  0.00     0.000 C
ATOM      2  C2  BGC C   1      58.543  24.185  50.6830  0.00  0.00     0.000 C
ATOM      3  C3  BGC C   1      59.368  23.960  49.4210  0.00  0.00     0.000 C
ATOM      4  C4  BGC C   1      60.588  23.092  49.6790  0.00  0.00     0.000 C
ATOM      5  C5  BGC C   1      60.200  21.867  50.5020  0.00  0.00     0.000 C
ATOM      6  O5  BGC C   1      59.421  22.162  51.6170  0.00  0.00     0.000 O
ATOM      7   O  BGC C   1      57.304  24.770  50.3600  0.00  0.00     0.000 O
ATOM      9  HD  BGC C   1      58.066  25.178  50.4150  0.00  0.00     0.000 HD
ATOM      9   O  BGC C   1      59.724  25.242  48.8880  0.00  0.00     0.000 O
ATOM     11  HD  BGC C   1      60.486  25.650  48.9440  0.00  0.00     0.000 HD
ATOM     11   O  BGC C   1      61.100  22.713  48.4070  0.00  0.00     0.000 O
ATOM     13  HD  BGC C   1      61.862  23.121  48.4620  0.00  0.00     0.000 HD
ATOM     13   O  BGC C   1      62.207  21.988  51.9510  0.00  0.00     0.000 O
ATOM     15  HD  BGC C   1      62.969  22.396  52.0060  0.00  0.00     0.000 HD
ATOM     15   C  BGC C   1      61.494  21.178  50.9750  0.00  0.00     0.000 C
ENDROOT
BRANCH 1 16
ATOM     16  O4  BGC C   2      57.649  23.101  52.6120  0.00  0.00     0.000 O
BRANCH 16 20
ATOM     17  C1  BGC C   2      54.921  21.315  55.0700  0.00  0.00     0.000 C
ATOM     18  C2  BGC C   2      56.347  20.798  55.1730  0.00  0.00     0.000 C
ATOM     19  C3  BGC C   2      57.319  21.758  54.5020  0.00  0.00     0.000 C
ATOM     20  C4  BGC C   2      56.850  22.059  53.1190  0.00  0.00     0.000 C
ATOM     21  C5  BGC C   2      55.388  22.495  53.1180  0.00  0.00     0.000 C
ATOM     22  O5  BGC C   2      54.581  21.534  53.7310  0.00  0.00     0.000 O
ATOM     23   O  BGC C   2      56.681  20.632  56.5590  0.00  0.00     0.000 O
ATOM     25  HD  BGC C   2      57.493  20.895  56.7030  0.00  0.00     0.000 HD
ATOM     25   O  BGC C   2      58.608  21.159  54.4540  0.00  0.00     0.000 O
ATOM     27  HD  BGC C   2      59.421  21.422  54.5980  0.00  0.00     0.000 HD
ATOM     27   C  BGC C   2      54.807  22.809  51.7240  0.00  0.00     0.000 C
ATOM     28   O  BGC C   2      54.992  21.706  50.8220  0.00  0.00     0.000 O
ATOM     30  HD  BGC C   2      55.804  21.969  50.9660  0.00  0.00     0.000 HD
BRANCH 17 30
ATOM     30  O4  BGC C   3      54.037  20.354  55.6070  0.00  0.00     0.000 O
BRANCH 30 34
ATOM     31  C1  BGC C   3      50.620  20.087  57.7500  0.00  0.00     0.000 C
ATOM     32  C2  BGC C   3      50.442  20.300  56.2280  0.00  0.00     0.000 C
ATOM     33  C3  BGC C   3      51.712  20.040  55.4950  0.00  0.00     0.000 C
ATOM     34  C4  BGC C   3      52.827  20.853  56.1580  0.00  0.00     0.000 C
ATOM     35  C5  BGC C   3      52.882  20.699  57.6990  0.00  0.00     0.000 C
ATOM     36  O5  BGC C   3      51.614  20.944  58.2550  0.00  0.00     0.000 O
ATOM     37   O  BGC C   3      49.435  19.565  55.5600  0.00  0.00     0.000 O
ATOM     39  HD  BGC C   3      50.237  19.888  55.5190  0.00  0.00     0.000 HD
ATOM     39   O  BGC C   3      51.565  20.397  54.0890  0.00  0.00     0.000 O
ATOM     41  HD  BGC C   3      52.367  20.720  54.0480  0.00  0.00     0.000 HD
ATOM     41   C  BGC C   3      53.873  21.643  58.4180  0.00  0.00     0.000 C
ATOM     42   O  BGC C   3      53.563  23.079  58.3100  0.00  0.00     0.000 O
ATOM     44  HD  BGC C   3      54.365  23.402  58.2690  0.00  0.00     0.000 HD
BRANCH 31 44
ATOM     44  O4  BGC C   4      49.433  20.329  58.4290  0.00  0.00     0.000 O
BRANCH 44 48
ATOM     45  C1  BGC C   4      47.037  19.099  61.5120  0.00  0.00     0.000 C
ATOM     46  C2  BGC C   4      48.339  19.781  62.0410  0.00  0.00     0.000 C
ATOM     47  C3  BGC C   4      48.904  20.420  60.7650  0.00  0.00     0.000 C
ATOM     48  C4  BGC C   4      49.062  19.554  59.5310  0.00  0.00     0.000 C
ATOM     49  C5  BGC C   4      47.665  18.993  59.2190  0.00  0.00     0.000 C
ATOM     50  O5  BGC C   4      47.145  18.319  60.3110  0.00  0.00     0.000 O
ATOM     51   O  BGC C   4      48.332  20.862  63.1370  0.00  0.00     0.000 O
ATOM     53  HD  BGC C   4      49.114  21.220  63.2340  0.00  0.00     0.000 HD
ATOM     53   O  BGC C   4      50.315  20.684  61.2150  0.00  0.00     0.000 O
ATOM     55  HD  BGC C   4      51.097  21.043  61.3120  0.00  0.00     0.000 HD
ATOM     55   C  BGC C   4      47.716  17.981  58.1050  0.00  0.00     0.000 C
ATOM     56   O  BGC C   4      48.604  16.876  58.3110  0.00  0.00     0.000 O
ATOM     58  HD  BGC C   4      49.386  17.235  58.4080  0.00  0.00     0.000 HD
BRANCH 45 58
ATOM     58  O4  BGC C   5      46.468  18.243  62.4580  0.00  0.00     0.000 O
BRANCH 58 62
ATOM     59  C1  BGC C   5      45.073  19.918  64.6030  0.00  0.00     0.000 C
ATOM     60  C2  BGC C   5      44.845  18.533  64.9530  0.00  0.00     0.000 C
ATOM     61  C3  BGC C   5      44.444  17.659  63.7680  0.00  0.00     0.000 C
ATOM     62  C4  BGC C   5      45.020  18.261  62.4940  0.00  0.00     0.000 C
ATOM     63  C5  BGC C   5      44.757  19.748  62.5410  0.00  0.00     0.000 C
ATOM     64  O5  BGC C   5      44.381  20.329  63.7890  0.00  0.00     0.000 O
ATOM     65   O  BGC C   5      42.480  19.604  61.7460  0.00  0.00     0.000 O
ATOM     67  HD  BGC C   5      43.314  19.720  61.5420  0.00  0.00     0.000 HD
ATOM     67   O  BGC C   5      42.480  19.604  61.7460  0.00  0.00     0.000 O
ATOM     69  HD  BGC C   5      43.314  19.720  61.5420  0.00  0.00     0.000 HD
ENDBRANCH 58 62
ENDBRANCH 45 58
ENDBRANCH 44 48
ENDBRANCH 31 44
ENDBRANCH 30 34
ENDBRANCH 17 30
ENDBRANCH 16 20
ENDBRANCH 1 16
TORSDOF 8
ENDMDL
MODEL 54
REMARK VINA RESULT:      -0.1     46.617     53.815
ROOT
ATOM      1  C1  BGC C   1      35.726  51.362  22.7370  0.00  0.00     0.000 C
ATOM      2  C2  BGC C   1      35.739  50.768  21.3290  0.00  0.00     0.000 C
ATOM      3  C3  BGC C   1      34.717  51.482  20.4520  0.00  0.00     0.000 C
ATOM      4  C4  BGC C   1      33.348  51.556  21.1080  0.00  0.00     0.000 C
ATOM      5  C5  BGC C   1      33.481  52.012  22.5580  0.00  0.00     0.000 C
ATOM      6  O5  BGC C   1      34.459  51.328  23.2750  0.00  0.00     0.000 O
ATOM      7   O  BGC C   1      37.035  50.941  20.8090  0.00  0.00     0.000 O
ATOM      9  HD  BGC C   1      36.437  50.386  20.5220  0.00  0.00     0.000 HD
ATOM      9   O  BGC C   1      34.670  50.811  19.1860  0.00  0.00     0.000 O
ATOM     11  HD  BGC C   1      34.071  50.255  18.8990  0.00  0.00     0.000 HD
ATOM     11   O  BGC C   1      32.577  52.482  20.3490  0.00  0.00     0.000 O
ATOM     13  HD  BGC C   1      31.979  51.926  20.0620  0.00  0.00     0.000 HD
ATOM     13   O  BGC C   1      31.815  50.386  23.4050  0.00  0.00     0.000 O
ATOM     15  HD  BGC C   1      31.216  49.830  23.1180  0.00  0.00     0.000 HD
ATOM     15   C  BGC C   1      32.124  51.799  23.2540  0.00  0.00     0.000 C
ENDROOT
BRANCH 1 16
ATOM     16  O4  BGC C   2      36.546  50.572  23.5660  0.00  0.00     0.000 O
BRANCH 16 20
ATOM     17  C1  BGC C   2      38.967  51.092  26.8130  0.00  0.00     0.000 C
ATOM     18  C2  BGC C   2      37.481  50.955  27.1070  0.00  0.00     0.000 C
ATOM     19  C3  BGC C   2      36.739  50.410  25.8950  0.00  0.00     0.000 C
ATOM     20  C4  BGC C   2      37.077  51.227  24.6930  0.00  0.00     0.000 C
ATOM     21  C5  BGC C   2      38.588  51.366  24.5330  0.00  0.00     0.000 C
ATOM     22  O5  BGC C   2      39.165  51.898  25.6880  0.00  0.00     0.000 O
ATOM     23   O  BGC C   2      37.310  50.082  28.2340  0.00  0.00     0.000 O
ATOM     25  HD  BGC C   2      36.634  49.557  28.1030  0.00  0.00     0.000 HD
ATOM     25   O  BGC C   2      35.339  50.468  26.1390  0.00  0.00     0.000 O
ATOM     27  HD  BGC C   2      34.663  49.943  26.0080  0.00  0.00     0.000 HD
ATOM     27   C  BGC C   2      39.034  52.214  23.3240  0.00  0.00     0.000 C
ATOM     28   O  BGC C   2      38.419  53.513  23.3440  0.00  0.00     0.000 O
ATOM     30  HD  BGC C   2      37.744  52.987  23.2130  0.00  0.00     0.000 HD
BRANCH 17 30
ATOM     30  O4  BGC C   3      39.606  51.696  27.9180  0.00  0.00     0.000 O
BRANCH 30 34
ATOM     31  C1  BGC C   3      43.068  51.557  29.9990  0.00  0.00     0.000 C
ATOM     32  C2  BGC C   3      43.085  52.437  28.7260  0.00  0.00     0.000 C
ATOM     33  C3  BGC C   3      41.704  52.701  28.2350  0.00  0.00     0.000 C
ATOM     34  C4  BGC C   3      40.972  51.362  28.1120  0.00  0.00     0.000 C
ATOM     35  C5  BGC C   3      41.091  50.466  29.3710  0.00  0.00     0.000 C
ATOM     36  O5  BGC C   3      42.441  50.326  29.7380  0.00  0.00     0.000 O
ATOM     37   O  BGC C   3      43.737  53.692  28.7850  0.00  0.00     0.000 O
ATOM     39  HD  BGC C   3      43.063  53.244  28.4760  0.00  0.00     0.000 HD
ATOM     39   O  BGC C   3      41.749  53.396  26.9540  0.00  0.00     0.000 O
ATOM     41  HD  BGC C   3      41.075  52.948  26.6450  0.00  0.00     0.000 HD
ATOM     41   C  BGC C   3      40.521  49.037  29.2150  0.00  0.00     0.000 C
ATOM     42   O  BGC C   3      41.210  48.191  28.2260  0.00  0.00     0.000 O
ATOM     44  HD  BGC C   3      40.536  47.744  27.9170  0.00  0.00     0.000 HD
BRANCH 31 44
ATOM     44  O4  BGC C   4      44.357  51.315  30.4540  0.00  0.00     0.000 O
BRANCH 44 48
ATOM     45  C1  BGC C   4      46.709  50.940  33.7840  0.00  0.00     0.000 C
ATOM     46  C2  BGC C   4      45.743  49.722  33.6300  0.00  0.00     0.000 C
ATOM     47  C3  BGC C   4      45.211  49.917  32.2040  0.00  0.00     0.000 C
ATOM     48  C4  BGC C   4      44.642  51.269  31.8210  0.00  0.00     0.000 C
ATOM     49  C5  BGC C   4      45.763  52.291  32.0690  0.00  0.00     0.000 C
ATOM     50  O5  BGC C   4      46.216  52.225  33.3760  0.00  0.00     0.000 O
ATOM     51   O  BGC C   4      46.212  48.261  33.7550  0.00  0.00     0.000 O
ATOM     53  HD  BGC C   4      45.586  47.707  33.5290  0.00  0.00     0.000 HD
ATOM     53   O  BGC C   4      44.012  49.010  32.2520  0.00  0.00     0.000 O
ATOM     55  HD  BGC C   4      43.387  48.456  32.0260  0.00  0.00     0.000 HD
ATOM     55   C  BGC C   4      45.270  53.702  31.8820  0.00  0.00     0.000 C
ATOM     56   O  BGC C   4      44.141  54.075  32.6810  0.00  0.00     0.000 O
ATOM     58  HD  BGC C   4      43.515  53.521  32.4550  0.00  0.00     0.000 HD
BRANCH 45 58
ATOM     58  O4  BGC C   5      47.136  51.111  35.1030  0.00  0.00     0.000 O
BRANCH 58 62
ATOM     59  C1  BGC C   5      49.236  48.985  35.7510  0.00  0.00     0.000 C
ATOM     60  C2  BGC C   5      49.106  49.805  36.9350  0.00  0.00     0.000 C
ATOM     61  C3  BGC C   5      49.072  51.303  36.6430  0.00  0.00     0.000 C
ATOM     62  C4  BGC C   5      48.519  51.519  35.2410  0.00  0.00     0.000 C
ATOM     63  C5  BGC C   5      49.200  50.522  34.3320  0.00  0.00     0.000 C
ATOM     64  O5  BGC C   5      49.896  49.429  34.9280  0.00  0.00     0.000 O
ATOM     65   O  BGC C   5      51.206  51.831  34.0180  0.00  0.00     0.000 O
ATOM     67  HD  BGC C   5      50.420  51.625  33.7180  0.00  0.00     0.000 HD
ATOM     67   O  BGC C   5      51.206  51.831  34.0180  0.00  0.00     0.000 O
ATOM     69  HD  BGC C   5      50.420  51.625  33.7180  0.00  0.00     0.000 HD
ENDBRANCH 58 62
ENDBRANCH 45 58
ENDBRANCH 44 48
ENDBRANCH 31 44
ENDBRANCH 30 34
ENDBRANCH 17 30
ENDBRANCH 16 20
ENDBRANCH 1 16
TORSDOF 8
ENDMDL
MODEL 55
REMARK VINA RESULT:      -0.1     35.577     45.680
ROOT
ATOM      1  C1  BGC C   1       7.117  36.283  57.4120  0.00  0.00     0.000 C
ATOM      2  C2  BGC C   1       5.923  36.299  58.3670  0.00  0.00     0.000 C
ATOM      3  C3  BGC C   1       5.738  37.696  58.9470  0.00  0.00     0.000 C
ATOM      4  C4  BGC C   1       7.029  38.257  59.5200  0.00  0.00     0.000 C
ATOM      5  C5  BGC C   1       8.179  38.042  58.5400  0.00  0.00     0.000 C
ATOM      6  O5  BGC C   1       8.253  36.746  58.0360  0.00  0.00     0.000 O
ATOM      7   O  BGC C   1       4.786  35.922  57.6270  0.00  0.00     0.000 O
ATOM      9  HD  BGC C   1       4.866  35.909  58.4900  0.00  0.00     0.000 HD
ATOM      9   O  BGC C   1       4.696  37.635  59.9300  0.00  0.00     0.000 O
ATOM     11  HD  BGC C   1       4.776  37.622  60.7920  0.00  0.00     0.000 HD
ATOM     11   O  BGC C   1       6.808  39.643  59.7530  0.00  0.00     0.000 O
ATOM     13  HD  BGC C   1       6.888  39.630  60.6160  0.00  0.00     0.000 HD
ATOM     13   O  BGC C   1       9.788  37.379  60.3030  0.00  0.00     0.000 O
ATOM     15  HD  BGC C   1       9.868  37.366  61.1660  0.00  0.00     0.000 HD
ATOM     15   C  BGC C   1       9.497  38.360  59.2700  0.00  0.00     0.000 C
ENDROOT
BRANCH 1 16
ATOM     16  O4  BGC C   2       7.370  34.951  57.0320  0.00  0.00     0.000 O
BRANCH 16 20
ATOM     17  C1  BGC C   2       8.798  32.952  53.7700  0.00  0.00     0.000 C
ATOM     18  C2  BGC C   2       9.847  33.536  54.7030  0.00  0.00     0.000 C
ATOM     19  C3  BGC C   2       9.226  33.924  56.0380  0.00  0.00     0.000 C
ATOM     20  C4  BGC C   2       8.034  34.789  55.8010  0.00  0.00     0.000 C
ATOM     21  C5  BGC C   2       7.084  34.148  54.7930  0.00  0.00     0.000 C
ATOM     22  O5  BGC C   2       7.745  33.857  53.5990  0.00  0.00     0.000 O
ATOM     23   O  BGC C   2      10.886  32.564  54.8970  0.00  0.00     0.000 O
ATOM     25  HD  BGC C   2      11.140  32.562  55.7260  0.00  0.00     0.000 HD
ATOM     25   O  BGC C   2      10.187  34.631  56.8130  0.00  0.00     0.000 O
ATOM     27  HD  BGC C   2      10.440  34.628  57.6410  0.00  0.00     0.000 HD
ATOM     27   C  BGC C   2       5.827  34.982  54.4690  0.00  0.00     0.000 C
ATOM     28   O  BGC C   2       6.178  36.308  54.0410  0.00  0.00     0.000 O
ATOM     30  HD  BGC C   2       6.431  36.305  54.8690  0.00  0.00     0.000 HD
BRANCH 17 30
ATOM     30  O4  BGC C   3       9.384  32.702  52.5100  0.00  0.00     0.000 O
BRANCH 30 34
ATOM     31  C1  BGC C   3       9.268  30.039  49.4710  0.00  0.00     0.000 C
ATOM     32  C2  BGC C   3       8.188  31.146  49.4350  0.00  0.00     0.000 C
ATOM     33  C3  BGC C   3       8.520  32.254  50.3730  0.00  0.00     0.000 C
ATOM     34  C4  BGC C   3       8.810  31.650  51.7490  0.00  0.00     0.000 C
ATOM     35  C5  BGC C   3       9.805  30.461  51.7130  0.00  0.00     0.000 C
ATOM     36  O5  BGC C   3       9.386  29.508  50.7680  0.00  0.00     0.000 O
ATOM     37   O  BGC C   3       7.887  31.751  48.1910  0.00  0.00     0.000 O
ATOM     39  HD  BGC C   3       7.990  31.869  49.0420  0.00  0.00     0.000 HD
ATOM     39   O  BGC C   3       7.418  33.206  50.4390  0.00  0.00     0.000 O
ATOM     41  HD  BGC C   3       7.521  33.325  51.2900  0.00  0.00     0.000 HD
ATOM     41   C  BGC C   3       9.980  29.712  53.0540  0.00  0.00     0.000 C
ATOM     42   O  BGC C   3       8.775  29.028  53.5530  0.00  0.00     0.000 O
ATOM     44  HD  BGC C   3       8.878  29.146  54.4040  0.00  0.00     0.000 HD
BRANCH 31 44
ATOM     44  O4  BGC C   4       8.955  29.009  48.5930  0.00  0.00     0.000 O
BRANCH 44 48
ATOM     45  C1  BGC C   4      10.489  26.328  45.9070  0.00  0.00     0.000 C
ATOM     46  C2  BGC C   4      10.879  25.952  47.3720  0.00  0.00     0.000 C
ATOM     47  C3  BGC C   4       9.966  26.874  48.1910  0.00  0.00     0.000 C
ATOM     48  C4  BGC C   4       9.952  28.354  47.8660  0.00  0.00     0.000 C
ATOM     49  C5  BGC C   4       9.557  28.465  46.3850  0.00  0.00     0.000 C
ATOM     50  O5  BGC C   4      10.413  27.726  45.5850  0.00  0.00     0.000 O
ATOM     51   O  BGC C   4      10.731  24.528  47.9380  0.00  0.00     0.000 O
ATOM     53  HD  BGC C   4      10.878  24.510  48.7920  0.00  0.00     0.000 HD
ATOM     53   O  BGC C   4      10.653  26.793  49.5260  0.00  0.00     0.000 O
ATOM     55  HD  BGC C   4      10.800  26.775  50.3800  0.00  0.00     0.000 HD
ATOM     55   C  BGC C   4       9.667  29.884  45.8920  0.00  0.00     0.000 C
ATOM     56   O  BGC C   4      10.949  30.500  46.0580  0.00  0.00     0.000 O
ATOM     58  HD  BGC C   4      11.096  30.482  46.9110  0.00  0.00     0.000 HD
BRANCH 45 58
ATOM     58  O4  BGC C   5      11.370  25.782  44.9700  0.00  0.00     0.000 O
BRANCH 58 62
ATOM     59  C1  BGC C   5      10.779  22.796  44.6750  0.00  0.00     0.000 C
ATOM     60  C2  BGC C   5      11.847  23.095  43.7460  0.00  0.00     0.000 C
ATOM     61  C3  BGC C   5      11.621  24.373  42.9430  0.00  0.00     0.000 C
ATOM     62  C4  BGC C   5      10.740  25.314  43.7520  0.00  0.00     0.000 C
ATOM     63  C5  BGC C   5       9.606  24.491  44.3180  0.00  0.00     0.000 C
ATOM     64  O5  BGC C   5       9.730  23.070  44.3070  0.00  0.00     0.000 O
ATOM     65   O  BGC C   5       8.260  24.545  42.3120  0.00  0.00     0.000 O
ATOM     67  HD  BGC C   5       8.431  24.906  43.0810  0.00  0.00     0.000 HD
ATOM     67   O  BGC C   5       8.260  24.545  42.3120  0.00  0.00     0.000 O
ATOM     69  HD  BGC C   5       8.431  24.906  43.0810  0.00  0.00     0.000 HD
ENDBRANCH 58 62
ENDBRANCH 45 58
ENDBRANCH 44 48
ENDBRANCH 31 44
ENDBRANCH 30 34
ENDBRANCH 17 30
ENDBRANCH 16 20
ENDBRANCH 1 16
TORSDOF 8
ENDMDL
MODEL 56
REMARK VINA RESULT:      -0.1     37.894     41.575
ROOT
ATOM      1  C1  BGC C   1      33.309  27.873  40.6050  0.00  0.00     0.000 C
ATOM      2  C2  BGC C   1      33.774  27.614  42.0380  0.00  0.00     0.000 C
ATOM      3  C3  BGC C   1      34.439  26.245  42.1310  0.00  0.00     0.000 C
ATOM      4  C4  BGC C   1      33.581  25.147  41.5240  0.00  0.00     0.000 C
ATOM      5  C5  BGC C   1      33.048  25.586  40.1630  0.00  0.00     0.000 C
ATOM      6  O5  BGC C   1      32.488  26.860  40.1630  0.00  0.00     0.000 O
ATOM      7   O  BGC C   1      34.692  28.627  42.3730  0.00  0.00     0.000 O
ATOM      9  HD  BGC C   1      34.265  28.116  42.9270  0.00  0.00     0.000 HD
ATOM      9   O  BGC C   1      34.740  25.990  43.5100  0.00  0.00     0.000 O
ATOM     11  HD  BGC C   1      34.312  25.480  44.0640  0.00  0.00     0.000 HD
ATOM     11   O  BGC C   1      34.411  23.997  41.4020  0.00  0.00     0.000 O
ATOM     13  HD  BGC C   1      33.984  23.487  41.9560  0.00  0.00     0.000 HD
ATOM     13   O  BGC C   1      30.783  24.661  40.5580  0.00  0.00     0.000 O
ATOM     15  HD  BGC C   1      30.356  24.150  41.1120  0.00  0.00     0.000 HD
ATOM     15   C  BGC C   1      31.971  24.577  39.7220  0.00  0.00     0.000 C
ENDROOT
BRANCH 1 16
ATOM     16  O4  BGC C   2      32.548  29.057  40.5860  0.00  0.00     0.000 O
BRANCH 16 20
ATOM     17  C1  BGC C   2      31.785  32.127  38.0030  0.00  0.00     0.000 C
ATOM     18  C2  BGC C   2      30.963  30.864  37.7970  0.00  0.00     0.000 C
ATOM     19  C3  BGC C   2      31.064  29.950  39.0100  0.00  0.00     0.000 C
ATOM     20  C4  BGC C   2      32.499  29.726  39.3490  0.00  0.00     0.000 C
ATOM     21  C5  BGC C   2      33.249  31.050  39.4580  0.00  0.00     0.000 C
ATOM     22  O5  BGC C   2      33.115  31.798  38.2860  0.00  0.00     0.000 O
ATOM     23   O  BGC C   2      29.596  31.235  37.5600  0.00  0.00     0.000 O
ATOM     25  HD  BGC C   2      29.065  30.691  37.9740  0.00  0.00     0.000 HD
ATOM     25   O  BGC C   2      30.440  28.707  38.7110  0.00  0.00     0.000 O
ATOM     27  HD  BGC C   2      29.908  28.163  39.1260  0.00  0.00     0.000 HD
ATOM     27   C  BGC C   2      34.751  30.917  39.7870  0.00  0.00     0.000 C
ATOM     28   O  BGC C   2      35.414  30.051  38.8520  0.00  0.00     0.000 O
ATOM     30  HD  BGC C   2      34.883  29.507  39.2670  0.00  0.00     0.000 HD
BRANCH 17 30
ATOM     30  O4  BGC C   3      31.755  32.900  36.8230  0.00  0.00     0.000 O
BRANCH 30 34
ATOM     31  C1  BGC C   3      31.637  36.751  35.5990  0.00  0.00     0.000 C
ATOM     32  C2  BGC C   3      33.043  36.195  35.9310  0.00  0.00     0.000 C
ATOM     33  C3  BGC C   3      33.025  34.709  36.0290  0.00  0.00     0.000 C
ATOM     34  C4  BGC C   3      31.903  34.303  36.9880  0.00  0.00     0.000 C
ATOM     35  C5  BGC C   3      30.544  34.986  36.6860  0.00  0.00     0.000 C
ATOM     36  O5  BGC C   3      30.713  36.378  36.5910  0.00  0.00     0.000 O
ATOM     37   O  BGC C   3      34.117  36.527  35.0710  0.00  0.00     0.000 O
ATOM     39  HD  BGC C   3      33.751  35.915  35.5620  0.00  0.00     0.000 HD
ATOM     39   O  BGC C   3      34.317  34.219  36.4940  0.00  0.00     0.000 O
ATOM     41  HD  BGC C   3      33.951  33.607  36.9850  0.00  0.00     0.000 HD
ATOM     41   C  BGC C   3      29.439  34.742  37.7390  0.00  0.00     0.000 C
ATOM     42   O  BGC C   3      29.715  35.291  39.0770  0.00  0.00     0.000 O
ATOM     44  HD  BGC C   3      29.349  34.679  39.5680  0.00  0.00     0.000 HD
BRANCH 31 44
ATOM     44  O4  BGC C   4      31.659  38.136  35.5070  0.00  0.00     0.000 O
BRANCH 44 48
ATOM     45  C1  BGC C   4      30.199  41.372  33.4670  0.00  0.00     0.000 C
ATOM     46  C2  BGC C   4      29.095  40.712  34.3530  0.00  0.00     0.000 C
ATOM     47  C3  BGC C   4      29.918  39.760  35.2310  0.00  0.00     0.000 C
ATOM     48  C4  BGC C   4      30.886  38.807  34.5570  0.00  0.00     0.000 C
ATOM     49  C5  BGC C   4      31.853  39.684  33.7450  0.00  0.00     0.000 C
ATOM     50  O5  BGC C   4      31.164  40.498  32.8610  0.00  0.00     0.000 O
ATOM     51   O  BGC C   4      28.173  41.521  35.2830  0.00  0.00     0.000 O
ATOM     53  HD  BGC C   4      27.698  41.003  35.7900  0.00  0.00     0.000 HD
ATOM     53   O  BGC C   4      28.819  38.870  35.7430  0.00  0.00     0.000 O
ATOM     55  HD  BGC C   4      28.344  38.351  36.2490  0.00  0.00     0.000 HD
ATOM     55   C  BGC C   4      32.769  38.845  32.8920  0.00  0.00     0.000 C
ATOM     56   O  BGC C   4      32.121  37.942  31.9890  0.00  0.00     0.000 O
ATOM     58  HD  BGC C   4      31.646  37.424  32.4950  0.00  0.00     0.000 HD
BRANCH 45 58
ATOM     58  O4  BGC C   5      29.657  42.111  32.4130  0.00  0.00     0.000 O
BRANCH 58 62
ATOM     59  C1  BGC C   5      28.548  44.741  33.5100  0.00  0.00     0.000 C
ATOM     60  C2  BGC C   5      28.338  44.774  32.0790  0.00  0.00     0.000 C
ATOM     61  C3  BGC C   5      29.547  44.310  31.2710  0.00  0.00     0.000 C
ATOM     62  C4  BGC C   5      30.362  43.341  32.1150  0.00  0.00     0.000 C
ATOM     63  C5  BGC C   5      30.481  43.941  33.4970  0.00  0.00     0.000 C
ATOM     64  O5  BGC C   5      29.608  45.013  33.8470  0.00  0.00     0.000 O
ATOM     65   O  BGC C   5      32.320  45.410  32.9510  0.00  0.00     0.000 O
ATOM     67  HD  BGC C   5      32.074  44.641  33.2650  0.00  0.00     0.000 HD
ATOM     67   O  BGC C   5      32.320  45.410  32.9510  0.00  0.00     0.000 O
ATOM     69  HD  BGC C   5      32.074  44.641  33.2650  0.00  0.00     0.000 HD
ENDBRANCH 58 62
ENDBRANCH 45 58
ENDBRANCH 44 48
ENDBRANCH 31 44
ENDBRANCH 30 34
ENDBRANCH 17 30
ENDBRANCH 16 20
ENDBRANCH 1 16
TORSDOF 8
ENDMDL
MODEL 57
REMARK VINA RESULT:      -0.1     41.924     48.601
ROOT
ATOM      1  C1  BGC C   1      23.323  15.484  52.0710  0.00  0.00     0.000 C
ATOM      2  C2  BGC C   1      22.041  15.463  51.2410  0.00  0.00     0.000 C
ATOM      3  C3  BGC C   1      21.172  14.280  51.6510  0.00  0.00     0.000 C
ATOM      4  C4  BGC C   1      21.950  12.974  51.6680  0.00  0.00     0.000 C
ATOM      5  C5  BGC C   1      23.281  13.162  52.3910  0.00  0.00     0.000 C
ATOM      6  O5  BGC C   1      23.992  14.285  51.9760  0.00  0.00     0.000 O
ATOM      7   O  BGC C   1      21.363  16.673  51.4800  0.00  0.00     0.000 O
ATOM      9  HD  BGC C   1      21.239  16.138  50.8100  0.00  0.00     0.000 HD
ATOM      9   O  BGC C   1      20.049  14.223  50.7620  0.00  0.00     0.000 O
ATOM     11  HD  BGC C   1      19.925  13.688  50.0920  0.00  0.00     0.000 HD
ATOM     11   O  BGC C   1      21.135  12.018  52.3370  0.00  0.00     0.000 O
ATOM     13  HD  BGC C   1      21.011  11.483  51.6670  0.00  0.00     0.000 HD
ATOM     13   O  BGC C   1      24.562  11.822  50.7470  0.00  0.00     0.000 O
ATOM     15  HD  BGC C   1      24.438  11.287  50.0770  0.00  0.00     0.000 HD
ATOM     15   C  BGC C   1      24.145  11.913  52.1370  0.00  0.00     0.000 C
ENDROOT
BRANCH 1 16
ATOM     16  O4  BGC C   2      24.179  16.475  51.5530  0.00  0.00     0.000 O
BRANCH 16 20
ATOM     17  C1  BGC C   2      27.014  19.061  52.9500  0.00  0.00     0.000 C
ATOM     18  C2  BGC C   2      27.485  17.640  52.6820  0.00  0.00     0.000 C
ATOM     19  C3  BGC C   2      26.468  16.884  51.8390  0.00  0.00     0.000 C
ATOM     20  C4  BGC C   2      25.117  17.000  52.4620  0.00  0.00     0.000 C
ATOM     21  C5  BGC C   2      24.774  18.457  52.7600  0.00  0.00     0.000 C
ATOM     22  O5  BGC C   2      25.755  19.047  53.5590  0.00  0.00     0.000 O
ATOM     23   O  BGC C   2      28.753  17.691  52.0130  0.00  0.00     0.000 O
ATOM     25  HD  BGC C   2      28.786  17.088  51.3910  0.00  0.00     0.000 HD
ATOM     25   O  BGC C   2      26.847  15.515  51.7640  0.00  0.00     0.000 O
ATOM     27  HD  BGC C   2      26.880  14.913  51.1430  0.00  0.00     0.000 HD
ATOM     27   C  BGC C   2      23.399  18.674  53.4250  0.00  0.00     0.000 C
ATOM     28   O  BGC C   2      23.268  17.884  54.6180  0.00  0.00     0.000 O
ATOM     30  HD  BGC C   2      23.300  17.282  53.9970  0.00  0.00     0.000 HD
BRANCH 17 30
ATOM     30  O4  BGC C   3      27.926  19.698  53.8190  0.00  0.00     0.000 O
BRANCH 30 34
ATOM     31  C1  BGC C   3      29.616  23.307  54.4950  0.00  0.00     0.000 C
ATOM     32  C2  BGC C   3      28.219  23.091  55.1250  0.00  0.00     0.000 C
ATOM     33  C3  BGC C   3      27.842  21.651  55.1200  0.00  0.00     0.000 C
ATOM     34  C4  BGC C   3      28.025  21.109  53.7000  0.00  0.00     0.000 C
ATOM     35  C5  BGC C   3      29.397  21.460  53.0690  0.00  0.00     0.000 C
ATOM     36  O5  BGC C   3      29.635  22.842  53.1680  0.00  0.00     0.000 O
ATOM     37   O  BGC C   3      27.996  23.560  56.4410  0.00  0.00     0.000 O
ATOM     39  HD  BGC C   3      27.841  22.933  55.8640  0.00  0.00     0.000 HD
ATOM     39   O  BGC C   3      26.465  21.488  55.5710  0.00  0.00     0.000 O
ATOM     41  HD  BGC C   3      26.310  20.861  54.9940  0.00  0.00     0.000 HD
ATOM     41   C  BGC C   3      29.546  21.088  51.5760  0.00  0.00     0.000 C
ATOM     42   O  BGC C   3      28.645  21.805  50.6580  0.00  0.00     0.000 O
ATOM     44  HD  BGC C   3      28.490  21.178  50.0810  0.00  0.00     0.000 HD
BRANCH 31 44
ATOM     44  O4  BGC C   4      29.964  24.651  54.5030  0.00  0.00     0.000 O
BRANCH 44 48
ATOM     45  C1  BGC C   4      33.036  27.304  55.0350  0.00  0.00     0.000 C
ATOM     46  C2  BGC C   4      33.194  26.511  53.6980  0.00  0.00     0.000 C
ATOM     47  C3  BGC C   4      31.822  25.839  53.5630  0.00  0.00     0.000 C
ATOM     48  C4  BGC C   4      31.280  25.053  54.7420  0.00  0.00     0.000 C
ATOM     49  C5  BGC C   4      31.230  26.035  55.9240  0.00  0.00     0.000 C
ATOM     50  O5  BGC C   4      32.474  26.600  56.1530  0.00  0.00     0.000 O
ATOM     51   O  BGC C   4      33.513  27.191  52.3540  0.00  0.00     0.000 O
ATOM     53  HD  BGC C   4      33.452  26.634  51.6940  0.00  0.00     0.000 HD
ATOM     53   O  BGC C   4      32.150  24.789  52.5380  0.00  0.00     0.000 O
ATOM     55  HD  BGC C   4      32.089  24.232  51.8780  0.00  0.00     0.000 HD
ATOM     55   C  BGC C   4      30.863  25.332  57.2050  0.00  0.00     0.000 C
ATOM     56   O  BGC C   4      31.705  24.233  57.5730  0.00  0.00     0.000 O
ATOM     58  HD  BGC C   4      31.644  23.676  56.9130  0.00  0.00     0.000 HD
BRANCH 45 58
ATOM     58  O4  BGC C   5      34.254  27.811  55.4940  0.00  0.00     0.000 O
BRANCH 58 62
ATOM     59  C1  BGC C   5      35.020  30.240  53.8000  0.00  0.00     0.000 C
ATOM     60  C2  BGC C   5      36.057  30.094  54.7990  0.00  0.00     0.000 C
ATOM     61  C3  BGC C   5      35.522  29.823  56.2030  0.00  0.00     0.000 C
ATOM     62  C4  BGC C   5      34.172  29.129  56.0900  0.00  0.00     0.000 C
ATOM     63  C5  BGC C   5      33.375  29.866  55.0390  0.00  0.00     0.000 C
ATOM     64  O5  BGC C   5      34.068  30.758  54.1670  0.00  0.00     0.000 O
ATOM     65   O  BGC C   5      32.631  31.632  56.5100  0.00  0.00     0.000 O
ATOM     67  HD  BGC C   5      32.457  30.861  56.1560  0.00  0.00     0.000 HD
ATOM     67   O  BGC C   5      32.631  31.632  56.5100  0.00  0.00     0.000 O
ATOM     69  HD  BGC C   5      32.457  30.861  56.1560  0.00  0.00     0.000 HD
ENDBRANCH 58 62
ENDBRANCH 45 58
ENDBRANCH 44 48
ENDBRANCH 31 44
ENDBRANCH 30 34
ENDBRANCH 17 30
ENDBRANCH 16 20
ENDBRANCH 1 16
TORSDOF 8
ENDMDL
MODEL 58
REMARK VINA RESULT:      -0.1     55.546     59.801
ROOT
ATOM      1  C1  BGC C   1      64.468  29.191  38.9190  0.00  0.00     0.000 C
ATOM      2  C2  BGC C   1      65.240  30.433  39.3630  0.00  0.00     0.000 C
ATOM      3  C3  BGC C   1      65.404  31.392  38.1890  0.00  0.00     0.000 C
ATOM      4  C4  BGC C   1      65.952  30.699  36.9530  0.00  0.00     0.000 C
ATOM      5  C5  BGC C   1      65.203  29.394  36.7030  0.00  0.00     0.000 C
ATOM      6  O5  BGC C   1      65.072  28.595  37.8360  0.00  0.00     0.000 O
ATOM      7   O  BGC C   1      64.502  31.044  40.3940  0.00  0.00     0.000 O
ATOM      9  HD  BGC C   1      65.341  31.171  40.2170  0.00  0.00     0.000 HD
ATOM      9   O  BGC C   1      66.243  32.475  38.6140  0.00  0.00     0.000 O
ATOM     11  HD  BGC C   1      67.081  32.602  38.4370  0.00  0.00     0.000 HD
ATOM     11   O  BGC C   1      65.783  31.603  35.8660  0.00  0.00     0.000 O
ATOM     13  HD  BGC C   1      66.622  31.729  35.6890  0.00  0.00     0.000 HD
ATOM     13   O  BGC C   1      67.251  28.125  36.1240  0.00  0.00     0.000 O
ATOM     15  HD  BGC C   1      68.089  28.252  35.9480  0.00  0.00     0.000 HD
ATOM     15   C  BGC C   1      65.968  28.599  35.6290  0.00  0.00     0.000 C
ENDROOT
BRANCH 1 16
ATOM     16  O4  BGC C   2      64.485  28.252  39.9690  0.00  0.00     0.000 O
BRANCH 16 20
ATOM     17  C1  BGC C   2      62.054  25.328  41.4570  0.00  0.00     0.000 C
ATOM     18  C2  BGC C   2      62.914  24.935  40.2660  0.00  0.00     0.000 C
ATOM     19  C3  BGC C   2      64.017  25.958  40.0360  0.00  0.00     0.000 C
ATOM     20  C4  BGC C   2      63.425  27.326  39.9700  0.00  0.00     0.000 C
ATOM     21  C5  BGC C   2      62.521  27.590  41.1710  0.00  0.00     0.000 C
ATOM     22  O5  BGC C   2      61.531  26.612  41.2740  0.00  0.00     0.000 O
ATOM     23   O  BGC C   2      63.475  23.637  40.5070  0.00  0.00     0.000 O
ATOM     25  HD  BGC C   2      64.298  23.614  40.2370  0.00  0.00     0.000 HD
ATOM     25   O  BGC C   2      64.682  25.662  38.8130  0.00  0.00     0.000 O
ATOM     27  HD  BGC C   2      65.504  25.639  38.5430  0.00  0.00     0.000 HD
ATOM     27   C  BGC C   2      61.847  28.978  41.1790  0.00  0.00     0.000 C
ATOM     28   O  BGC C   2      61.125  29.213  39.9590  0.00  0.00     0.000 O
ATOM     30  HD  BGC C   2      61.948  29.190  39.6890  0.00  0.00     0.000 HD
BRANCH 17 30
ATOM     30  O4  BGC C   3      60.982  24.418  41.5770  0.00  0.00     0.000 O
BRANCH 30 34
ATOM     31  C1  BGC C   3      58.764  22.538  44.3860  0.00  0.00     0.000 C
ATOM     32  C2  BGC C   3      58.312  23.973  44.0230  0.00  0.00     0.000 C
ATOM     33  C3  BGC C   3      58.955  24.438  42.7630  0.00  0.00     0.000 C
ATOM     34  C4  BGC C   3      60.466  24.226  42.8860  0.00  0.00     0.000 C
ATOM     35  C5  BGC C   3      60.860  22.808  43.3730  0.00  0.00     0.000 C
ATOM     36  O5  BGC C   3      60.160  22.488  44.5490  0.00  0.00     0.000 O
ATOM     37   O  BGC C   3      56.926  24.225  43.8830  0.00  0.00     0.000 O
ATOM     39  HD  BGC C   3      57.722  24.393  43.5860  0.00  0.00     0.000 HD
ATOM     39   O  BGC C   3      58.639  25.842  42.5250  0.00  0.00     0.000 O
ATOM     41  HD  BGC C   3      59.435  26.010  42.2280  0.00  0.00     0.000 HD
ATOM     41   C  BGC C   3      62.363  22.615  43.6830  0.00  0.00     0.000 C
ATOM     42   O  BGC C   3      62.883  23.427  44.7960  0.00  0.00     0.000 O
ATOM     44  HD  BGC C   3      63.679  23.595  44.4990  0.00  0.00     0.000 HD
BRANCH 31 44
ATOM     44  O4  BGC C   4      58.161  22.107  45.5600  0.00  0.00     0.000 O
BRANCH 44 48
ATOM     45  C1  BGC C   4      56.475  18.902  47.4690  0.00  0.00     0.000 C
ATOM     46  C2  BGC C   4      58.022  18.734  47.3330  0.00  0.00     0.000 C
ATOM     47  C3  BGC C   4      58.457  20.139  46.8950  0.00  0.00     0.000 C
ATOM     48  C4  BGC C   4      57.753  20.780  45.7160  0.00  0.00     0.000 C
ATOM     49  C5  BGC C   4      56.260  20.822  46.0800  0.00  0.00     0.000 C
ATOM     50  O5  BGC C   4      55.788  19.557  46.3920  0.00  0.00     0.000 O
ATOM     51   O  BGC C   4      58.925  18.314  48.5070  0.00  0.00     0.000 O
ATOM     53  HD  BGC C   4      59.764  18.380  48.3020  0.00  0.00     0.000 HD
ATOM     53   O  BGC C   4      59.836  19.830  46.3790  0.00  0.00     0.000 O
ATOM     55  HD  BGC C   4      60.675  19.896  46.1740  0.00  0.00     0.000 HD
ATOM     55   C  BGC C   4      55.424  21.290  44.9170  0.00  0.00     0.000 C
ATOM     56   O  BGC C   4      55.567  20.536  43.7080  0.00  0.00     0.000 O
ATOM     58  HD  BGC C   4      56.406  20.602  43.5020  0.00  0.00     0.000 HD
BRANCH 45 58
ATOM     58  O4  BGC C   5      55.824  17.676  47.6300  0.00  0.00     0.000 O
BRANCH 58 62
ATOM     59  C1  BGC C   5      56.265  16.685  50.4890  0.00  0.00     0.000 C
ATOM     60  C2  BGC C   5      55.419  15.705  49.8420  0.00  0.00     0.000 C
ATOM     61  C3  BGC C   5      54.286  16.319  49.0240  0.00  0.00     0.000 C
ATOM     62  C4  BGC C   5      54.710  17.703  48.5550  0.00  0.00     0.000 C
ATOM     63  C5  BGC C   5      55.339  18.404  49.7360  0.00  0.00     0.000 C
ATOM     64  O5  BGC C   5      55.720  17.619  50.8650  0.00  0.00     0.000 O
ATOM     65   O  BGC C   5      53.251  19.101  50.7300  0.00  0.00     0.000 O
ATOM     67  HD  BGC C   5      53.910  19.308  50.2080  0.00  0.00     0.000 HD
ATOM     67   O  BGC C   5      53.251  19.101  50.7300  0.00  0.00     0.000 O
ATOM     69  HD  BGC C   5      53.910  19.308  50.2080  0.00  0.00     0.000 HD
ENDBRANCH 58 62
ENDBRANCH 45 58
ENDBRANCH 44 48
ENDBRANCH 31 44
ENDBRANCH 30 34
ENDBRANCH 17 30
ENDBRANCH 16 20
ENDBRANCH 1 16
TORSDOF 8
ENDMDL
MODEL 59
REMARK VINA RESULT:      -0.1     45.724     51.942
ROOT
ATOM      1  C1  BGC C   1      33.157  22.272  51.4460  0.00  0.00     0.000 C
ATOM      2  C2  BGC C   1      32.981  22.870  50.0510  0.00  0.00     0.000 C
ATOM      3  C3  BGC C   1      32.105  24.115  50.1230  0.00  0.00     0.000 C
ATOM      4  C4  BGC C   1      30.813  23.865  50.8850  0.00  0.00     0.000 C
ATOM      5  C5  BGC C   1      31.103  23.125  52.1870  0.00  0.00     0.000 C
ATOM      6  O5  BGC C   1      31.938  22.021  52.0320  0.00  0.00     0.000 O
ATOM      7   O  BGC C   1      34.262  23.201  49.5680  0.00  0.00     0.000 O
ATOM      9  HD  BGC C   1      33.544  23.098  49.0940  0.00  0.00     0.000 HD
ATOM      9   O  BGC C   1      31.859  24.564  48.7830  0.00  0.00     0.000 O
ATOM     11  HD  BGC C   1      31.142  24.461  48.3090  0.00  0.00     0.000 HD
ATOM     11   O  BGC C   1      30.233  25.140  51.1380  0.00  0.00     0.000 O
ATOM     13  HD  BGC C   1      29.515  25.037  50.6640  0.00  0.00     0.000 HD
ATOM     13   O  BGC C   1      29.159  21.606  51.9600  0.00  0.00     0.000 O
ATOM     15  HD  BGC C   1      28.442  21.503  51.4860  0.00  0.00     0.000 HD
ATOM     15   C  BGC C   1      29.763  22.648  52.7760  0.00  0.00     0.000 C
ENDROOT
BRANCH 1 16
ATOM     16  O4  BGC C   2      33.819  21.035  51.3250  0.00  0.00     0.000 O
BRANCH 16 20
ATOM     17  C1  BGC C   2      36.429  18.771  53.5020  0.00  0.00     0.000 C
ATOM     18  C2  BGC C   2      34.963  18.649  53.8870  0.00  0.00     0.000 C
ATOM     19  C3  BGC C   2      34.069  19.233  52.8010  0.00  0.00     0.000 C
ATOM     20  C4  BGC C   2      34.527  20.613  52.4660  0.00  0.00     0.000 C
ATOM     21  C5  BGC C   2      36.024  20.637  52.1720  0.00  0.00     0.000 C
ATOM     22  O5  BGC C   2      36.751  20.106  53.2380  0.00  0.00     0.000 O
ATOM     23   O  BGC C   2      34.652  17.264  54.1000  0.00  0.00     0.000 O
ATOM     25  HD  BGC C   2      33.873  17.080  53.7700  0.00  0.00     0.000 HD
ATOM     25   O  BGC C   2      32.727  19.272  53.2710  0.00  0.00     0.000 O
ATOM     27  HD  BGC C   2      31.948  19.088  52.9410  0.00  0.00     0.000 HD
ATOM     27   C  BGC C   2      36.594  22.031  51.8330  0.00  0.00     0.000 C
ATOM     28   O  BGC C   2      36.279  22.985  52.8600  0.00  0.00     0.000 O
ATOM     30  HD  BGC C   2      35.500  22.801  52.5300  0.00  0.00     0.000 HD
BRANCH 17 30
ATOM     30  O4  BGC C   3      37.230  18.317  54.5720  0.00  0.00     0.000 O
BRANCH 30 34
ATOM     31  C1  BGC C   3      40.662  16.306  55.2870  0.00  0.00     0.000 C
ATOM     32  C2  BGC C   3      40.818  17.819  55.0040  0.00  0.00     0.000 C
ATOM     33  C3  BGC C   3      39.509  18.522  55.0990  0.00  0.00     0.000 C
ATOM     34  C4  BGC C   3      38.497  17.780  54.2230  0.00  0.00     0.000 C
ATOM     35  C5  BGC C   3      38.470  16.248  54.4600  0.00  0.00     0.000 C
ATOM     36  O5  BGC C   3      39.770  15.722  54.3690  0.00  0.00     0.000 O
ATOM     37   O  BGC C   3      41.730  18.560  55.7920  0.00  0.00     0.000 O
ATOM     39  HD  BGC C   3      40.963  18.556  55.3920  0.00  0.00     0.000 HD
ATOM     39   O  BGC C   3      39.651  19.911  54.6780  0.00  0.00     0.000 O
ATOM     41  HD  BGC C   3      38.883  19.907  54.2770  0.00  0.00     0.000 HD
ATOM     41   C  BGC C   3      37.595  15.446  53.4690  0.00  0.00     0.000 C
ATOM     42   O  BGC C   3      38.040  15.486  52.0660  0.00  0.00     0.000 O
ATOM     44  HD  BGC C   3      37.272  15.482  51.6660  0.00  0.00     0.000 HD
BRANCH 31 44
ATOM     44  O4  BGC C   4      41.885  15.654  55.1980  0.00  0.00     0.000 O
BRANCH 44 48
ATOM     45  C1  BGC C   4      44.236  12.724  56.8270  0.00  0.00     0.000 C
ATOM     46  C2  BGC C   4      43.021  12.116  56.0560  0.00  0.00     0.000 C
ATOM     47  C3  BGC C   4      42.485  13.335  55.2940  0.00  0.00     0.000 C
ATOM     48  C4  BGC C   4      42.210  14.610  56.0670  0.00  0.00     0.000 C
ATOM     49  C5  BGC C   4      43.537  14.997  56.7390  0.00  0.00     0.000 C
ATOM     50  O5  BGC C   4      44.019  13.962  57.5220  0.00  0.00     0.000 O
ATOM     51   O  BGC C   4      43.162  10.962  55.0460  0.00  0.00     0.000 O
ATOM     53  HD  BGC C   4      42.421  10.820  54.6210  0.00  0.00     0.000 HD
ATOM     53   O  BGC C   4      41.119  12.825  54.9230  0.00  0.00     0.000 O
ATOM     55  HD  BGC C   4      40.378  12.683  54.4980  0.00  0.00     0.000 HD
ATOM     55   C  BGC C   4      43.358  16.163  57.6770  0.00  0.00     0.000 C
ATOM     56   O  BGC C   4      42.373  15.989  58.7020  0.00  0.00     0.000 O
ATOM     58  HD  BGC C   4      41.632  15.846  58.2770  0.00  0.00     0.000 HD
BRANCH 45 58
ATOM     58  O4  BGC C   5      44.744  11.846  57.7860  0.00  0.00     0.000 O
BRANCH 58 62
ATOM     59  C1  BGC C   5      46.353   9.659  56.3780  0.00  0.00     0.000 C
ATOM     60  C2  BGC C   5      46.456   9.393  57.7970  0.00  0.00     0.000 C
ATOM     61  C3  BGC C   5      46.738  10.638  58.6350  0.00  0.00     0.000 C
ATOM     62  C4  BGC C   5      46.188  11.857  57.9080  0.00  0.00     0.000 C
ATOM     63  C5  BGC C   5      46.595  11.736  56.4580  0.00  0.00     0.000 C
ATOM     64  O5  BGC C   5      47.059  10.472  55.9880  0.00  0.00     0.000 O
ATOM     65   O  BGC C   5      48.824  12.613  56.7720  0.00  0.00     0.000 O
ATOM     67  HD  BGC C   5      48.000  12.783  56.5650  0.00  0.00     0.000 HD
ATOM     67   O  BGC C   5      48.824  12.613  56.7720  0.00  0.00     0.000 O
ATOM     69  HD  BGC C   5      48.000  12.783  56.5650  0.00  0.00     0.000 HD
ENDBRANCH 58 62
ENDBRANCH 45 58
ENDBRANCH 44 48
ENDBRANCH 31 44
ENDBRANCH 30 34
ENDBRANCH 17 30
ENDBRANCH 16 20
ENDBRANCH 1 16
TORSDOF 8
ENDMDL
MODEL 60
REMARK VINA RESULT:      -0.1     73.540     77.236
ROOT
ATOM      1  C1  BGC C   1      62.391  62.175  45.2400  0.00  0.00     0.000 C
ATOM      2  C2  BGC C   1      63.566  61.234  45.5030  0.00  0.00     0.000 C
ATOM      3  C3  BGC C   1      63.357  60.494  46.8190  0.00  0.00     0.000 C
ATOM      4  C4  BGC C   1      63.018  61.438  47.9620  0.00  0.00     0.000 C
ATOM      5  C5  BGC C   1      61.944  62.430  47.5260  0.00  0.00     0.000 C
ATOM      6  O5  BGC C   1      62.200  63.033  46.2980  0.00  0.00     0.000 O
ATOM      7   O  BGC C   1      63.624  60.321  44.4330  0.00  0.00     0.000 O
ATOM      9  HD  BGC C   1      64.262  60.501  44.9900  0.00  0.00     0.000 HD
ATOM      9   O  BGC C   1      64.537  59.725  47.0900  0.00  0.00     0.000 O
ATOM     11  HD  BGC C   1      65.175  59.906  47.6470  0.00  0.00     0.000 HD
ATOM     11   O  BGC C   1      62.563  60.630  49.0410  0.00  0.00     0.000 O
ATOM     13  HD  BGC C   1      63.201  60.810  49.5990  0.00  0.00     0.000 HD
ATOM     13   O  BGC C   1      63.032  64.361  48.6320  0.00  0.00     0.000 O
ATOM     15  HD  BGC C   1      63.670  64.542  49.1890  0.00  0.00     0.000 HD
ATOM     15   C  BGC C   1      61.841  63.527  48.6010  0.00  0.00     0.000 C
ENDROOT
BRANCH 1 16
ATOM     16  O4  BGC C   2      62.694  62.968  44.1160  0.00  0.00     0.000 O
BRANCH 16 20
ATOM     17  C1  BGC C   2      60.688  64.756  41.0410  0.00  0.00     0.000 C
ATOM     18  C2  BGC C   2      60.705  65.519  42.3560  0.00  0.00     0.000 C
ATOM     19  C3  BGC C   2      61.762  64.954  43.2950  0.00  0.00     0.000 C
ATOM     20  C4  BGC C   2      61.583  63.478  43.4180  0.00  0.00     0.000 C
ATOM     21  C5  BGC C   2      61.501  62.819  42.0440  0.00  0.00     0.000 C
ATOM     22  O5  BGC C   2      60.486  63.392  41.2760  0.00  0.00     0.000 O
ATOM     23   O  BGC C   2      60.964  66.905  42.0850  0.00  0.00     0.000 O
ATOM     25  HD  BGC C   2      61.505  67.228  42.6790  0.00  0.00     0.000 HD
ATOM     25   O  BGC C   2      61.627  65.564  44.5730  0.00  0.00     0.000 O
ATOM     27  HD  BGC C   2      62.167  65.887  45.1670  0.00  0.00     0.000 HD
ATOM     27   C  BGC C   2      61.296  61.291  42.0720  0.00  0.00     0.000 C
ATOM     28   O  BGC C   2      60.147  60.934  42.8580  0.00  0.00     0.000 O
ATOM     30  HD  BGC C   2      60.688  61.257  43.4520  0.00  0.00     0.000 HD
BRANCH 17 30
ATOM     30  O4  BGC C   3      59.630  65.235  40.2390  0.00  0.00     0.000 O
BRANCH 30 34
ATOM     31  C1  BGC C   3      58.722  66.000  36.3750  0.00  0.00     0.000 C
ATOM     32  C2  BGC C   3      58.530  64.534  36.8320  0.00  0.00     0.000 C
ATOM     33  C3  BGC C   3      58.550  64.426  38.3170  0.00  0.00     0.000 C
ATOM     34  C4  BGC C   3      59.809  65.127  38.8350  0.00  0.00     0.000 C
ATOM     35  C5  BGC C   3      60.020  66.546  38.2480  0.00  0.00     0.000 C
ATOM     36  O5  BGC C   3      59.947  66.506  36.8450  0.00  0.00     0.000 O
ATOM     37   O  BGC C   3      57.376  63.840  36.3950  0.00  0.00     0.000 O
ATOM     39  HD  BGC C   3      57.929  63.979  37.0460  0.00  0.00     0.000 HD
ATOM     39   O  BGC C   3      58.524  63.025  38.7210  0.00  0.00     0.000 O
ATOM     41  HD  BGC C   3      59.077  63.163  39.3720  0.00  0.00     0.000 HD
ATOM     41   C  BGC C   3      61.370  67.209  38.6060  0.00  0.00     0.000 C
ATOM     42   O  BGC C   3      62.563  66.528  38.0760  0.00  0.00     0.000 O
ATOM     44  HD  BGC C   3      63.116  66.666  38.7280  0.00  0.00     0.000 HD
BRANCH 31 44
ATOM     44  O4  BGC C   4      58.701  66.097  34.9900  0.00  0.00     0.000 O
BRANCH 44 48
ATOM     45  C1  BGC C   4      57.449  68.362  31.8180  0.00  0.00     0.000 C
ATOM     46  C2  BGC C   4      58.620  69.055  32.5850  0.00  0.00     0.000 C
ATOM     47  C3  BGC C   4      59.116  67.925  33.4970  0.00  0.00     0.000 C
ATOM     48  C4  BGC C   4      58.105  67.188  34.3520  0.00  0.00     0.000 C
ATOM     49  C5  BGC C   4      57.062  66.611  33.3820  0.00  0.00     0.000 C
ATOM     50  O5  BGC C   4      56.508  67.608  32.5970  0.00  0.00     0.000 O
ATOM     51   O  BGC C   4      59.848  69.653  31.8760  0.00  0.00     0.000 O
ATOM     53  HD  BGC C   4      60.457  69.894  32.4440  0.00  0.00     0.000 HD
ATOM     53   O  BGC C   4      59.921  68.726  34.4820  0.00  0.00     0.000 O
ATOM     55  HD  BGC C   4      60.530  68.967  35.0500  0.00  0.00     0.000 HD
ATOM     55   C  BGC C   4      55.907  65.990  34.1230  0.00  0.00     0.000 C
ATOM     56   O  BGC C   4      55.229  66.850  35.0460  0.00  0.00     0.000 O
ATOM     58  HD  BGC C   4      55.837  67.090  35.6140  0.00  0.00     0.000 HD
BRANCH 45 58
ATOM     58  O4  BGC C   5      56.681  69.275  31.0920  0.00  0.00     0.000 O
BRANCH 58 62
ATOM     59  C1  BGC C   5      58.225  70.105  28.5860  0.00  0.00     0.000 C
ATOM     60  C2  BGC C   5      56.953  70.792  28.5290  0.00  0.00     0.000 C
ATOM     61  C3  BGC C   5      55.760  69.903  28.8750  0.00  0.00     0.000 C
ATOM     62  C4  BGC C   5      56.228  68.791  29.8030  0.00  0.00     0.000 C
ATOM     63  C5  BGC C   5      57.518  68.246  29.2360  0.00  0.00     0.000 C
ATOM     64  O5  BGC C   5      58.198  69.013  28.2440  0.00  0.00     0.000 O
ATOM     65   O  BGC C   5      56.462  66.798  27.6160  0.00  0.00     0.000 O
ATOM     67  HD  BGC C   5      56.799  66.873  28.4100  0.00  0.00     0.000 HD
ATOM     67   O  BGC C   5      56.462  66.798  27.6160  0.00  0.00     0.000 O
ATOM     69  HD  BGC C   5      56.799  66.873  28.4100  0.00  0.00     0.000 HD
ENDBRANCH 58 62
ENDBRANCH 45 58
ENDBRANCH 44 48
ENDBRANCH 31 44
ENDBRANCH 30 34
ENDBRANCH 17 30
ENDBRANCH 16 20
ENDBRANCH 1 16
TORSDOF 8
ENDMDL
MODEL 61
REMARK VINA RESULT:      -0.1     50.979     60.728
ROOT
ATOM      1  C1  BGC C   1      41.304  23.870  53.7760  0.00  0.00     0.000 C
ATOM      2  C2  BGC C   1      41.424  22.605  52.9280  0.00  0.00     0.000 C
ATOM      3  C3  BGC C   1      40.061  22.224  52.3630  0.00  0.00     0.000 C
ATOM      4  C4  BGC C   1      38.986  22.180  53.4370  0.00  0.00     0.000 C
ATOM      5  C5  BGC C   1      39.067  23.425  54.3160  0.00  0.00     0.000 C
ATOM      6  O5  BGC C   1      40.354  23.716  54.7600  0.00  0.00     0.000 O
ATOM      7   O  BGC C   1      42.326  22.881  51.8830  0.00  0.00     0.000 O
ATOM      9  HD  BGC C   1      42.087  22.096  52.1620  0.00  0.00     0.000 HD
ATOM      9   O  BGC C   1      40.195  20.966  51.6870  0.00  0.00     0.000 O
ATOM     11  HD  BGC C   1      39.956  20.182  51.9670  0.00  0.00     0.000 HD
ATOM     11   O  BGC C   1      37.734  22.111  52.7630  0.00  0.00     0.000 O
ATOM     13  HD  BGC C   1      37.495  21.326  53.0420  0.00  0.00     0.000 HD
ATOM     13   O  BGC C   1      38.693  22.174  56.4220  0.00  0.00     0.000 O
ATOM     15  HD  BGC C   1      38.454  21.390  56.7010  0.00  0.00     0.000 HD
ATOM     15   C  BGC C   1      38.163  23.205  55.5430  0.00  0.00     0.000 C
ENDROOT
BRANCH 1 16
ATOM     16  O4  BGC C   2      42.534  24.096  54.4230  0.00  0.00     0.000 O
BRANCH 16 20
ATOM     17  C1  BGC C   2      44.745  27.284  55.6980  0.00  0.00     0.000 C
ATOM     18  C2  BGC C   2      43.633  26.831  56.6310  0.00  0.00     0.000 C
ATOM     19  C3  BGC C   2      43.131  25.448  56.2410  0.00  0.00     0.000 C
ATOM     20  C4  BGC C   2      42.790  25.432  54.7890  0.00  0.00     0.000 C
ATOM     21  C5  BGC C   2      43.941  25.976  53.9490  0.00  0.00     0.000 C
ATOM     22  O5  BGC C   2      44.305  27.256  54.3710  0.00  0.00     0.000 O
ATOM     23   O  BGC C   2      44.132  26.823  57.9770  0.00  0.00     0.000 O
ATOM     25  HD  BGC C   2      43.837  26.126  58.3990  0.00  0.00     0.000 HD
ATOM     25   O  BGC C   2      41.977  25.135  57.0110  0.00  0.00     0.000 O
ATOM     27  HD  BGC C   2      41.681  24.439  57.4330  0.00  0.00     0.000 HD
ATOM     27   C  BGC C   2      43.671  26.016  52.4310  0.00  0.00     0.000 C
ATOM     28   O  BGC C   2      42.463  26.736  52.1360  0.00  0.00     0.000 O
ATOM     30  HD  BGC C   2      42.168  26.040  52.5570  0.00  0.00     0.000 HD
BRANCH 17 30
ATOM     30  O4  BGC C   3      45.113  28.608  56.0220  0.00  0.00     0.000 O
BRANCH 30 34
ATOM     31  C1  BGC C   3      48.367  30.997  56.2240  0.00  0.00     0.000 C
ATOM     32  C2  BGC C   3      47.717  30.867  54.8260  0.00  0.00     0.000 C
ATOM     33  C3  BGC C   3      46.357  30.267  54.9180  0.00  0.00     0.000 C
ATOM     34  C4  BGC C   3      46.454  28.974  55.7330  0.00  0.00     0.000 C
ATOM     35  C5  BGC C   3      47.225  29.134  57.0690  0.00  0.00     0.000 C
ATOM     36  O5  BGC C   3      48.474  29.737  56.8370  0.00  0.00     0.000 O
ATOM     37   O  BGC C   3      47.588  32.032  54.0330  0.00  0.00     0.000 O
ATOM     39  HD  BGC C   3      47.225  31.286  54.2800  0.00  0.00     0.000 HD
ATOM     39   O  BGC C   3      45.828  30.009  53.5850  0.00  0.00     0.000 O
ATOM     41  HD  BGC C   3      45.465  29.262  53.8320  0.00  0.00     0.000 HD
ATOM     41   C  BGC C   3      47.501  27.816  57.8280  0.00  0.00     0.000 C
ATOM     42   O  BGC C   3      48.381  26.862  57.1310  0.00  0.00     0.000 O
ATOM     44  HD  BGC C   3      48.018  26.116  57.3780  0.00  0.00     0.000 HD
BRANCH 31 44
ATOM     44  O4  BGC C   4      49.634  31.559  56.1330  0.00  0.00     0.000 O
BRANCH 44 48
ATOM     45  C1  BGC C   4      52.282  34.133  57.8990  0.00  0.00     0.000 C
ATOM     46  C2  BGC C   4      52.116  32.825  58.7360  0.00  0.00     0.000 C
ATOM     47  C3  BGC C   4      51.358  31.917  57.7600  0.00  0.00     0.000 C
ATOM     48  C4  BGC C   4      50.099  32.450  57.1030  0.00  0.00     0.000 C
ATOM     49  C5  BGC C   4      50.513  33.729  56.3590  0.00  0.00     0.000 C
ATOM     50  O5  BGC C   4      51.119  34.630  57.2190  0.00  0.00     0.000 O
ATOM     51   O  BGC C   4      53.311  32.023  59.2830  0.00  0.00     0.000 O
ATOM     53  HD  BGC C   4      53.058  31.267  59.6220  0.00  0.00     0.000 HD
ATOM     53   O  BGC C   4      50.860  30.869  58.7180  0.00  0.00     0.000 O
ATOM     55  HD  BGC C   4      50.607  30.114  59.0570  0.00  0.00     0.000 HD
ATOM     55   C  BGC C   4      49.315  34.450  55.7970  0.00  0.00     0.000 C
ATOM     56   O  BGC C   4      48.298  34.794  56.7450  0.00  0.00     0.000 O
ATOM     58  HD  BGC C   4      48.045  34.038  57.0840  0.00  0.00     0.000 HD
BRANCH 45 58
ATOM     58  O4  BGC C   5      52.741  35.201  58.6740  0.00  0.00     0.000 O
BRANCH 58 62
ATOM     59  C1  BGC C   5      55.725  34.821  59.2230  0.00  0.00     0.000 C
ATOM     60  C2  BGC C   5      55.352  36.073  59.8440  0.00  0.00     0.000 C
ATOM     61  C3  BGC C   5      54.471  36.955  58.9620  0.00  0.00     0.000 C
ATOM     62  C4  BGC C   5      53.687  36.069  58.0050  0.00  0.00     0.000 C
ATOM     63  C5  BGC C   5      54.654  35.053  57.4410  0.00  0.00     0.000 C
ATOM     64  O5  BGC C   5      55.909  34.879  58.0940  0.00  0.00     0.000 O
ATOM     65   O  BGC C   5      55.562  36.517  55.7470  0.00  0.00     0.000 O
ATOM     67  HD  BGC C   5      54.978  35.908  55.9420  0.00  0.00     0.000 HD
ATOM     67   O  BGC C   5      55.562  36.517  55.7470  0.00  0.00     0.000 O
ATOM     69  HD  BGC C   5      54.978  35.908  55.9420  0.00  0.00     0.000 HD
ENDBRANCH 58 62
ENDBRANCH 45 58
ENDBRANCH 44 48
ENDBRANCH 31 44
ENDBRANCH 30 34
ENDBRANCH 17 30
ENDBRANCH 16 20
ENDBRANCH 1 16
TORSDOF 8
ENDMDL
MODEL 62
REMARK VINA RESULT:      -0.1     35.256     44.846
ROOT
ATOM      1  C1  BGC C   1      37.987   9.679  37.1670  0.00  0.00     0.000 C
ATOM      2  C2  BGC C   1      36.560   9.134  37.1740  0.00  0.00     0.000 C
ATOM      3  C3  BGC C   1      36.507   7.800  36.4380  0.00  0.00     0.000 C
ATOM      4  C4  BGC C   1      37.163   7.872  35.0690  0.00  0.00     0.000 C
ATOM      5  C5  BGC C   1      38.514   8.576  35.1670  0.00  0.00     0.000 C
ATOM      6  O5  BGC C   1      38.475   9.769  35.8840  0.00  0.00     0.000 O
ATOM      7   O  BGC C   1      36.177   8.966  38.5180  0.00  0.00     0.000 O
ATOM      9  HD  BGC C   1      35.647   9.014  37.8350  0.00  0.00     0.000 HD
ATOM      9   O  BGC C   1      35.135   7.392  36.3550  0.00  0.00     0.000 O
ATOM     11  HD  BGC C   1      34.605   7.440  35.6720  0.00  0.00     0.000 HD
ATOM     11   O  BGC C   1      37.316   6.532  34.6150  0.00  0.00     0.000 O
ATOM     13  HD  BGC C   1      36.786   6.580  33.9320  0.00  0.00     0.000 HD
ATOM     13   O  BGC C   1      38.179   9.885  33.0910  0.00  0.00     0.000 O
ATOM     15  HD  BGC C   1      37.648   9.933  32.4080  0.00  0.00     0.000 HD
ATOM     15   C  BGC C   1      39.003   8.876  33.7390  0.00  0.00     0.000 C
ENDROOT
BRANCH 1 16
ATOM     16  O4  BGC C   2      37.973  10.985  37.6950  0.00  0.00     0.000 O
BRANCH 16 20
ATOM     17  C1  BGC C   2      40.454  13.409  39.8490  0.00  0.00     0.000 C
ATOM     18  C2  BGC C   2      40.715  13.353  38.3520  0.00  0.00     0.000 C
ATOM     19  C3  BGC C   2      39.535  12.729  37.6210  0.00  0.00     0.000 C
ATOM     20  C4  BGC C   2      39.187  11.425  38.2560  0.00  0.00     0.000 C
ATOM     21  C5  BGC C   2      39.022  11.576  39.7660  0.00  0.00     0.000 C
ATOM     22  O5  BGC C   2      40.168  12.131  40.3390  0.00  0.00     0.000 O
ATOM     23   O  BGC C   2      40.955  14.685  37.8730  0.00  0.00     0.000 O
ATOM     25  HD  BGC C   2      40.566  14.800  37.1080  0.00  0.00     0.000 HD
ATOM     25   O  BGC C   2      39.885  12.523  36.2580  0.00  0.00     0.000 O
ATOM     27  HD  BGC C   2      39.496  12.638  35.4930  0.00  0.00     0.000 HD
ATOM     27   C  BGC C   2      38.679  10.271  40.5120  0.00  0.00     0.000 C
ATOM     28   O  BGC C   2      39.637   9.239  40.2230  0.00  0.00     0.000 O
ATOM     30  HD  BGC C   2      39.248   9.354  39.4580  0.00  0.00     0.000 HD
BRANCH 17 30
ATOM     30  O4  BGC C   3      41.607  13.894  40.5040  0.00  0.00     0.000 O
BRANCH 30 34
ATOM     31  C1  BGC C   3      42.694  16.227  43.6210  0.00  0.00     0.000 C
ATOM     32  C2  BGC C   3      42.366  14.755  43.9670  0.00  0.00     0.000 C
ATOM     33  C3  BGC C   3      42.320  13.911  42.7420  0.00  0.00     0.000 C
ATOM     34  C4  BGC C   3      41.390  14.581  41.7280  0.00  0.00     0.000 C
ATOM     35  C5  BGC C   3      41.684  16.088  41.5110  0.00  0.00     0.000 C
ATOM     36  O5  BGC C   3      41.727  16.755  42.7470  0.00  0.00     0.000 O
ATOM     37   O  BGC C   3      43.200  14.079  44.8900  0.00  0.00     0.000 O
ATOM     39  HD  BGC C   3      42.735  14.020  44.1610  0.00  0.00     0.000 HD
ATOM     39   O  BGC C   3      41.857  12.568  43.0720  0.00  0.00     0.000 O
ATOM     41  HD  BGC C   3      41.393  12.508  42.3430  0.00  0.00     0.000 HD
ATOM     41   C  BGC C   3      40.654  16.838  40.6350  0.00  0.00     0.000 C
ATOM     42   O  BGC C   3      39.294  16.916  41.1950  0.00  0.00     0.000 O
ATOM     44  HD  BGC C   3      38.829  16.856  40.4660  0.00  0.00     0.000 HD
BRANCH 31 44
ATOM     44  O4  BGC C   4      42.737  17.011  44.7670  0.00  0.00     0.000 O
BRANCH 44 48
ATOM     45  C1  BGC C   4      44.677  20.094  46.6350  0.00  0.00     0.000 C
ATOM     46  C2  BGC C   4      43.829  20.604  45.4260  0.00  0.00     0.000 C
ATOM     47  C3  BGC C   4      42.976  19.373  45.0940  0.00  0.00     0.000 C
ATOM     48  C4  BGC C   4      43.672  18.040  44.9010  0.00  0.00     0.000 C
ATOM     49  C5  BGC C   4      44.440  17.766  46.2040  0.00  0.00     0.000 C
ATOM     50  O5  BGC C   4      45.302  18.808  46.5020  0.00  0.00     0.000 O
ATOM     51   O  BGC C   4      42.882  21.814  45.5200  0.00  0.00     0.000 O
ATOM     53  HD  BGC C   4      42.400  21.896  44.8040  0.00  0.00     0.000 HD
ATOM     53   O  BGC C   4      42.510  19.750  43.7150  0.00  0.00     0.000 O
ATOM     55  HD  BGC C   4      42.028  19.832  42.9990  0.00  0.00     0.000 HD
ATOM     55   C  BGC C   4      45.311  16.542  46.0810  0.00  0.00     0.000 C
ATOM     56   O  BGC C   4      46.254  16.559  45.0030  0.00  0.00     0.000 O
ATOM     58  HD  BGC C   4      45.772  16.641  44.2880  0.00  0.00     0.000 HD
BRANCH 45 58
ATOM     58  O4  BGC C   5      45.711  20.974  46.9630  0.00  0.00     0.000 O
BRANCH 58 62
ATOM     59  C1  BGC C   5      44.535  23.388  48.4260  0.00  0.00     0.000 C
ATOM     60  C2  BGC C   5      45.966  23.593  48.3830  0.00  0.00     0.000 C
ATOM     61  C3  BGC C   5      46.775  22.347  48.7340  0.00  0.00     0.000 C
ATOM     62  C4  BGC C   5      45.956  21.113  48.3840  0.00  0.00     0.000 C
ATOM     63  C5  BGC C   5      44.553  21.348  48.8910  0.00  0.00     0.000 C
ATOM     64  O5  BGC C   5      44.175  22.676  49.2480  0.00  0.00     0.000 O
ATOM     65   O  BGC C   5      45.023  20.702  51.1710  0.00  0.00     0.000 O
ATOM     67  HD  BGC C   5      44.739  20.455  50.3910  0.00  0.00     0.000 HD
ATOM     67   O  BGC C   5      45.023  20.702  51.1710  0.00  0.00     0.000 O
ATOM     69  HD  BGC C   5      44.739  20.455  50.3910  0.00  0.00     0.000 HD
ENDBRANCH 58 62
ENDBRANCH 45 58
ENDBRANCH 44 48
ENDBRANCH 31 44
ENDBRANCH 30 34
ENDBRANCH 17 30
ENDBRANCH 16 20
ENDBRANCH 1 16
TORSDOF 8
ENDMDL
MODEL 63
REMARK VINA RESULT:      -0.1     63.833     71.537
ROOT
ATOM      1  C1  BGC C   1      60.143  57.358  48.3920  0.00  0.00     0.000 C
ATOM      2  C2  BGC C   1      61.111  56.191  48.1980  0.00  0.00     0.000 C
ATOM      3  C3  BGC C   1      62.257  56.292  49.1970  0.00  0.00     0.000 C
ATOM      4  C4  BGC C   1      62.901  57.668  49.1980  0.00  0.00     0.000 C
ATOM      5  C5  BGC C   1      61.827  58.753  49.2370  0.00  0.00     0.000 C
ATOM      6  O5  BGC C   1      60.803  58.563  48.3140  0.00  0.00     0.000 O
ATOM      7   O  BGC C   1      60.385  55.002  48.4040  0.00  0.00     0.000 O
ATOM      9  HD  BGC C   1      61.144  55.077  47.9930  0.00  0.00     0.000 HD
ATOM      9   O  BGC C   1      63.203  55.257  48.8940  0.00  0.00     0.000 O
ATOM     11  HD  BGC C   1      63.962  55.332  48.4830  0.00  0.00     0.000 HD
ATOM     11   O  BGC C   1      63.736  57.732  50.3490  0.00  0.00     0.000 O
ATOM     13  HD  BGC C   1      64.494  57.807  49.9380  0.00  0.00     0.000 HD
ATOM     13   O  BGC C   1      62.972  60.191  47.5770  0.00  0.00     0.000 O
ATOM     15  HD  BGC C   1      63.731  60.266  47.1660  0.00  0.00     0.000 HD
ATOM     15   C  BGC C   1      62.503  60.106  48.9510  0.00  0.00     0.000 C
ENDROOT
BRANCH 1 16
ATOM     16  O4  BGC C   2      59.198  57.338  47.3490  0.00  0.00     0.000 O
BRANCH 16 20
ATOM     17  C1  BGC C   2      55.277  58.336  46.7940  0.00  0.00     0.000 C
ATOM     18  C2  BGC C   2      56.275  59.480  46.6980  0.00  0.00     0.000 C
ATOM     19  C3  BGC C   2      57.694  58.949  46.5560  0.00  0.00     0.000 C
ATOM     20  C4  BGC C   2      57.966  57.956  47.6360  0.00  0.00     0.000 C
ATOM     21  C5  BGC C   2      56.869  56.897  47.6960  0.00  0.00     0.000 C
ATOM     22  O5  BGC C   2      55.614  57.488  47.8540  0.00  0.00     0.000 O
ATOM     23   O  BGC C   2      55.931  60.301  45.5720  0.00  0.00     0.000 O
ATOM     25  HD  BGC C   2      56.649  60.548  45.1540  0.00  0.00     0.000 HD
ATOM     25   O  BGC C   2      58.611  60.032  46.6550  0.00  0.00     0.000 O
ATOM     27  HD  BGC C   2      59.328  60.278  46.2370  0.00  0.00     0.000 HD
ATOM     27   C  BGC C   2      57.056  55.836  48.8000  0.00  0.00     0.000 C
ATOM     28   O  BGC C   2      57.220  56.448  50.0890  0.00  0.00     0.000 O
ATOM     30  HD  BGC C   2      57.938  56.695  49.6720  0.00  0.00     0.000 HD
BRANCH 17 30
ATOM     30  O4  BGC C   3      53.988  58.861  47.0300  0.00  0.00     0.000 O
BRANCH 30 34
ATOM     31  C1  BGC C   3      50.115  58.213  46.0740  0.00  0.00     0.000 C
ATOM     32  C2  BGC C   3      50.663  57.379  47.2570  0.00  0.00     0.000 C
ATOM     33  C3  BGC C   3      51.957  57.927  47.7480  0.00  0.00     0.000 C
ATOM     34  C4  BGC C   3      52.899  58.087  46.5520  0.00  0.00     0.000 C
ATOM     35  C5  BGC C   3      52.258  58.821  45.3460  0.00  0.00     0.000 C
ATOM     36  O5  BGC C   3      51.033  58.219  45.0090  0.00  0.00     0.000 O
ATOM     37   O  BGC C   3      49.841  57.208  48.3960  0.00  0.00     0.000 O
ATOM     39  HD  BGC C   3      50.645  57.332  48.1010  0.00  0.00     0.000 HD
ATOM     39   O  BGC C   3      52.531  57.040  48.7540  0.00  0.00     0.000 O
ATOM     41  HD  BGC C   3      53.336  57.164  48.4580  0.00  0.00     0.000 HD
ATOM     41   C  BGC C   3      53.114  58.840  44.0590  0.00  0.00     0.000 C
ATOM     42   O  BGC C   3      53.369  57.520  43.4560  0.00  0.00     0.000 O
ATOM     44  HD  BGC C   3      54.174  57.644  43.1610  0.00  0.00     0.000 HD
BRANCH 31 44
ATOM     44  O4  BGC C   4      48.907  57.699  45.6200  0.00  0.00     0.000 O
BRANCH 44 48
ATOM     45  C1  BGC C   4      45.194  58.663  44.1900  0.00  0.00     0.000 C
ATOM     46  C2  BGC C   4      46.306  58.967  43.1360  0.00  0.00     0.000 C
ATOM     47  C3  BGC C   4      47.523  58.258  43.7450  0.00  0.00     0.000 C
ATOM     48  C4  BGC C   4      47.881  58.544  45.1900  0.00  0.00     0.000 C
ATOM     49  C5  BGC C   4      46.639  58.181  46.0190  0.00  0.00     0.000 C
ATOM     50  O5  BGC C   4      45.524  58.871  45.5720  0.00  0.00     0.000 O
ATOM     51   O  BGC C   4      46.204  58.533  41.6630  0.00  0.00     0.000 O
ATOM     53  HD  BGC C   4      46.947  58.672  41.2390  0.00  0.00     0.000 HD
ATOM     53   O  BGC C   4      48.622  58.913  42.9540  0.00  0.00     0.000 O
ATOM     55  HD  BGC C   4      49.365  59.051  42.5300  0.00  0.00     0.000 HD
ATOM     55   C  BGC C   4      46.808  58.576  47.4630  0.00  0.00     0.000 C
ATOM     56   O  BGC C   4      47.112  59.957  47.6960  0.00  0.00     0.000 O
ATOM     58  HD  BGC C   4      47.854  60.095  47.2720  0.00  0.00     0.000 HD
BRANCH 45 58
ATOM     58  O4  BGC C   5      44.038  59.416  43.9700  0.00  0.00     0.000 O
BRANCH 58 62
ATOM     59  C1  BGC C   5      42.521  58.234  41.5920  0.00  0.00     0.000 C
ATOM     60  C2  BGC C   5      41.726  59.342  42.0750  0.00  0.00     0.000 C
ATOM     61  C3  BGC C   5      41.586  59.379  43.5940  0.00  0.00     0.000 C
ATOM     62  C4  BGC C   5      42.800  58.706  44.2180  0.00  0.00     0.000 C
ATOM     63  C5  BGC C   5      43.047  57.428  43.4500  0.00  0.00     0.000 C
ATOM     64  O5  BGC C   5      42.405  57.263  42.1870  0.00  0.00     0.000 O
ATOM     65   O  BGC C   5      41.396  56.123  44.6360  0.00  0.00     0.000 O
ATOM     67  HD  BGC C   5      42.226  56.363  44.5780  0.00  0.00     0.000 HD
ATOM     67   O  BGC C   5      41.396  56.123  44.6360  0.00  0.00     0.000 O
ATOM     69  HD  BGC C   5      42.226  56.363  44.5780  0.00  0.00     0.000 HD
ENDBRANCH 58 62
ENDBRANCH 45 58
ENDBRANCH 44 48
ENDBRANCH 31 44
ENDBRANCH 30 34
ENDBRANCH 17 30
ENDBRANCH 16 20
ENDBRANCH 1 16
TORSDOF 8
ENDMDL
MODEL 64
REMARK VINA RESULT:      -0.1     37.710     46.992
ROOT
ATOM      1  C1  BGC C   1      28.976   3.366  45.7160  0.00  0.00     0.000 C
ATOM      2  C2  BGC C   1      28.490   2.556  44.5150  0.00  0.00     0.000 C
ATOM      3  C3  BGC C   1      29.619   2.392  43.5040  0.00  0.00     0.000 C
ATOM      4  C4  BGC C   1      30.281   3.717  43.1620  0.00  0.00     0.000 C
ATOM      5  C5  BGC C   1      30.577   4.504  44.4360  0.00  0.00     0.000 C
ATOM      6  O5  BGC C   1      29.500   4.574  45.3150  0.00  0.00     0.000 O
ATOM      7   O  BGC C   1      28.076   1.298  44.9940  0.00  0.00     0.000 O
ATOM      9  HD  BGC C   1      27.862   1.655  44.2350  0.00  0.00     0.000 HD
ATOM      9   O  BGC C   1      29.085   1.743  42.3420  0.00  0.00     0.000 O
ATOM     11  HD  BGC C   1      28.871   2.100  41.5830  0.00  0.00     0.000 HD
ATOM     11   O  BGC C   1      31.480   3.408  42.4600  0.00  0.00     0.000 O
ATOM     13  HD  BGC C   1      31.266   3.765  41.7010  0.00  0.00     0.000 HD
ATOM     13   O  BGC C   1      29.852   6.669  43.4740  0.00  0.00     0.000 O
ATOM     15  HD  BGC C   1      29.637   7.026  42.7150  0.00  0.00     0.000 HD
ATOM     15   C  BGC C   1      30.976   5.935  44.0330  0.00  0.00     0.000 C
ENDROOT
BRANCH 1 16
ATOM     16  O4  BGC C   2      27.873   3.650  46.5430  0.00  0.00     0.000 O
BRANCH 16 20
ATOM     17  C1  BGC C   2      27.129   4.184  50.5230  0.00  0.00     0.000 C
ATOM     18  C2  BGC C   2      27.668   5.396  49.7790  0.00  0.00     0.000 C
ATOM     19  C3  BGC C   2      27.560   5.198  48.2740  0.00  0.00     0.000 C
ATOM     20  C4  BGC C   2      28.177   3.893  47.8960  0.00  0.00     0.000 C
ATOM     21  C5  BGC C   2      27.624   2.757  48.7520  0.00  0.00     0.000 C
ATOM     22  O5  BGC C   2      27.797   3.027  50.1110  0.00  0.00     0.000 O
ATOM     23   O  BGC C   2      26.929   6.557  50.1870  0.00  0.00     0.000 O
ATOM     25  HD  BGC C   2      26.770   7.064  49.5030  0.00  0.00     0.000 HD
ATOM     25   O  BGC C   2      28.237   6.260  47.6130  0.00  0.00     0.000 O
ATOM     27  HD  BGC C   2      28.079   6.767  46.9280  0.00  0.00     0.000 HD
ATOM     27   C  BGC C   2      28.220   1.368  48.4450  0.00  0.00     0.000 C
ATOM     28   O  BGC C   2      29.654   1.388  48.5220  0.00  0.00     0.000 O
ATOM     30  HD  BGC C   2      29.496   1.895  47.8380  0.00  0.00     0.000 HD
BRANCH 17 30
ATOM     30  O4  BGC C   3      27.340   4.356  51.9080  0.00  0.00     0.000 O
BRANCH 30 34
ATOM     31  C1  BGC C   3      25.580   3.600  55.4670  0.00  0.00     0.000 C
ATOM     32  C2  BGC C   3      26.399   2.434  54.8620  0.00  0.00     0.000 C
ATOM     33  C3  BGC C   3      27.275   2.909  53.7560  0.00  0.00     0.000 C
ATOM     34  C4  BGC C   3      26.418   3.705  52.7690  0.00  0.00     0.000 C
ATOM     35  C5  BGC C   3      25.523   4.777  53.4420  0.00  0.00     0.000 C
ATOM     36  O5  BGC C   3      24.775   4.199  54.4820  0.00  0.00     0.000 O
ATOM     37   O  BGC C   3      27.220   1.671  55.7260  0.00  0.00     0.000 O
ATOM     39  HD  BGC C   3      27.137   2.029  54.9420  0.00  0.00     0.000 HD
ATOM     39   O  BGC C   3      27.917   1.776  53.1000  0.00  0.00     0.000 O
ATOM     41  HD  BGC C   3      27.834   2.134  52.3160  0.00  0.00     0.000 HD
ATOM     41   C  BGC C   3      24.513   5.473  52.5000  0.00  0.00     0.000 C
ATOM     42   O  BGC C   3      23.480   4.593  51.9270  0.00  0.00     0.000 O
ATOM     44  HD  BGC C   3      23.397   4.952  51.1430  0.00  0.00     0.000 HD
BRANCH 31 44
ATOM     44  O4  BGC C   4      24.765   3.153  56.4990  0.00  0.00     0.000 O
BRANCH 44 48
ATOM     45  C1  BGC C   4      23.254   4.059  60.1940  0.00  0.00     0.000 C
ATOM     46  C2  BGC C   4      22.611   4.949  59.0830  0.00  0.00     0.000 C
ATOM     47  C3  BGC C   4      23.073   4.242  57.8020  0.00  0.00     0.000 C
ATOM     48  C4  BGC C   4      24.549   3.934  57.6360  0.00  0.00     0.000 C
ATOM     49  C5  BGC C   4      24.944   3.068  58.8430  0.00  0.00     0.000 C
ATOM     50  O5  BGC C   4      24.636   3.705  60.0340  0.00  0.00     0.000 O
ATOM     51   O  BGC C   4      21.093   5.176  58.9650  0.00  0.00     0.000 O
ATOM     53  HD  BGC C   4      20.890   5.594  58.2340  0.00  0.00     0.000 HD
ATOM     53   O  BGC C   4      22.807   5.330  56.7980  0.00  0.00     0.000 O
ATOM     55  HD  BGC C   4      22.604   5.747  56.0670  0.00  0.00     0.000 HD
ATOM     55   C  BGC C   4      26.431   2.830  58.8850  0.00  0.00     0.000 C
ATOM     56   O  BGC C   4      27.247   4.007  58.8940  0.00  0.00     0.000 O
ATOM     58  HD  BGC C   4      27.044   4.424  58.1630  0.00  0.00     0.000 HD
BRANCH 45 58
ATOM     58  O4  BGC C   5      23.168   4.650  61.4570  0.00  0.00     0.000 O
BRANCH 58 62
ATOM     59  C1  BGC C   5      20.301   4.382  62.4870  0.00  0.00     0.000 C
ATOM     60  C2  BGC C   5      21.051   5.043  63.5330  0.00  0.00     0.000 C
ATOM     61  C3  BGC C   5      22.411   4.407  63.8070  0.00  0.00     0.000 C
ATOM     62  C4  BGC C   5      22.901   3.723  62.5390  0.00  0.00     0.000 C
ATOM     63  C5  BGC C   5      21.736   2.950  61.9670  0.00  0.00     0.000 C
ATOM     64  O5  BGC C   5      20.426   3.244  62.4500  0.00  0.00     0.000 O
ATOM     65   O  BGC C   5      22.005   1.030  63.4090  0.00  0.00     0.000 O
ATOM     67  HD  BGC C   5      22.186   1.394  62.6440  0.00  0.00     0.000 HD
ATOM     67   O  BGC C   5      22.005   1.030  63.4090  0.00  0.00     0.000 O
ATOM     69  HD  BGC C   5      22.186   1.394  62.6440  0.00  0.00     0.000 HD
ENDBRANCH 58 62
ENDBRANCH 45 58
ENDBRANCH 44 48
ENDBRANCH 31 44
ENDBRANCH 30 34
ENDBRANCH 17 30
ENDBRANCH 16 20
ENDBRANCH 1 16
TORSDOF 8
ENDMDL
MODEL 65
REMARK VINA RESULT:      -0.1     33.479     36.127
ROOT
ATOM      1  C1  BGC C   1      40.936  24.308   3.5700  0.00  0.00     0.000 C
ATOM      2  C2  BGC C   1      39.409  24.292   3.6110  0.00  0.00     0.000 C
ATOM      3  C3  BGC C   1      38.846  24.930   2.3460  0.00  0.00     0.000 C
ATOM      4  C4  BGC C   1      39.469  26.287   2.0600  0.00  0.00     0.000 C
ATOM      5  C5  BGC C   1      40.987  26.211   2.2030  0.00  0.00     0.000 C
ATOM      6  O5  BGC C   1      41.411  25.585   3.3710  0.00  0.00     0.000 O
ATOM      7   O  BGC C   1      39.002  22.948   3.7030  0.00  0.00     0.000 O
ATOM      9  HD  BGC C   1      38.525  23.644   3.8980  0.00  0.00     0.000 HD
ATOM      9   O  BGC C   1      37.421  25.013   2.4860  0.00  0.00     0.000 O
ATOM     11  HD  BGC C   1      36.944  25.708   2.6800  0.00  0.00     0.000 HD
ATOM     11   O  BGC C   1      39.096  26.639   0.7330  0.00  0.00     0.000 O
ATOM     13  HD  BGC C   1      38.619  27.335   0.9270  0.00  0.00     0.000 HD
ATOM     13   O  BGC C   1      41.159  28.384   3.3810  0.00  0.00     0.000 O
ATOM     15  HD  BGC C   1      40.681  29.080   3.5760  0.00  0.00     0.000 HD
ATOM     15   C  BGC C   1      41.541  27.647   2.1870  0.00  0.00     0.000 C
ENDROOT
BRANCH 1 16
ATOM     16  O4  BGC C   2      41.424  23.878   4.8190  0.00  0.00     0.000 O
BRANCH 16 20
ATOM     17  C1  BGC C   2      44.659  21.853   6.2730  0.00  0.00     0.000 C
ATOM     18  C2  BGC C   2      44.867  23.336   6.0090  0.00  0.00     0.000 C
ATOM     19  C3  BGC C   2      43.532  24.044   5.8280  0.00  0.00     0.000 C
ATOM     20  C4  BGC C   2      42.719  23.324   4.8060  0.00  0.00     0.000 C
ATOM     21  C5  BGC C   2      42.637  21.834   5.1210  0.00  0.00     0.000 C
ATOM     22  O5  BGC C   2      43.912  21.278   5.2400  0.00  0.00     0.000 O
ATOM     23   O  BGC C   2      45.592  23.906   7.1100  0.00  0.00     0.000 O
ATOM     25  HD  BGC C   2      45.270  24.685   7.3060  0.00  0.00     0.000 HD
ATOM     25   O  BGC C   2      43.766  25.382   5.4030  0.00  0.00     0.000 O
ATOM     27  HD  BGC C   2      43.444  26.161   5.6000  0.00  0.00     0.000 HD
ATOM     27   C  BGC C   2      41.829  21.002   4.1030  0.00  0.00     0.000 C
ATOM     28   O  BGC C   2      42.319  21.195   2.7670  0.00  0.00     0.000 O
ATOM     30  HD  BGC C   2      41.997  21.975   2.9630  0.00  0.00     0.000 HD
BRANCH 17 30
ATOM     30  O4  BGC C   3      45.915  21.211   6.3310  0.00  0.00     0.000 O
BRANCH 30 34
ATOM     31  C1  BGC C   3      47.834  18.249   8.3020  0.00  0.00     0.000 C
ATOM     32  C2  BGC C   3      46.973  17.804   7.0950  0.00  0.00     0.000 C
ATOM     33  C3  BGC C   3      46.600  18.966   6.2420  0.00  0.00     0.000 C
ATOM     34  C4  BGC C   3      45.986  20.045   7.1380  0.00  0.00     0.000 C
ATOM     35  C5  BGC C   3      46.830  20.364   8.3990  0.00  0.00     0.000 C
ATOM     36  O5  BGC C   3      47.134  19.179   9.0910  0.00  0.00     0.000 O
ATOM     37   O  BGC C   3      47.495  16.818   6.2250  0.00  0.00     0.000 O
ATOM     39  HD  BGC C   3      47.037  17.550   6.2910  0.00  0.00     0.000 HD
ATOM     39   O  BGC C   3      45.663  18.549   5.2050  0.00  0.00     0.000 O
ATOM     41  HD  BGC C   3      45.205  19.281   5.2720  0.00  0.00     0.000 HD
ATOM     41   C  BGC C   3      46.155  21.313   9.4160  0.00  0.00     0.000 C
ATOM     42   O  BGC C   3      44.932  20.790  10.0470  0.00  0.00     0.000 O
ATOM     44  HD  BGC C   3      44.473  21.521  10.1140  0.00  0.00     0.000 HD
BRANCH 31 44
ATOM     44  O4  BGC C   4      48.182  17.163   9.0940  0.00  0.00     0.000 O
BRANCH 44 48
ATOM     45  C1  BGC C   4      51.165  15.483  11.3380  0.00  0.00     0.000 C
ATOM     46  C2  BGC C   4      50.565  16.743  12.0410  0.00  0.00     0.000 C
ATOM     47  C3  BGC C   4      49.305  17.003  11.2050  0.00  0.00     0.000 C
ATOM     48  C4  BGC C   4      49.439  17.084   9.6970  0.00  0.00     0.000 C
ATOM     49  C5  BGC C   4      50.055  15.748   9.2500  0.00  0.00     0.000 C
ATOM     50  O5  BGC C   4      51.252  15.509   9.9060  0.00  0.00     0.000 O
ATOM     51   O  BGC C   4      50.150  16.757  13.5230  0.00  0.00     0.000 O
ATOM     53  HD  BGC C   4      49.730  17.486  13.7280  0.00  0.00     0.000 HD
ATOM     53   O  BGC C   4      49.005  18.415  11.6270  0.00  0.00     0.000 O
ATOM     55  HD  BGC C   4      48.585  19.144  11.8310  0.00  0.00     0.000 HD
ATOM     55   C  BGC C   4      50.395  15.765   7.7820  0.00  0.00     0.000 C
ATOM     56   O  BGC C   4      51.264  16.821   7.3590  0.00  0.00     0.000 O
ATOM     58  HD  BGC C   4      50.844  17.550   7.5630  0.00  0.00     0.000 HD
BRANCH 45 58
ATOM     58  O4  BGC C   5      52.459  15.198  11.7820  0.00  0.00     0.000 O
BRANCH 58 62
ATOM     59  C1  BGC C   5      52.302  13.939  14.5640  0.00  0.00     0.000 C
ATOM     60  C2  BGC C   5      53.703  13.967  14.2060  0.00  0.00     0.000 C
ATOM     61  C3  BGC C   5      53.980  13.510  12.7760  0.00  0.00     0.000 C
ATOM     62  C4  BGC C   5      52.750  13.786  11.9230  0.00  0.00     0.000 C
ATOM     63  C5  BGC C   5      51.545  13.326  12.7110  0.00  0.00     0.000 C
ATOM     64  O5  BGC C   5      51.705  13.075  14.1060  0.00  0.00     0.000 O
ATOM     65   O  BGC C   5      51.753  10.996  12.1090  0.00  0.00     0.000 O
ATOM     67  HD  BGC C   5      51.390  11.762  11.9300  0.00  0.00     0.000 HD
ATOM     67   O  BGC C   5      51.753  10.996  12.1090  0.00  0.00     0.000 O
ATOM     69  HD  BGC C   5      51.390  11.762  11.9300  0.00  0.00     0.000 HD
ENDBRANCH 58 62
ENDBRANCH 45 58
ENDBRANCH 44 48
ENDBRANCH 31 44
ENDBRANCH 30 34
ENDBRANCH 17 30
ENDBRANCH 16 20
ENDBRANCH 1 16
TORSDOF 8
ENDMDL
MODEL 66
REMARK VINA RESULT:      -0.1     58.908     61.803
ROOT
ATOM      1  C1  BGC C   1      58.452  53.024   7.4140  0.00  0.00     0.000 C
ATOM      2  C2  BGC C   1      57.754  52.722   6.0880  0.00  0.00     0.000 C
ATOM      3  C3  BGC C   1      57.888  53.912   5.1450  0.00  0.00     0.000 C
ATOM      4  C4  BGC C   1      57.478  55.218   5.8050  0.00  0.00     0.000 C
ATOM      5  C5  BGC C   1      58.115  55.333   7.1880  0.00  0.00     0.000 C
ATOM      6  O5  BGC C   1      57.973  54.189   7.9690  0.00  0.00     0.000 O
ATOM      7   O  BGC C   1      58.375  51.587   5.5330  0.00  0.00     0.000 O
ATOM      9  HD  BGC C   1      57.595  51.900   5.3240  0.00  0.00     0.000 HD
ATOM      9   O  BGC C   1      57.112  53.638   3.9710  0.00  0.00     0.000 O
ATOM     11  HD  BGC C   1      56.332  53.952   3.7610  0.00  0.00     0.000 HD
ATOM     11   O  BGC C   1      57.918  56.267   4.9500  0.00  0.00     0.000 O
ATOM     13  HD  BGC C   1      57.139  56.581   4.7410  0.00  0.00     0.000 HD
ATOM     13   O  BGC C   1      56.065  56.234   8.2480  0.00  0.00     0.000 O
ATOM     15  HD  BGC C   1      55.285  56.548   8.0390  0.00  0.00     0.000 HD
ATOM     15   C  BGC C   1      57.455  56.514   7.9220  0.00  0.00     0.000 C
ENDROOT
BRANCH 1 16
ATOM     16  O4  BGC C   2      58.163  51.987   8.3210  0.00  0.00     0.000 O
BRANCH 16 20
ATOM     17  C1  BGC C   2      59.990  50.101  11.4480  0.00  0.00     0.000 C
ATOM     18  C2  BGC C   2      59.300  51.415  11.7760  0.00  0.00     0.000 C
ATOM     19  C3  BGC C   2      58.365  51.830  10.6490  0.00  0.00     0.000 C
ATOM     20  C4  BGC C   2      59.103  51.805   9.3530  0.00  0.00     0.000 C
ATOM     21  C5  BGC C   2      59.821  50.474   9.1570  0.00  0.00     0.000 C
ATOM     22  O5  BGC C   2      60.671  50.203  10.2300  0.00  0.00     0.000 O
ATOM     23   O  BGC C   2      58.570  51.262  13.0030  0.00  0.00     0.000 O
ATOM     25  HD  BGC C   2      57.805  51.664  12.9460  0.00  0.00     0.000 HD
ATOM     25   O  BGC C   2      57.881  53.144  10.9030  0.00  0.00     0.000 O
ATOM     27  HD  BGC C   2      57.116  53.545  10.8460  0.00  0.00     0.000 HD
ATOM     27   C  BGC C   2      60.630  50.363   7.8480  0.00  0.00     0.000 C
ATOM     28   O  BGC C   2      61.562  51.449   7.7180  0.00  0.00     0.000 O
ATOM     30  HD  BGC C   2      60.797  51.851   7.6610  0.00  0.00     0.000 HD
BRANCH 17 30
ATOM     30  O4  BGC C   3      60.925  49.800  12.4620  0.00  0.00     0.000 O
BRANCH 30 34
ATOM     31  C1  BGC C   3      62.440  46.654  14.4980  0.00  0.00     0.000 C
ATOM     32  C2  BGC C   3      63.096  46.945  13.1280  0.00  0.00     0.000 C
ATOM     33  C3  BGC C   3      62.721  48.296  12.6260  0.00  0.00     0.000 C
ATOM     34  C4  BGC C   3      61.196  48.423  12.6770  0.00  0.00     0.000 C
ATOM     35  C5  BGC C   3      60.578  48.000  14.0340  0.00  0.00     0.000 C
ATOM     36  O5  BGC C   3      61.039  46.723  14.3980  0.00  0.00     0.000 O
ATOM     37   O  BGC C   3      64.505  46.855  13.0250  0.00  0.00     0.000 O
ATOM     39  HD  BGC C   3      63.791  47.281  12.7810  0.00  0.00     0.000 HD
ATOM     39   O  BGC C   3      63.220  48.487  11.2700  0.00  0.00     0.000 O
ATOM     41  HD  BGC C   3      62.506  48.912  11.0260  0.00  0.00     0.000 HD
ATOM     41   C  BGC C   3      59.034  47.942  14.0620  0.00  0.00     0.000 C
ATOM     42   O  BGC C   3      58.428  46.935  13.1750  0.00  0.00     0.000 O
ATOM     44  HD  BGC C   3      57.714  47.360  12.9310  0.00  0.00     0.000 HD
BRANCH 31 44
ATOM     44  O4  BGC C   4      62.793  45.394  14.9630  0.00  0.00     0.000 O
BRANCH 44 48
ATOM     45  C1  BGC C   4      63.791  43.215  18.2820  0.00  0.00     0.000 C
ATOM     46  C2  BGC C   4      62.278  43.604  18.2900  0.00  0.00     0.000 C
ATOM     47  C3  BGC C   4      62.074  44.116  16.8580  0.00  0.00     0.000 C
ATOM     48  C4  BGC C   4      63.026  45.166  16.3210  0.00  0.00     0.000 C
ATOM     49  C5  BGC C   4      64.435  44.560  16.4270  0.00  0.00     0.000 C
ATOM     50  O5  BGC C   4      64.711  44.167  17.7260  0.00  0.00     0.000 O
ATOM     51   O  BGC C   4      61.155  42.593  18.5870  0.00  0.00     0.000 O
ATOM     53  HD  BGC C   4      60.373  42.935  18.4380  0.00  0.00     0.000 HD
ATOM     53   O  BGC C   4      60.773  44.851  17.0330  0.00  0.00     0.000 O
ATOM     55  HD  BGC C   4      59.991  45.192  16.8840  0.00  0.00     0.000 HD
ATOM     55   C  BGC C   4      65.495  45.571  16.0760  0.00  0.00     0.000 C
ATOM     56   O  BGC C   4      65.473  46.783  16.8380  0.00  0.00     0.000 O
ATOM     58  HD  BGC C   4      64.691  47.124  16.6900  0.00  0.00     0.000 HD
BRANCH 45 58
ATOM     58  O4  BGC C   5      64.272  42.942  19.5640  0.00  0.00     0.000 O
BRANCH 58 62
ATOM     59  C1  BGC C   5      63.265  40.190  20.4390  0.00  0.00     0.000 C
ATOM     60  C2  BGC C   5      64.096  40.682  21.5160  0.00  0.00     0.000 C
ATOM     61  C3  BGC C   5      65.407  41.305  21.0430  0.00  0.00     0.000 C
ATOM     62  C4  BGC C   5      65.216  41.845  19.6330  0.00  0.00     0.000 C
ATOM     63  C5  BGC C   5      64.480  40.788  18.8430  0.00  0.00     0.000 C
ATOM     64  O5  BGC C   5      63.838  39.734  19.5580  0.00  0.00     0.000 O
ATOM     65   O  BGC C   5      66.440  39.467  18.3450  0.00  0.00     0.000 O
ATOM     67  HD  BGC C   5      65.901  40.091  18.0830  0.00  0.00     0.000 HD
ATOM     67   O  BGC C   5      66.440  39.467  18.3450  0.00  0.00     0.000 O
ATOM     69  HD  BGC C   5      65.901  40.091  18.0830  0.00  0.00     0.000 HD
ENDBRANCH 58 62
ENDBRANCH 45 58
ENDBRANCH 44 48
ENDBRANCH 31 44
ENDBRANCH 30 34
ENDBRANCH 17 30
ENDBRANCH 16 20
ENDBRANCH 1 16
TORSDOF 8
ENDMDL
MODEL 67
REMARK VINA RESULT:      -0.1     57.996     64.875
ROOT
ATOM      1  C1  BGC C   1      44.824  34.733  67.3580  0.00  0.00     0.000 C
ATOM      2  C2  BGC C   1      44.476  33.309  67.7910  0.00  0.00     0.000 C
ATOM      3  C3  BGC C   1      44.518  33.201  69.3100  0.00  0.00     0.000 C
ATOM      4  C4  BGC C   1      45.809  33.754  69.8910  0.00  0.00     0.000 C
ATOM      5  C5  BGC C   1      46.131  35.108  69.2670  0.00  0.00     0.000 C
ATOM      6  O5  BGC C   1      46.036  35.124  67.8780  0.00  0.00     0.000 O
ATOM      7   O  BGC C   1      43.181  33.028  67.3160  0.00  0.00     0.000 O
ATOM      9  HD  BGC C   1      43.774  32.448  67.5650  0.00  0.00     0.000 HD
ATOM      9   O  BGC C   1      44.316  31.826  69.6640  0.00  0.00     0.000 O
ATOM     11  HD  BGC C   1      44.909  31.246  69.9130  0.00  0.00     0.000 HD
ATOM     11   O  BGC C   1      45.611  33.871  71.2960  0.00  0.00     0.000 O
ATOM     13  HD  BGC C   1      46.204  33.291  71.5450  0.00  0.00     0.000 HD
ATOM     13   O  BGC C   1      48.549  34.622  69.0330  0.00  0.00     0.000 O
ATOM     15  HD  BGC C   1      49.142  34.042  69.2820  0.00  0.00     0.000 HD
ATOM     15   C  BGC C   1      47.568  35.490  69.6650  0.00  0.00     0.000 C
ENDROOT
BRANCH 1 16
ATOM     16  O4  BGC C   2      44.950  34.759  65.9550  0.00  0.00     0.000 O
BRANCH 16 20
ATOM     17  C1  BGC C   2      44.305  37.396  62.9040  0.00  0.00     0.000 C
ATOM     18  C2  BGC C   2      45.625  37.545  63.6440  0.00  0.00     0.000 C
ATOM     19  C3  BGC C   2      45.912  36.312  64.4900  0.00  0.00     0.000 C
ATOM     20  C4  BGC C   2      44.731  36.011  65.3510  0.00  0.00     0.000 C
ATOM     21  C5  BGC C   2      43.450  35.959  64.5240  0.00  0.00     0.000 C
ATOM     22  O5  BGC C   2      43.269  37.145  63.8100  0.00  0.00     0.000 O
ATOM     23   O  BGC C   2      46.673  37.749  62.6840  0.00  0.00     0.000 O
ATOM     25  HD  BGC C   2      47.379  37.305  62.9160  0.00  0.00     0.000 HD
ATOM     25   O  BGC C   2      47.052  36.560  65.3050  0.00  0.00     0.000 O
ATOM     27  HD  BGC C   2      47.758  36.115  65.5360  0.00  0.00     0.000 HD
ATOM     27   C  BGC C   2      42.169  35.672  65.3360  0.00  0.00     0.000 C
ATOM     28   O  BGC C   2      42.019  36.605  66.4190  0.00  0.00     0.000 O
ATOM     30  HD  BGC C   2      42.725  36.160  66.6500  0.00  0.00     0.000 HD
BRANCH 17 30
ATOM     30  O4  BGC C   3      44.019  38.594  62.2150  0.00  0.00     0.000 O
BRANCH 30 34
ATOM     31  C1  BGC C   3      42.386  39.912  58.7610  0.00  0.00     0.000 C
ATOM     32  C2  BGC C   3      41.387  39.610  59.9030  0.00  0.00     0.000 C
ATOM     33  C3  BGC C   3      42.088  39.473  61.2100  0.00  0.00     0.000 C
ATOM     34  C4  BGC C   3      43.232  38.470  61.0410  0.00  0.00     0.000 C
ATOM     35  C5  BGC C   3      44.129  38.747  59.8070  0.00  0.00     0.000 C
ATOM     36  O5  BGC C   3      43.338  38.882  58.6540  0.00  0.00     0.000 O
ATOM     37   O  BGC C   3      40.316  40.511  60.1150  0.00  0.00     0.000 O
ATOM     39  HD  BGC C   3      40.905  39.993  60.4820  0.00  0.00     0.000 HD
ATOM     39   O  BGC C   3      41.153  39.036  62.2400  0.00  0.00     0.000 O
ATOM     41  HD  BGC C   3      41.742  38.518  62.6080  0.00  0.00     0.000 HD
ATOM     41   C  BGC C   3      45.179  37.654  59.5020  0.00  0.00     0.000 C
ATOM     42   O  BGC C   3      44.627  36.340  59.1320  0.00  0.00     0.000 O
ATOM     44  HD  BGC C   3      45.216  35.822  59.5000  0.00  0.00     0.000 HD
BRANCH 31 44
ATOM     44  O4  BGC C   4      41.728  40.041  57.5440  0.00  0.00     0.000 O
BRANCH 44 48
ATOM     45  C1  BGC C   4      41.601  42.116  54.0180  0.00  0.00     0.000 C
ATOM     46  C2  BGC C   4      42.850  41.179  54.0820  0.00  0.00     0.000 C
ATOM     47  C3  BGC C   4      42.528  40.304  55.3000  0.00  0.00     0.000 C
ATOM     48  C4  BGC C   4      42.139  40.983  56.5990  0.00  0.00     0.000 C
ATOM     49  C5  BGC C   4      40.909  41.847  56.2780  0.00  0.00     0.000 C
ATOM     50  O5  BGC C   4      41.175  42.729  55.2450  0.00  0.00     0.000 O
ATOM     51   O  BGC C   4      43.254  40.242  52.9300  0.00  0.00     0.000 O
ATOM     53  HD  BGC C   4      43.894  39.708  53.1650  0.00  0.00     0.000 HD
ATOM     53   O  BGC C   4      43.893  39.735  55.5740  0.00  0.00     0.000 O
ATOM     55  HD  BGC C   4      44.533  39.201  55.8090  0.00  0.00     0.000 HD
ATOM     55   C  BGC C   4      40.520  42.706  57.4530  0.00  0.00     0.000 C
ATOM     56   O  BGC C   4      41.548  43.565  57.9600  0.00  0.00     0.000 O
ATOM     58  HD  BGC C   4      42.189  43.031  58.1950  0.00  0.00     0.000 HD
BRANCH 45 58
ATOM     58  O4  BGC C   5      41.779  43.172  53.1210  0.00  0.00     0.000 O
BRANCH 58 62
ATOM     59  C1  BGC C   5      41.499  42.108  50.2670  0.00  0.00     0.000 C
ATOM     60  C2  BGC C   5      41.726  43.532  50.1520  0.00  0.00     0.000 C
ATOM     61  C3  BGC C   5      40.902  44.365  51.1300  0.00  0.00     0.000 C
ATOM     62  C4  BGC C   5      40.597  43.523  52.3600  0.00  0.00     0.000 C
ATOM     63  C5  BGC C   5      40.159  42.161  51.8740  0.00  0.00     0.000 C
ATOM     64  O5  BGC C   5      40.421  41.811  50.5160  0.00  0.00     0.000 O
ATOM     65   O  BGC C   5      37.872  42.801  51.4300  0.00  0.00     0.000 O
ATOM     67  HD  BGC C   5      38.433  42.459  51.9950  0.00  0.00     0.000 HD
ATOM     67   O  BGC C   5      37.872  42.801  51.4300  0.00  0.00     0.000 O
ATOM     69  HD  BGC C   5      38.433  42.459  51.9950  0.00  0.00     0.000 HD
ENDBRANCH 58 62
ENDBRANCH 45 58
ENDBRANCH 44 48
ENDBRANCH 31 44
ENDBRANCH 30 34
ENDBRANCH 17 30
ENDBRANCH 16 20
ENDBRANCH 1 16
TORSDOF 8
ENDMDL
MODEL 68
REMARK VINA RESULT:      -0.1     54.324     58.910
ROOT
ATOM      1  C1  BGC C   1      23.249  40.445  64.7170  0.00  0.00     0.000 C
ATOM      2  C2  BGC C   1      23.493  40.295  66.2190  0.00  0.00     0.000 C
ATOM      3  C3  BGC C   1      22.233  39.778  66.9030  0.00  0.00     0.000 C
ATOM      4  C4  BGC C   1      21.001  40.586  66.5280  0.00  0.00     0.000 C
ATOM      5  C5  BGC C   1      20.951  40.801  65.0170  0.00  0.00     0.000 C
ATOM      6  O5  BGC C   1      22.154  41.242  64.4730  0.00  0.00     0.000 O
ATOM      7   O  BGC C   1      24.550  39.382  66.3860  0.00  0.00     0.000 O
ATOM      9  HD  BGC C   1      24.265  39.951  66.9730  0.00  0.00     0.000 HD
ATOM      9   O  BGC C   1      22.464  39.779  68.3190  0.00  0.00     0.000 O
ATOM     11  HD  BGC C   1      22.178  40.348  68.9050  0.00  0.00     0.000 HD
ATOM     11   O  BGC C   1      19.871  39.846  66.9770  0.00  0.00     0.000 O
ATOM     13  HD  BGC C   1      19.586  40.416  67.5640  0.00  0.00     0.000 HD
ATOM     13   O  BGC C   1      20.240  43.167  65.2020  0.00  0.00     0.000 O
ATOM     15  HD  BGC C   1      19.955  43.736  65.7890  0.00  0.00     0.000 HD
ATOM     15   C  BGC C   1      19.863  41.848  64.7180  0.00  0.00     0.000 C
ENDROOT
BRANCH 1 16
ATOM     16  O4  BGC C   2      24.362  41.086  64.1420  0.00  0.00     0.000 O
BRANCH 16 20
ATOM     17  C1  BGC C   2      26.366  41.066  60.5840  0.00  0.00     0.000 C
ATOM     18  C2  BGC C   2      25.117  41.931  60.6390  0.00  0.00     0.000 C
ATOM     19  C3  BGC C   2      24.674  42.149  62.0780  0.00  0.00     0.000 C
ATOM     20  C4  BGC C   2      24.567  40.833  62.7720  0.00  0.00     0.000 C
ATOM     21  C5  BGC C   2      25.840  40.013  62.5920  0.00  0.00     0.000 C
ATOM     22  O5  BGC C   2      26.141  39.850  61.2390  0.00  0.00     0.000 O
ATOM     23   O  BGC C   2      25.397  43.188  60.0040  0.00  0.00     0.000 O
ATOM     25  HD  BGC C   2      25.034  43.835  60.4520  0.00  0.00     0.000 HD
ATOM     25   O  BGC C   2      23.410  42.802  62.0840  0.00  0.00     0.000 O
ATOM     27  HD  BGC C   2      23.047  43.448  62.5320  0.00  0.00     0.000 HD
ATOM     27   C  BGC C   2      25.814  38.623  63.2620  0.00  0.00     0.000 C
ATOM     28   O  BGC C   2      24.673  37.861  62.8340  0.00  0.00     0.000 O
ATOM     30  HD  BGC C   2      24.310  38.507  63.2820  0.00  0.00     0.000 HD
BRANCH 17 30
ATOM     30  O4  BGC C   3      26.688  40.797  59.2360  0.00  0.00     0.000 O
BRANCH 30 34
ATOM     31  C1  BGC C   3      29.886  40.350  56.8040  0.00  0.00     0.000 C
ATOM     32  C2  BGC C   3      29.464  39.089  57.5960  0.00  0.00     0.000 C
ATOM     33  C3  BGC C   3      28.102  39.249  58.1780  0.00  0.00     0.000 C
ATOM     34  C4  BGC C   3      28.060  40.570  58.9520  0.00  0.00     0.000 C
ATOM     35  C5  BGC C   3      28.611  41.779  58.1550  0.00  0.00     0.000 C
ATOM     36  O5  BGC C   3      29.885  41.480  57.6410  0.00  0.00     0.000 O
ATOM     37   O  BGC C   3      29.470  37.842  56.9270  0.00  0.00     0.000 O
ATOM     39  HD  BGC C   3      29.067  38.348  57.5040  0.00  0.00     0.000 HD
ATOM     39   O  BGC C   3      27.789  38.121  59.0460  0.00  0.00     0.000 O
ATOM     41  HD  BGC C   3      27.386  38.627  59.6220  0.00  0.00     0.000 HD
ATOM     41   C  BGC C   3      28.754  43.089  58.9650  0.00  0.00     0.000 C
ATOM     42   O  BGC C   3      29.726  43.040  60.0700  0.00  0.00     0.000 O
ATOM     44  HD  BGC C   3      29.323  43.546  60.6460  0.00  0.00     0.000 HD
BRANCH 31 44
ATOM     44  O4  BGC C   4      31.155  40.196  56.2620  0.00  0.00     0.000 O
BRANCH 44 48
ATOM     45  C1  BGC C   4      33.508  40.949  52.9980  0.00  0.00     0.000 C
ATOM     46  C2  BGC C   4      33.202  42.259  53.7940  0.00  0.00     0.000 C
ATOM     47  C3  BGC C   4      32.601  41.708  55.0930  0.00  0.00     0.000 C
ATOM     48  C4  BGC C   4      31.467  40.707  55.0000  0.00  0.00     0.000 C
ATOM     49  C5  BGC C   4      32.002  39.528  54.1710  0.00  0.00     0.000 C
ATOM     50  O5  BGC C   4      32.471  39.958  52.9410  0.00  0.00     0.000 O
ATOM     51   O  BGC C   4      34.290  43.277  54.1800  0.00  0.00     0.000 O
ATOM     53  HD  BGC C   4      33.981  43.884  54.7150  0.00  0.00     0.000 HD
ATOM     53   O  BGC C   4      31.951  42.956  55.6240  0.00  0.00     0.000 O
ATOM     55  HD  BGC C   4      31.642  43.563  56.1590  0.00  0.00     0.000 HD
ATOM     55   C  BGC C   4      30.914  38.533  53.8650  0.00  0.00     0.000 C
ATOM     56   O  BGC C   4      29.762  39.061  53.1970  0.00  0.00     0.000 O
ATOM     58  HD  BGC C   4      29.453  39.667  53.7320  0.00  0.00     0.000 HD
BRANCH 45 58
ATOM     58  O4  BGC C   5      33.845  41.207  51.6670  0.00  0.00     0.000 O
BRANCH 58 62
ATOM     59  C1  BGC C   5      36.703  42.292  51.5580  0.00  0.00     0.000 C
ATOM     60  C2  BGC C   5      36.244  42.210  50.1890  0.00  0.00     0.000 C
ATOM     61  C3  BGC C   5      35.520  40.906  49.8620  0.00  0.00     0.000 C
ATOM     62  C4  BGC C   5      34.892  40.359  51.1350  0.00  0.00     0.000 C
ATOM     63  C5  BGC C   5      35.928  40.468  52.2300  0.00  0.00     0.000 C
ATOM     64  O5  BGC C   5      37.063  41.302  52.0060  0.00  0.00     0.000 O
ATOM     65   O  BGC C   5      37.104  38.442  51.6350  0.00  0.00     0.000 O
ATOM     67  HD  BGC C   5      36.492  38.808  52.1270  0.00  0.00     0.000 HD
ATOM     67   O  BGC C   5      37.104  38.442  51.6350  0.00  0.00     0.000 O
ATOM     69  HD  BGC C   5      36.492  38.808  52.1270  0.00  0.00     0.000 HD
ENDBRANCH 58 62
ENDBRANCH 45 58
ENDBRANCH 44 48
ENDBRANCH 31 44
ENDBRANCH 30 34
ENDBRANCH 17 30
ENDBRANCH 16 20
ENDBRANCH 1 16
TORSDOF 8
ENDMDL
MODEL 69
REMARK VINA RESULT:      -0.1     74.054     80.506
ROOT
ATOM      1  C1  BGC C   1      57.358  44.922  61.5660  0.00  0.00     0.000 C
ATOM      2  C2  BGC C   1      55.834  45.021  61.5490  0.00  0.00     0.000 C
ATOM      3  C3  BGC C   1      55.236  44.067  62.5760  0.00  0.00     0.000 C
ATOM      4  C4  BGC C   1      55.791  42.658  62.4430  0.00  0.00     0.000 C
ATOM      5  C5  BGC C   1      57.311  42.700  62.3120  0.00  0.00     0.000 C
ATOM      6  O5  BGC C   1      57.770  43.622  61.3760  0.00  0.00     0.000 O
ATOM      7   O  BGC C   1      55.494  46.351  61.8620  0.00  0.00     0.000 O
ATOM      9  HD  BGC C   1      54.983  45.767  61.4770  0.00  0.00     0.000 HD
ATOM      9   O  BGC C   1      53.810  44.097  62.4350  0.00  0.00     0.000 O
ATOM     11  HD  BGC C   1      53.299  43.513  62.0490  0.00  0.00     0.000 HD
ATOM     11   O  BGC C   1      55.397  41.949  63.6130  0.00  0.00     0.000 O
ATOM     13  HD  BGC C   1      54.887  41.365  63.2270  0.00  0.00     0.000 HD
ATOM     13   O  BGC C   1      57.381  40.965  60.5450  0.00  0.00     0.000 O
ATOM     15  HD  BGC C   1      56.871  40.381  60.1590  0.00  0.00     0.000 HD
ATOM     15   C  BGC C   1      57.795  41.298  61.8990  0.00  0.00     0.000 C
ENDROOT
BRANCH 1 16
ATOM     16  O4  BGC C   2      57.871  45.677  60.4950  0.00  0.00     0.000 O
BRANCH 16 20
ATOM     17  C1  BGC C   2      61.206  47.884  59.6660  0.00  0.00     0.000 C
ATOM     18  C2  BGC C   2      61.340  46.381  59.4780  0.00  0.00     0.000 C
ATOM     19  C3  BGC C   2      59.971  45.715  59.4580  0.00  0.00     0.000 C
ATOM     20  C4  BGC C   2      59.191  46.140  60.6560  0.00  0.00     0.000 C
ATOM     21  C5  BGC C   2      59.183  47.659  60.7950  0.00  0.00     0.000 C
ATOM     22  O5  BGC C   2      60.484  48.164  60.8310  0.00  0.00     0.000 O
ATOM     23   O  BGC C   2      62.040  46.127  58.2510  0.00  0.00     0.000 O
ATOM     25  HD  BGC C   2      61.681  45.457  57.8370  0.00  0.00     0.000 HD
ATOM     25   O  BGC C   2      60.138  44.303  59.4680  0.00  0.00     0.000 O
ATOM     27  HD  BGC C   2      59.779  43.632  59.0540  0.00  0.00     0.000 HD
ATOM     27   C  BGC C   2      58.413  48.192  62.0210  0.00  0.00     0.000 C
ATOM     28   O  BGC C   2      58.889  47.590  63.2360  0.00  0.00     0.000 O
ATOM     30  HD  BGC C   2      58.530  46.919  62.8220  0.00  0.00     0.000 HD
BRANCH 17 30
ATOM     30  O4  BGC C   3      62.491  48.455  59.7860  0.00  0.00     0.000 O
BRANCH 30 34
ATOM     31  C1  BGC C   3      64.560  51.770  58.7530  0.00  0.00     0.000 C
ATOM     32  C2  BGC C   3      63.717  51.881  60.0460  0.00  0.00     0.000 C
ATOM     33  C3  BGC C   3      63.284  50.538  60.5230  0.00  0.00     0.000 C
ATOM     34  C4  BGC C   3      62.622  49.801  59.3560  0.00  0.00     0.000 C
ATOM     35  C5  BGC C   3      63.454  49.828  58.0480  0.00  0.00     0.000 C
ATOM     36  O5  BGC C   3      63.818  51.149  57.7330  0.00  0.00     0.000 O
ATOM     37   O  BGC C   3      64.283  52.541  61.1630  0.00  0.00     0.000 O
ATOM     39  HD  BGC C   3      63.790  51.884  60.8890  0.00  0.00     0.000 HD
ATOM     39   O  BGC C   3      62.365  50.675  61.6470  0.00  0.00     0.000 O
ATOM     41  HD  BGC C   3      61.872  50.018  61.3730  0.00  0.00     0.000 HD
ATOM     41   C  BGC C   3      62.738  49.254  56.8040  0.00  0.00     0.000 C
ATOM     42   O  BGC C   3      61.544  49.998  56.3690  0.00  0.00     0.000 O
ATOM     44  HD  BGC C   3      61.050  49.341  56.0940  0.00  0.00     0.000 HD
BRANCH 31 44
ATOM     44  O4  BGC C   4      64.962  53.024  58.3120  0.00  0.00     0.000 O
BRANCH 44 48
ATOM     45  C1  BGC C   4      68.032  55.147  56.6290  0.00  0.00     0.000 C
ATOM     46  C2  BGC C   4      67.373  54.180  55.5940  0.00  0.00     0.000 C
ATOM     47  C3  BGC C   4      66.099  53.745  56.3290  0.00  0.00     0.000 C
ATOM     48  C4  BGC C   4      66.224  53.218  57.7450  0.00  0.00     0.000 C
ATOM     49  C5  BGC C   4      66.903  54.331  58.5590  0.00  0.00     0.000 C
ATOM     50  O5  BGC C   4      68.112  54.696  57.9900  0.00  0.00     0.000 O
ATOM     51   O  BGC C   4      66.964  54.622  54.1770  0.00  0.00     0.000 O
ATOM     53  HD  BGC C   4      66.510  54.007  53.7710  0.00  0.00     0.000 HD
ATOM     53   O  BGC C   4      65.733  52.536  55.5140  0.00  0.00     0.000 O
ATOM     55  HD  BGC C   4      65.279  51.920  55.1080  0.00  0.00     0.000 HD
ATOM     55   C  BGC C   4      67.236  53.867  59.9530  0.00  0.00     0.000 C
ATOM     56   O  BGC C   4      68.051  52.693  60.0370  0.00  0.00     0.000 O
ATOM     58  HD  BGC C   4      67.597  52.077  59.6320  0.00  0.00     0.000 HD
BRANCH 45 58
ATOM     58  O4  BGC C   5      69.339  55.488  56.2750  0.00  0.00     0.000 O
BRANCH 58 62
ATOM     59  C1  BGC C   5      69.254  57.518  53.9900  0.00  0.00     0.000 C
ATOM     60  C2  BGC C   5      70.651  57.319  54.3080  0.00  0.00     0.000 C
ATOM     61  C3  BGC C   5      70.945  57.320  55.8060  0.00  0.00     0.000 C
ATOM     62  C4  BGC C   5      69.700  56.863  56.5530  0.00  0.00     0.000 C
ATOM     63  C5  BGC C   5      68.522  57.592  55.9490  0.00  0.00     0.000 C
ATOM     64  O5  BGC C   5      68.699  58.235  54.6880  0.00  0.00     0.000 O
ATOM     65   O  BGC C   5      68.841  59.628  57.2090  0.00  0.00     0.000 O
ATOM     67  HD  BGC C   5      68.440  58.862  57.1580  0.00  0.00     0.000 HD
ATOM     67   O  BGC C   5      68.841  59.628  57.2090  0.00  0.00     0.000 O
ATOM     69  HD  BGC C   5      68.440  58.862  57.1580  0.00  0.00     0.000 HD
ENDBRANCH 58 62
ENDBRANCH 45 58
ENDBRANCH 44 48
ENDBRANCH 31 44
ENDBRANCH 30 34
ENDBRANCH 17 30
ENDBRANCH 16 20
ENDBRANCH 1 16
TORSDOF 8
ENDMDL
MODEL 70
REMARK VINA RESULT:      -0.1     33.307     42.689
ROOT
ATOM      1  C1  BGC C   1      27.341  32.998  53.1320  0.00  0.00     0.000 C
ATOM      2  C2  BGC C   1      26.443  34.139  53.6090  0.00  0.00     0.000 C
ATOM      3  C3  BGC C   1      26.975  34.709  54.9190  0.00  0.00     0.000 C
ATOM      4  C4  BGC C   1      27.243  33.626  55.9500  0.00  0.00     0.000 C
ATOM      5  C5  BGC C   1      28.011  32.470  55.3150  0.00  0.00     0.000 C
ATOM      6  O5  BGC C   1      27.474  32.035  54.1060  0.00  0.00     0.000 O
ATOM      7   O  BGC C   1      26.449  35.128  52.6070  0.00  0.00     0.000 O
ATOM      9  HD  BGC C   1      25.864  35.041  53.2400  0.00  0.00     0.000 HD
ATOM      9   O  BGC C   1      26.036  35.682  55.3940  0.00  0.00     0.000 O
ATOM     11  HD  BGC C   1      25.451  35.594  56.0270  0.00  0.00     0.000 HD
ATOM     11   O  BGC C   1      27.999  34.230  56.9940  0.00  0.00     0.000 O
ATOM     13  HD  BGC C   1      27.414  34.142  57.6270  0.00  0.00     0.000 HD
ATOM     13   O  BGC C   1      26.679  30.724  56.4620  0.00  0.00     0.000 O
ATOM     15  HD  BGC C   1      26.093  30.637  57.0940  0.00  0.00     0.000 HD
ATOM     15   C  BGC C   1      28.009  31.291  56.3050  0.00  0.00     0.000 C
ENDROOT
BRANCH 1 16
ATOM     16  O4  BGC C   2      26.731  32.380  52.0230  0.00  0.00     0.000 O
BRANCH 16 20
ATOM     17  C1  BGC C   2      27.889  30.470  48.6040  0.00  0.00     0.000 C
ATOM     18  C2  BGC C   2      27.874  29.622  49.8670  0.00  0.00     0.000 C
ATOM     19  C3  BGC C   2      27.095  30.317  50.9740  0.00  0.00     0.000 C
ATOM     20  C4  BGC C   2      27.605  31.708  51.1480  0.00  0.00     0.000 C
ATOM     21  C5  BGC C   2      27.652  32.445  49.8130  0.00  0.00     0.000 C
ATOM     22  O5  BGC C   2      28.412  31.738  48.8790  0.00  0.00     0.000 O
ATOM     23   O  BGC C   2      27.286  28.348  49.5630  0.00  0.00     0.000 O
ATOM     25  HD  BGC C   2      26.768  28.098  50.2100  0.00  0.00     0.000 HD
ATOM     25   O  BGC C   2      27.256  29.590  52.1860  0.00  0.00     0.000 O
ATOM     27  HD  BGC C   2      26.738  29.339  52.8340  0.00  0.00     0.000 HD
ATOM     27   C  BGC C   2      28.188  33.890  49.8910  0.00  0.00     0.000 C
ATOM     28   O  BGC C   2      29.478  33.933  50.5230  0.00  0.00     0.000 O
ATOM     30  HD  BGC C   2      28.960  33.683  51.1700  0.00  0.00     0.000 HD
BRANCH 17 30
ATOM     30  O4  BGC C   3      28.705  29.847  47.6350  0.00  0.00     0.000 O
BRANCH 30 34
ATOM     31  C1  BGC C   3      28.921  29.227  43.6470  0.00  0.00     0.000 C
ATOM     32  C2  BGC C   3      29.487  30.577  44.1480  0.00  0.00     0.000 C
ATOM     33  C3  BGC C   3      29.681  30.566  45.6240  0.00  0.00     0.000 C
ATOM     34  C4  BGC C   3      28.376  30.105  46.2790  0.00  0.00     0.000 C
ATOM     35  C5  BGC C   3      27.785  28.815  45.6550  0.00  0.00     0.000 C
ATOM     36  O5  BGC C   3      27.685  28.954  44.2600  0.00  0.00     0.000 O
ATOM     37   O  BGC C   3      30.699  31.047  43.5870  0.00  0.00     0.000 O
ATOM     39  HD  BGC C   3      30.217  30.975  44.3030  0.00  0.00     0.000 HD
ATOM     39   O  BGC C   3      30.065  31.892  46.0920  0.00  0.00     0.000 O
ATOM     41  HD  BGC C   3      29.583  31.820  46.8080  0.00  0.00     0.000 HD
ATOM     41   C  BGC C   3      26.380  28.424  46.1660  0.00  0.00     0.000 C
ATOM     42   O  BGC C   3      25.307  29.381  45.8480  0.00  0.00     0.000 O
ATOM     44  HD  BGC C   3      24.826  29.309  46.5640  0.00  0.00     0.000 HD
BRANCH 31 44
ATOM     44  O4  BGC C   4      28.743  29.242  42.2700  0.00  0.00     0.000 O
BRANCH 44 48
ATOM     45  C1  BGC C   4      29.051  27.032  38.8380  0.00  0.00     0.000 C
ATOM     46  C2  BGC C   4      27.864  26.539  39.7270  0.00  0.00     0.000 C
ATOM     47  C3  BGC C   4      27.749  27.670  40.7570  0.00  0.00     0.000 C
ATOM     48  C4  BGC C   4      28.998  28.106  41.4980  0.00  0.00     0.000 C
ATOM     49  C5  BGC C   4      30.009  28.528  40.4200  0.00  0.00     0.000 C
ATOM     50  O5  BGC C   4      30.227  27.504  39.5130  0.00  0.00     0.000 O
ATOM     51   O  BGC C   4      26.454  26.273  39.1700  0.00  0.00     0.000 O
ATOM     53  HD  BGC C   4      25.886  26.120  39.8050  0.00  0.00     0.000 HD
ATOM     53   O  BGC C   4      26.920  26.978  41.8050  0.00  0.00     0.000 O
ATOM     55  HD  BGC C   4      26.352  26.826  42.4400  0.00  0.00     0.000 HD
ATOM     55   C  BGC C   4      31.358  28.829  41.0210  0.00  0.00     0.000 C
ATOM     56   O  BGC C   4      31.943  27.773  41.7920  0.00  0.00     0.000 O
ATOM     58  HD  BGC C   4      31.374  27.620  42.4270  0.00  0.00     0.000 HD
BRANCH 45 58
ATOM     58  O4  BGC C   5      29.501  26.040  37.9630  0.00  0.00     0.000 O
BRANCH 58 62
ATOM     59  C1  BGC C   5      27.504  25.761  35.6640  0.00  0.00     0.000 C
ATOM     60  C2  BGC C   5      28.576  24.829  35.3900  0.00  0.00     0.000 C
ATOM     61  C3  BGC C   5      29.969  25.415  35.6080  0.00  0.00     0.000 C
ATOM     62  C4  BGC C   5      29.881  26.520  36.6500  0.00  0.00     0.000 C
ATOM     63  C5  BGC C   5      28.680  27.370  36.3020  0.00  0.00     0.000 C
ATOM     64  O5  BGC C   5      27.727  26.848  35.3790  0.00  0.00     0.000 O
ATOM     65   O  BGC C   5      29.812  28.691  34.6260  0.00  0.00     0.000 O
ATOM     67  HD  BGC C   5      29.571  28.623  35.4550  0.00  0.00     0.000 HD
ATOM     67   O  BGC C   5      29.812  28.691  34.6260  0.00  0.00     0.000 O
ATOM     69  HD  BGC C   5      29.571  28.623  35.4550  0.00  0.00     0.000 HD
ENDBRANCH 58 62
ENDBRANCH 45 58
ENDBRANCH 44 48
ENDBRANCH 31 44
ENDBRANCH 30 34
ENDBRANCH 17 30
ENDBRANCH 16 20
ENDBRANCH 1 16
TORSDOF 8
ENDMDL
MODEL 71
REMARK VINA RESULT:      -0.1     47.773     54.461
ROOT
ATOM      1  C1  BGC C   1      13.976  62.716  40.5910  0.00  0.00     0.000 C
ATOM      2  C2  BGC C   1      12.708  63.569  40.5650  0.00  0.00     0.000 C
ATOM      3  C3  BGC C   1      12.587  64.365  41.8590  0.00  0.00     0.000 C
ATOM      4  C4  BGC C   1      12.748  63.488  43.0900  0.00  0.00     0.000 C
ATOM      5  C5  BGC C   1      13.957  62.570  42.9310  0.00  0.00     0.000 C
ATOM      6  O5  BGC C   1      14.004  61.910  41.7060  0.00  0.00     0.000 O
ATOM      7   O  BGC C   1      12.808  64.440  39.4630  0.00  0.00     0.000 O
ATOM      9  HD  BGC C   1      12.083  64.228  39.8860  0.00  0.00     0.000 HD
ATOM      9   O  BGC C   1      11.326  65.046  41.8470  0.00  0.00     0.000 O
ATOM     11  HD  BGC C   1      10.601  64.833  42.2700  0.00  0.00     0.000 HD
ATOM     11   O  BGC C   1      12.912  64.363  44.2010  0.00  0.00     0.000 O
ATOM     13  HD  BGC C   1      12.187  64.151  44.6240  0.00  0.00     0.000 HD
ATOM     13   O  BGC C   1      12.803  60.595  43.8810  0.00  0.00     0.000 O
ATOM     15  HD  BGC C   1      12.078  60.383  44.3040  0.00  0.00     0.000 HD
ATOM     15   C  BGC C   1      13.913  61.519  44.0550  0.00  0.00     0.000 C
ENDROOT
BRANCH 1 16
ATOM     16  O4  BGC C   2      13.969  61.866  39.4690  0.00  0.00     0.000 O
BRANCH 16 20
ATOM     17  C1  BGC C   2      16.691  60.145  36.9570  0.00  0.00     0.000 C
ATOM     18  C2  BGC C   2      16.455  59.425  38.2750  0.00  0.00     0.000 C
ATOM     19  C3  BGC C   2      15.190  59.935  38.9500  0.00  0.00     0.000 C
ATOM     20  C4  BGC C   2      15.234  61.423  39.0370  0.00  0.00     0.000 C
ATOM     21  C5  BGC C   2      15.552  62.042  37.6790  0.00  0.00     0.000 C
ATOM     22  O5  BGC C   2      16.742  61.528  37.1630  0.00  0.00     0.000 O
ATOM     23   O  BGC C   2      16.357  58.016  38.0220  0.00  0.00     0.000 O
ATOM     25  HD  BGC C   2      15.729  57.670  38.5080  0.00  0.00     0.000 HD
ATOM     25   O  BGC C   2      15.100  59.378  40.2560  0.00  0.00     0.000 O
ATOM     27  HD  BGC C   2      14.472  59.032  40.7420  0.00  0.00     0.000 HD
ATOM     27   C  BGC C   2      15.638  63.583  37.6760  0.00  0.00     0.000 C
ATOM     28   O  BGC C   2      16.571  64.054  38.6620  0.00  0.00     0.000 O
ATOM     30  HD  BGC C   2      15.943  63.708  39.1480  0.00  0.00     0.000 HD
BRANCH 17 30
ATOM     30  O4  BGC C   3      17.923  59.726  36.4110  0.00  0.00     0.000 O
BRANCH 30 34
ATOM     31  C1  BGC C   3      19.662  58.912  32.8540  0.00  0.00     0.000 C
ATOM     32  C2  BGC C   3      19.654  60.402  33.2710  0.00  0.00     0.000 C
ATOM     33  C3  BGC C   3      19.319  60.555  34.7140  0.00  0.00     0.000 C
ATOM     34  C4  BGC C   3      18.032  59.776  34.9960  0.00  0.00     0.000 C
ATOM     35  C5  BGC C   3      18.045  58.327  34.4460  0.00  0.00     0.000 C
ATOM     36  O5  BGC C   3      18.404  58.329  33.0870  0.00  0.00     0.000 O
ATOM     37   O  BGC C   3      20.822  61.169  33.0470  0.00  0.00     0.000 O
ATOM     39  HD  BGC C   3      20.157  61.009  33.5780  0.00  0.00     0.000 HD
ATOM     39   O  BGC C   3      19.164  61.966  35.0490  0.00  0.00     0.000 O
ATOM     41  HD  BGC C   3      18.498  61.806  35.5800  0.00  0.00     0.000 HD
ATOM     41   C  BGC C   3      16.700  57.573  34.5510  0.00  0.00     0.000 C
ATOM     42   O  BGC C   3      15.598  58.143  33.7570  0.00  0.00     0.000 O
ATOM     44  HD  BGC C   3      14.933  57.983  34.2870  0.00  0.00     0.000 HD
BRANCH 31 44
ATOM     44  O4  BGC C   4      19.977  58.774  31.5080  0.00  0.00     0.000 O
BRANCH 44 48
ATOM     45  C1  BGC C   4      22.012  56.514  28.7680  0.00  0.00     0.000 C
ATOM     46  C2  BGC C   4      20.758  55.756  29.3120  0.00  0.00     0.000 C
ATOM     47  C3  BGC C   4      20.007  56.873  30.0490  0.00  0.00     0.000 C
ATOM     48  C4  BGC C   4      20.766  57.713  31.0580  0.00  0.00     0.000 C
ATOM     49  C5  BGC C   4      21.945  58.337  30.2950  0.00  0.00     0.000 C
ATOM     50  O5  BGC C   4      22.717  57.362  29.6870  0.00  0.00     0.000 O
ATOM     51   O  BGC C   4      19.748  55.043  28.3950  0.00  0.00     0.000 O
ATOM     53  HD  BGC C   4      19.053  54.774  28.8370  0.00  0.00     0.000 HD
ATOM     53   O  BGC C   4      19.073  56.043  30.8850  0.00  0.00     0.000 O
ATOM     55  HD  BGC C   4      18.378  55.775  31.3270  0.00  0.00     0.000 HD
ATOM     55   C  BGC C   4      22.876  59.069  31.2270  0.00  0.00     0.000 C
ATOM     56   O  BGC C   4      23.405  58.293  32.3080  0.00  0.00     0.000 O
ATOM     58  HD  BGC C   4      22.711  58.024  32.7500  0.00  0.00     0.000 HD
BRANCH 45 58
ATOM     58  O4  BGC C   5      22.976  55.640  28.2580  0.00  0.00     0.000 O
BRANCH 58 62
ATOM     59  C1  BGC C   5      22.044  54.615  25.5320  0.00  0.00     0.000 C
ATOM     60  C2  BGC C   5      23.345  54.027  25.7670  0.00  0.00     0.000 C
ATOM     61  C3  BGC C   5      24.376  55.015  26.3080  0.00  0.00     0.000 C
ATOM     62  C4  BGC C   5      23.651  56.116  27.0680  0.00  0.00     0.000 C
ATOM     63  C5  BGC C   5      22.472  56.542  26.2250  0.00  0.00     0.000 C
ATOM     64  O5  BGC C   5      22.066  55.695  25.1520  0.00  0.00     0.000 O
ATOM     65   O  BGC C   5      23.738  58.016  24.7890  0.00  0.00     0.000 O
ATOM     67  HD  BGC C   5      23.249  57.940  25.5000  0.00  0.00     0.000 HD
ATOM     67   O  BGC C   5      23.738  58.016  24.7890  0.00  0.00     0.000 O
ATOM     69  HD  BGC C   5      23.249  57.940  25.5000  0.00  0.00     0.000 HD
ENDBRANCH 58 62
ENDBRANCH 45 58
ENDBRANCH 44 48
ENDBRANCH 31 44
ENDBRANCH 30 34
ENDBRANCH 17 30
ENDBRANCH 16 20
ENDBRANCH 1 16
TORSDOF 8
ENDMDL
MODEL 72
REMARK VINA RESULT:      -0.1     55.907     58.336
ROOT
ATOM      1  C1  BGC C   1      35.006  29.486  60.6760  0.00  0.00     0.000 C
ATOM      2  C2  BGC C   1      33.514  29.166  60.5850  0.00  0.00     0.000 C
ATOM      3  C3  BGC C   1      32.715  30.452  60.4090  0.00  0.00     0.000 C
ATOM      4  C4  BGC C   1      33.087  31.506  61.4390  0.00  0.00     0.000 C
ATOM      5  C5  BGC C   1      34.605  31.623  61.5500  0.00  0.00     0.000 C
ATOM      6  O5  BGC C   1      35.255  30.399  61.6750  0.00  0.00     0.000 O
ATOM      7   O  BGC C   1      33.330  28.320  59.4750  0.00  0.00     0.000 O
ATOM      9  HD  BGC C   1      32.779  28.431  60.1340  0.00  0.00     0.000 HD
ATOM      9   O  BGC C   1      31.321  30.120  60.4610  0.00  0.00     0.000 O
ATOM     11  HD  BGC C   1      30.770  30.231  61.1200  0.00  0.00     0.000 HD
ATOM     11   O  BGC C   1      32.510  32.731  61.0010  0.00  0.00     0.000 O
ATOM     13  HD  BGC C   1      31.959  32.842  61.6600  0.00  0.00     0.000 HD
ATOM     13   O  BGC C   1      34.585  31.793  64.0210  0.00  0.00     0.000 O
ATOM     15  HD  BGC C   1      34.035  31.904  64.6810  0.00  0.00     0.000 HD
ATOM     15   C  BGC C   1      34.930  32.480  62.7870  0.00  0.00     0.000 C
ENDROOT
BRANCH 1 16
ATOM     16  O4  BGC C   2      35.699  28.307  61.0130  0.00  0.00     0.000 O
BRANCH 16 20
ATOM     17  C1  BGC C   2      39.352  26.630  60.2940  0.00  0.00     0.000 C
ATOM     18  C2  BGC C   2      39.301  27.656  61.4160  0.00  0.00     0.000 C
ATOM     19  C3  BGC C   2      37.862  27.931  61.8290  0.00  0.00     0.000 C
ATOM     20  C4  BGC C   2      37.051  28.267  60.6230  0.00  0.00     0.000 C
ATOM     21  C5  BGC C   2      37.233  27.216  59.5310  0.00  0.00     0.000 C
ATOM     22  O5  BGC C   2      38.582  27.061  59.2090  0.00  0.00     0.000 O
ATOM     23   O  BGC C   2      40.057  27.161  62.5310  0.00  0.00     0.000 O
ATOM     25  HD  BGC C   2      39.647  27.342  63.2720  0.00  0.00     0.000 HD
ATOM     25   O  BGC C   2      37.839  29.021  62.7430  0.00  0.00     0.000 O
ATOM     27  HD  BGC C   2      37.428  29.202  63.4840  0.00  0.00     0.000 HD
ATOM     27   C  BGC C   2      36.445  27.490  58.2330  0.00  0.00     0.000 C
ATOM     28   O  BGC C   2      36.737  28.797  57.7130  0.00  0.00     0.000 O
ATOM     30  HD  BGC C   2      36.327  28.978  58.4530  0.00  0.00     0.000 HD
BRANCH 17 30
ATOM     30  O4  BGC C   3      40.688  26.477  59.8650  0.00  0.00     0.000 O
BRANCH 30 34
ATOM     31  C1  BGC C   3      43.254  23.644  58.5510  0.00  0.00     0.000 C
ATOM     32  C2  BGC C   3      42.333  24.266  57.4740  0.00  0.00     0.000 C
ATOM     33  C3  BGC C   3      41.689  25.514  57.9720  0.00  0.00     0.000 C
ATOM     34  C4  BGC C   3      41.031  25.211  59.3210  0.00  0.00     0.000 C
ATOM     35  C5  BGC C   3      41.960  24.475  60.3190  0.00  0.00     0.000 C
ATOM     36  O5  BGC C   3      42.520  23.338  59.7100  0.00  0.00     0.000 O
ATOM     37   O  BGC C   3      42.891  24.579  56.2120  0.00  0.00     0.000 O
ATOM     39  HD  BGC C   3      42.339  24.819  56.8340  0.00  0.00     0.000 HD
ATOM     39   O  BGC C   3      40.711  25.996  57.0050  0.00  0.00     0.000 O
ATOM     41  HD  BGC C   3      40.158  26.236  57.6270  0.00  0.00     0.000 HD
ATOM     41   C  BGC C   3      41.276  23.993  61.6190  0.00  0.00     0.000 C
ATOM     42   O  BGC C   3      40.229  22.973  61.4350  0.00  0.00     0.000 O
ATOM     44  HD  BGC C   3      39.676  23.212  62.0570  0.00  0.00     0.000 HD
BRANCH 31 44
ATOM     44  O4  BGC C   4      43.854  22.482  58.0820  0.00  0.00     0.000 O
BRANCH 44 48
ATOM     45  C1  BGC C   4      47.302  20.276  58.0620  0.00  0.00     0.000 C
ATOM     46  C2  BGC C   4      46.606  20.231  59.4600  0.00  0.00     0.000 C
ATOM     47  C3  BGC C   4      45.231  20.837  59.1500  0.00  0.00     0.000 C
ATOM     48  C4  BGC C   4      45.171  22.164  58.4200  0.00  0.00     0.000 C
ATOM     49  C5  BGC C   4      45.925  21.959  57.0960  0.00  0.00     0.000 C
ATOM     50  O5  BGC C   4      47.213  21.503  57.3230  0.00  0.00     0.000 O
ATOM     51   O  BGC C   4      46.373  18.924  60.2390  0.00  0.00     0.000 O
ATOM     53  HD  BGC C   4      45.875  19.054  60.9350  0.00  0.00     0.000 HD
ATOM     53   O  BGC C   4      44.774  21.161  60.5460  0.00  0.00     0.000 O
ATOM     55  HD  BGC C   4      44.276  21.291  61.2420  0.00  0.00     0.000 HD
ATOM     55   C  BGC C   4      46.081  23.256  56.3460  0.00  0.00     0.000 C
ATOM     56   O  BGC C   4      46.724  24.315  57.0660  0.00  0.00     0.000 O
ATOM     58  HD  BGC C   4      46.226  24.445  57.7620  0.00  0.00     0.000 HD
BRANCH 45 58
ATOM     58  O4  BGC C   5      48.667  19.992  58.1440  0.00  0.00     0.000 O
BRANCH 58 62
ATOM     59  C1  BGC C   5      49.034  16.985  58.5600  0.00  0.00     0.000 C
ATOM     60  C2  BGC C   5      50.363  17.552  58.4840  0.00  0.00     0.000 C
ATOM     61  C3  BGC C   5      50.534  18.562  57.3520  0.00  0.00     0.000 C
ATOM     62  C4  BGC C   5      49.184  19.196  57.0490  0.00  0.00     0.000 C
ATOM     63  C5  BGC C   5      48.165  18.081  57.0040  0.00  0.00     0.000 C
ATOM     64  O5  BGC C   5      48.525  16.813  57.5490  0.00  0.00     0.000 O
ATOM     65   O  BGC C   5      48.650  17.417  54.7330  0.00  0.00     0.000 O
ATOM     67  HD  BGC C   5      48.157  17.897  55.2590  0.00  0.00     0.000 HD
ATOM     67   O  BGC C   5      48.650  17.417  54.7330  0.00  0.00     0.000 O
ATOM     69  HD  BGC C   5      48.157  17.897  55.2590  0.00  0.00     0.000 HD
ENDBRANCH 58 62
ENDBRANCH 45 58
ENDBRANCH 44 48
ENDBRANCH 31 44
ENDBRANCH 30 34
ENDBRANCH 17 30
ENDBRANCH 16 20
ENDBRANCH 1 16
TORSDOF 8
ENDMDL
MODEL 73
REMARK VINA RESULT:      -0.1     47.803     52.695
ROOT
ATOM      1  C1  BGC C   1      25.056   5.973  58.5280  0.00  0.00     0.000 C
ATOM      2  C2  BGC C   1      25.678   4.853  59.3600  0.00  0.00     0.000 C
ATOM      3  C3  BGC C   1      26.165   3.733  58.4480  0.00  0.00     0.000 C
ATOM      4  C4  BGC C   1      25.097   3.288  57.4640  0.00  0.00     0.000 C
ATOM      5  C5  BGC C   1      24.441   4.501  56.8110  0.00  0.00     0.000 C
ATOM      6  O5  BGC C   1      24.057   5.487  57.7150  0.00  0.00     0.000 O
ATOM      7   O  BGC C   1      26.757   5.406  60.0750  0.00  0.00     0.000 O
ATOM      9  HD  BGC C   1      26.348   4.664  60.2550  0.00  0.00     0.000 HD
ATOM      9   O  BGC C   1      26.619   2.652  59.2730  0.00  0.00     0.000 O
ATOM     11  HD  BGC C   1      26.210   1.910  59.4540  0.00  0.00     0.000 HD
ATOM     11   O  BGC C   1      25.745   2.472  56.4940  0.00  0.00     0.000 O
ATOM     13  HD  BGC C   1      25.336   1.730  56.6740  0.00  0.00     0.000 HD
ATOM     13   O  BGC C   1      22.153   3.563  56.9600  0.00  0.00     0.000 O
ATOM     15  HD  BGC C   1      21.744   2.821  57.1400  0.00  0.00     0.000 HD
ATOM     15   C  BGC C   1      23.192   4.019  56.0500  0.00  0.00     0.000 C
ENDROOT
BRANCH 1 16
ATOM     16  O4  BGC C   2      24.460   6.904  59.4000  0.00  0.00     0.000 O
BRANCH 16 20
ATOM     17  C1  BGC C   2      23.751  10.924  59.5150  0.00  0.00     0.000 C
ATOM     18  C2  BGC C   2      22.751  10.095  58.7240  0.00  0.00     0.000 C
ATOM     19  C3  BGC C   2      22.900   8.616  59.0490  0.00  0.00     0.000 C
ATOM     20  C4  BGC C   2      24.327   8.211  58.8930  0.00  0.00     0.000 C
ATOM     21  C5  BGC C   2      25.251   9.150  59.6620  0.00  0.00     0.000 C
ATOM     22  O5  BGC C   2      25.053  10.475  59.2700  0.00  0.00     0.000 O
ATOM     23   O  BGC C   2      21.425  10.547  59.0360  0.00  0.00     0.000 O
ATOM     25  HD  BGC C   2      20.890   9.870  59.1100  0.00  0.00     0.000 HD
ATOM     25   O  BGC C   2      22.084   7.858  58.1630  0.00  0.00     0.000 O
ATOM     27  HD  BGC C   2      21.549   7.181  58.2370  0.00  0.00     0.000 HD
ATOM     27   C  BGC C   2      26.753   8.820  59.5430  0.00  0.00     0.000 C
ATOM     28   O  BGC C   2      27.162   8.745  58.1670  0.00  0.00     0.000 O
ATOM     30  HD  BGC C   2      26.627   8.068  58.2410  0.00  0.00     0.000 HD
BRANCH 17 30
ATOM     30  O4  BGC C   3      23.657  12.274  59.1130  0.00  0.00     0.000 O
BRANCH 30 34
ATOM     31  C1  BGC C   3      23.874  16.018  60.6210  0.00  0.00     0.000 C
ATOM     32  C2  BGC C   3      25.227  15.362  60.2570  0.00  0.00     0.000 C
ATOM     33  C3  BGC C   3      25.030  14.157  59.4040  0.00  0.00     0.000 C
ATOM     34  C4  BGC C   3      24.008  13.245  60.0880  0.00  0.00     0.000 C
ATOM     35  C5  BGC C   3      22.722  13.979  60.5450  0.00  0.00     0.000 C
ATOM     36  O5  BGC C   3      23.056  15.107  61.3130  0.00  0.00     0.000 O
ATOM     37   O  BGC C   3      26.206  16.155  59.6100  0.00  0.00     0.000 O
ATOM     39  HD  BGC C   3      25.835  15.375  59.6680  0.00  0.00     0.000 HD
ATOM     39   O  BGC C   3      26.299  13.468  59.2030  0.00  0.00     0.000 O
ATOM     41  HD  BGC C   3      25.928  12.688  59.2610  0.00  0.00     0.000 HD
ATOM     41   C  BGC C   3      21.751  13.130  61.3980  0.00  0.00     0.000 C
ATOM     42   O  BGC C   3      22.279  12.693  62.7020  0.00  0.00     0.000 O
ATOM     44  HD  BGC C   3      21.908  11.913  62.7590  0.00  0.00     0.000 HD
BRANCH 31 44
ATOM     44  O4  BGC C   4      24.063  17.142  61.4150  0.00  0.00     0.000 O
BRANCH 44 48
ATOM     45  C1  BGC C   4      22.767  20.950  62.1770  0.00  0.00     0.000 C
ATOM     46  C2  BGC C   4      21.720  19.888  62.6430  0.00  0.00     0.000 C
ATOM     47  C3  BGC C   4      22.526  18.586  62.5530  0.00  0.00     0.000 C
ATOM     48  C4  BGC C   4      23.259  18.274  61.2640  0.00  0.00     0.000 C
ATOM     49  C5  BGC C   4      24.210  19.456  61.0150  0.00  0.00     0.000 C
ATOM     50  O5  BGC C   4      23.517  20.655  60.9880  0.00  0.00     0.000 O
ATOM     51   O  BGC C   4      21.049  19.926  64.0280  0.00  0.00     0.000 O
ATOM     53  HD  BGC C   4      20.586  19.209  64.1750  0.00  0.00     0.000 HD
ATOM     53   O  BGC C   4      21.402  17.587  62.5920  0.00  0.00     0.000 O
ATOM     55  HD  BGC C   4      20.939  16.870  62.7400  0.00  0.00     0.000 HD
ATOM     55   C  BGC C   4      24.882  19.346  59.6710  0.00  0.00     0.000 C
ATOM     56   O  BGC C   4      24.003  19.238  58.5460  0.00  0.00     0.000 O
ATOM     58  HD  BGC C   4      23.540  18.521  58.6940  0.00  0.00     0.000 HD
BRANCH 45 58
ATOM     58  O4  BGC C   5      22.185  22.198  61.9450  0.00  0.00     0.000 O
BRANCH 58 62
ATOM     59  C1  BGC C   5      21.591  23.533  64.6320  0.00  0.00     0.000 C
ATOM     60  C2  BGC C   5      21.191  24.475  63.6100  0.00  0.00     0.000 C
ATOM     61  C3  BGC C   5      22.205  24.621  62.4790  0.00  0.00     0.000 C
ATOM     62  C4  BGC C   5      22.996  23.327  62.3560  0.00  0.00     0.000 C
ATOM     63  C5  BGC C   5      23.383  22.903  63.7540  0.00  0.00     0.000 C
ATOM     64  O5  BGC C   5      22.714  23.514  64.8550  0.00  0.00     0.000 O
ATOM     65   O  BGC C   5      25.304  24.359  63.9120  0.00  0.00     0.000 O
ATOM     67  HD  BGC C   5      25.006  23.570  63.7150  0.00  0.00     0.000 HD
ATOM     67   O  BGC C   5      25.304  24.359  63.9120  0.00  0.00     0.000 O
ATOM     69  HD  BGC C   5      25.006  23.570  63.7150  0.00  0.00     0.000 HD
ENDBRANCH 58 62
ENDBRANCH 45 58
ENDBRANCH 44 48
ENDBRANCH 31 44
ENDBRANCH 30 34
ENDBRANCH 17 30
ENDBRANCH 16 20
ENDBRANCH 1 16
TORSDOF 8
ENDMDL
MODEL 74
REMARK VINA RESULT:      -0.1     39.950     41.985
ROOT
ATOM      1  C1  BGC C   1      18.615  49.301  28.0150  0.00  0.00     0.000 C
ATOM      2  C2  BGC C   1      17.362  48.903  27.2360  0.00  0.00     0.000 C
ATOM      3  C3  BGC C   1      16.745  50.131  26.5760  0.00  0.00     0.000 C
ATOM      4  C4  BGC C   1      16.558  51.277  27.5550  0.00  0.00     0.000 C
ATOM      5  C5  BGC C   1      17.824  51.477  28.3830  0.00  0.00     0.000 C
ATOM      6  O5  BGC C   1      18.336  50.299  28.9210  0.00  0.00     0.000 O
ATOM      7   O  BGC C   1      17.751  47.966  26.2600  0.00  0.00     0.000 O
ATOM      9  HD  BGC C   1      16.947  48.100  26.5520  0.00  0.00     0.000 HD
ATOM      9   O  BGC C   1      15.508  49.735  25.9690  0.00  0.00     0.000 O
ATOM     11  HD  BGC C   1      14.703  49.869  26.2610  0.00  0.00     0.000 HD
ATOM     11   O  BGC C   1      16.264  52.435  26.7820  0.00  0.00     0.000 O
ATOM     13  HD  BGC C   1      15.459  52.569  27.0740  0.00  0.00     0.000 HD
ATOM     13   O  BGC C   1      16.592  51.834  30.5020  0.00  0.00     0.000 O
ATOM     15  HD  BGC C   1      15.787  51.968  30.7950  0.00  0.00     0.000 HD
ATOM     15   C  BGC C   1      17.495  52.441  29.5370  0.00  0.00     0.000 C
ENDROOT
BRANCH 1 16
ATOM     16  O4  BGC C   2      19.059  48.187  28.7530  0.00  0.00     0.000 O
BRANCH 16 20
ATOM     17  C1  BGC C   2      22.602  46.643  30.0690  0.00  0.00     0.000 C
ATOM     18  C2  BGC C   2      22.001  47.747  30.9230  0.00  0.00     0.000 C
ATOM     19  C3  BGC C   2      20.543  47.983  30.5530  0.00  0.00     0.000 C
ATOM     20  C4  BGC C   2      20.428  48.184  29.0800  0.00  0.00     0.000 C
ATOM     21  C5  BGC C   2      21.129  47.063  28.3170  0.00  0.00     0.000 C
ATOM     22  O5  BGC C   2      22.463  46.950  28.7120  0.00  0.00     0.000 O
ATOM     23   O  BGC C   2      22.114  47.377  32.3060  0.00  0.00     0.000 O
ATOM     25  HD  BGC C   2      21.391  47.594  32.7320  0.00  0.00     0.000 HD
ATOM     25   O  BGC C   2      20.068  49.137  31.2360  0.00  0.00     0.000 O
ATOM     27  HD  BGC C   2      19.346  49.353  31.6620  0.00  0.00     0.000 HD
ATOM     27   C  BGC C   2      21.079  47.198  26.7810  0.00  0.00     0.000 C
ATOM     28   O  BGC C   2      21.582  48.474  26.3540  0.00  0.00     0.000 O
ATOM     30  HD  BGC C   2      20.860  48.691  26.7790  0.00  0.00     0.000 HD
BRANCH 17 30
ATOM     30  O4  BGC C   3      23.977  46.523  30.3640  0.00  0.00     0.000 O
BRANCH 30 34
ATOM     31  C1  BGC C   3      26.873  43.727  30.7350  0.00  0.00     0.000 C
ATOM     32  C2  BGC C   3      26.596  44.219  29.2940  0.00  0.00     0.000 C
ATOM     33  C3  BGC C   3      25.784  45.467  29.2980  0.00  0.00     0.000 C
ATOM     34  C4  BGC C   3      24.550  45.238  30.1740  0.00  0.00     0.000 C
ATOM     35  C5  BGC C   3      24.874  44.627  31.5620  0.00  0.00     0.000 C
ATOM     36  O5  BGC C   3      25.666  43.476  31.4110  0.00  0.00     0.000 O
ATOM     37   O  BGC C   3      27.700  44.461  28.4430  0.00  0.00     0.000 O
ATOM     39  HD  BGC C   3      26.912  44.720  28.6910  0.00  0.00     0.000 HD
ATOM     39   O  BGC C   3      25.403  45.825  27.9370  0.00  0.00     0.000 O
ATOM     41  HD  BGC C   3      24.615  46.084  28.1850  0.00  0.00     0.000 HD
ATOM     41   C  BGC C   3      23.642  44.213  32.3990  0.00  0.00     0.000 C
ATOM     42   O  BGC C   3      22.825  43.131  31.8220  0.00  0.00     0.000 O
ATOM     44  HD  BGC C   3      22.037  43.391  32.0700  0.00  0.00     0.000 HD
BRANCH 31 44
ATOM     44  O4  BGC C   4      27.632  42.564  30.7270  0.00  0.00     0.000 O
BRANCH 44 48
ATOM     45  C1  BGC C   4      30.658  40.536  32.5960  0.00  0.00     0.000 C
ATOM     46  C2  BGC C   4      29.365  40.565  33.4730  0.00  0.00     0.000 C
ATOM     47  C3  BGC C   4      28.316  41.076  32.4770  0.00  0.00     0.000 C
ATOM     48  C4  BGC C   4      28.616  42.339  31.6930  0.00  0.00     0.000 C
ATOM     49  C5  BGC C   4      29.923  42.070  30.9310  0.00  0.00     0.000 C
ATOM     50  O5  BGC C   4      30.937  41.697  31.7990  0.00  0.00     0.000 O
ATOM     51   O  BGC C   4      28.787  39.311  34.1540  0.00  0.00     0.000 O
ATOM     53  HD  BGC C   4      28.011  39.469  34.5030  0.00  0.00     0.000 HD
ATOM     53   O  BGC C   4      27.231  41.483  33.4350  0.00  0.00     0.000 O
ATOM     55  HD  BGC C   4      26.454  41.641  33.7840  0.00  0.00     0.000 HD
ATOM     55   C  BGC C   4      30.420  43.312  30.2380  0.00  0.00     0.000 C
ATOM     56   O  BGC C   4      30.621  44.453  31.0800  0.00  0.00     0.000 O
ATOM     58  HD  BGC C   4      29.845  44.611  31.4300  0.00  0.00     0.000 HD
BRANCH 45 58
ATOM     58  O4  BGC C   5      31.809  40.328  33.3590  0.00  0.00     0.000 O
BRANCH 58 62
ATOM     59  C1  BGC C   5      31.941  37.383  34.1750  0.00  0.00     0.000 C
ATOM     60  C2  BGC C   5      33.133  38.009  34.7050  0.00  0.00     0.000 C
ATOM     61  C3  BGC C   5      33.832  38.936  33.7150  0.00  0.00     0.000 C
ATOM     62  C4  BGC C   5      32.801  39.476  32.7340  0.00  0.00     0.000 C
ATOM     63  C5  BGC C   5      31.941  38.312  32.3000  0.00  0.00     0.000 C
ATOM     64  O5  BGC C   5      31.995  37.109  33.0640  0.00  0.00     0.000 O
ATOM     65   O  BGC C   5      33.482  37.501  30.6260  0.00  0.00     0.000 O
ATOM     67  HD  BGC C   5      32.792  37.995  30.7970  0.00  0.00     0.000 HD
ATOM     67   O  BGC C   5      33.482  37.501  30.6260  0.00  0.00     0.000 O
ATOM     69  HD  BGC C   5      32.792  37.995  30.7970  0.00  0.00     0.000 HD
ENDBRANCH 58 62
ENDBRANCH 45 58
ENDBRANCH 44 48
ENDBRANCH 31 44
ENDBRANCH 30 34
ENDBRANCH 17 30
ENDBRANCH 16 20
ENDBRANCH 1 16
TORSDOF 8
ENDMDL
MODEL 75
REMARK VINA RESULT:      -0.1     43.851     48.755
ROOT
ATOM      1  C1  BGC C   1      34.860  49.789  17.3930  0.00  0.00     0.000 C
ATOM      2  C2  BGC C   1      34.378  49.861  15.9440  0.00  0.00     0.000 C
ATOM      3  C3  BGC C   1      33.208  50.832  15.8310  0.00  0.00     0.000 C
ATOM      4  C4  BGC C   1      32.125  50.549  16.8580  0.00  0.00     0.000 C
ATOM      5  C5  BGC C   1      32.745  50.342  18.2370  0.00  0.00     0.000 C
ATOM      6  O5  BGC C   1      33.826  49.466  18.2410  0.00  0.00     0.000 O
ATOM      7   O  BGC C   1      35.459  50.304  15.1600  0.00  0.00     0.000 O
ATOM      9  HD  BGC C   1      34.750  49.897  14.8740  0.00  0.00     0.000 HD
ATOM      9   O  BGC C   1      32.706  50.768  14.4890  0.00  0.00     0.000 O
ATOM     11  HD  BGC C   1      31.997  50.362  14.2040  0.00  0.00     0.000 HD
ATOM     11   O  BGC C   1      31.250  51.672  16.8530  0.00  0.00     0.000 O
ATOM     13  HD  BGC C   1      30.541  51.265  16.5680  0.00  0.00     0.000 HD
ATOM     13   O  BGC C   1      31.274  48.431  18.8040  0.00  0.00     0.000 O
ATOM     15  HD  BGC C   1      30.565  48.024  18.5190  0.00  0.00     0.000 HD
ATOM     15   C  BGC C   1      31.657  49.785  19.1730  0.00  0.00     0.000 C
ENDROOT
BRANCH 1 16
ATOM     16  O4  BGC C   2      35.816  48.761  17.4980  0.00  0.00     0.000 O
BRANCH 16 20
ATOM     17  C1  BGC C   2      39.164  47.951  19.6920  0.00  0.00     0.000 C
ATOM     18  C2  BGC C   2      37.837  47.628  20.3610  0.00  0.00     0.000 C
ATOM     19  C3  BGC C   2      36.706  47.622  19.3410  0.00  0.00     0.000 C
ATOM     20  C4  BGC C   2      36.732  48.892  18.5590  0.00  0.00     0.000 C
ATOM     21  C5  BGC C   2      38.125  49.161  17.9970  0.00  0.00     0.000 C
ATOM     22  O5  BGC C   2      39.080  49.172  19.0150  0.00  0.00     0.000 O
ATOM     23   O  BGC C   2      37.941  46.348  21.0020  0.00  0.00     0.000 O
ATOM     25  HD  BGC C   2      37.210  45.897  20.8870  0.00  0.00     0.000 HD
ATOM     25   O  BGC C   2      35.464  47.501  20.0230  0.00  0.00     0.000 O
ATOM     27  HD  BGC C   2      34.733  47.051  19.9070  0.00  0.00     0.000 HD
ATOM     27   C  BGC C   2      38.253  50.467  17.1870  0.00  0.00     0.000 C
ATOM     28   O  BGC C   2      37.804  51.599  17.9490  0.00  0.00     0.000 O
ATOM     30  HD  BGC C   2      37.073  51.149  17.8330  0.00  0.00     0.000 HD
BRANCH 17 30
ATOM     30  O4  BGC C   3      40.169  48.051  20.6780  0.00  0.00     0.000 O
BRANCH 30 34
ATOM     31  C1  BGC C   3      44.076  47.200  21.2710  0.00  0.00     0.000 C
ATOM     32  C2  BGC C   3      43.782  48.541  20.5560  0.00  0.00     0.000 C
ATOM     33  C3  BGC C   3      42.350  48.923  20.6950  0.00  0.00     0.000 C
ATOM     34  C4  BGC C   3      41.489  47.733  20.2620  0.00  0.00     0.000 C
ATOM     35  C5  BGC C   3      41.906  46.390  20.9140  0.00  0.00     0.000 C
ATOM     36  O5  BGC C   3      43.283  46.171  20.7330  0.00  0.00     0.000 O
ATOM     37   O  BGC C   3      44.539  49.679  20.9250  0.00  0.00     0.000 O
ATOM     39  HD  BGC C   3      43.762  49.376  20.6920  0.00  0.00     0.000 HD
ATOM     39   O  BGC C   3      42.062  50.102  19.8870  0.00  0.00     0.000 O
ATOM     41  HD  BGC C   3      41.285  49.799  19.6530  0.00  0.00     0.000 HD
ATOM     41   C  BGC C   3      41.180  45.141  20.3640  0.00  0.00     0.000 C
ATOM     42   O  BGC C   3      41.443  44.836  18.9470  0.00  0.00     0.000 O
ATOM     44  HD  BGC C   3      40.666  44.532  18.7140  0.00  0.00     0.000 HD
BRANCH 31 44
ATOM     44  O4  BGC C   4      45.413  46.849  21.1400  0.00  0.00     0.000 O
BRANCH 44 48
ATOM     45  C1  BGC C   4      48.635  45.195  23.0500  0.00  0.00     0.000 C
ATOM     46  C2  BGC C   4      47.555  44.116  22.7170  0.00  0.00     0.000 C
ATOM     47  C3  BGC C   4      46.628  44.878  21.7610  0.00  0.00     0.000 C
ATOM     48  C4  BGC C   4      46.103  46.234  22.1880  0.00  0.00     0.000 C
ATOM     49  C5  BGC C   4      47.339  47.104  22.4680  0.00  0.00     0.000 C
ATOM     50  O5  BGC C   4      48.167  46.505  23.4030  0.00  0.00     0.000 O
ATOM     51   O  BGC C   4      47.894  42.767  22.0580  0.00  0.00     0.000 O
ATOM     53  HD  BGC C   4      47.178  42.334  21.8340  0.00  0.00     0.000 HD
ATOM     53   O  BGC C   4      45.421  43.982  21.8060  0.00  0.00     0.000 O
ATOM     55  HD  BGC C   4      44.705  43.549  21.5820  0.00  0.00     0.000 HD
ATOM     55   C  BGC C   4      46.952  48.433  23.0620  0.00  0.00     0.000 C
ATOM     56   O  BGC C   4      46.169  48.372  24.2600  0.00  0.00     0.000 O
ATOM     58  HD  BGC C   4      45.453  47.939  24.0370  0.00  0.00     0.000 HD
BRANCH 45 58
ATOM     58  O4  BGC C   5      49.464  44.803  24.1030  0.00  0.00     0.000 O
BRANCH 58 62
ATOM     59  C1  BGC C   5      51.445  42.709  23.0820  0.00  0.00     0.000 C
ATOM     60  C2  BGC C   5      51.770  42.934  24.4730  0.00  0.00     0.000 C
ATOM     61  C3  BGC C   5      51.792  44.409  24.8670  0.00  0.00     0.000 C
ATOM     62  C4  BGC C   5      50.855  45.178  23.9470  0.00  0.00     0.000 C
ATOM     63  C5  BGC C   5      51.120  44.703  22.5370  0.00  0.00     0.000 C
ATOM     64  O5  BGC C   5      51.857  43.495  22.3580  0.00  0.00     0.000 O
ATOM     65   O  BGC C   5      53.046  46.116  22.1770  0.00  0.00     0.000 O
ATOM     67  HD  BGC C   5      52.190  46.020  22.0880  0.00  0.00     0.000 HD
ATOM     67   O  BGC C   5      53.046  46.116  22.1770  0.00  0.00     0.000 O
ATOM     69  HD  BGC C   5      52.190  46.020  22.0880  0.00  0.00     0.000 HD
ENDBRANCH 58 62
ENDBRANCH 45 58
ENDBRANCH 44 48
ENDBRANCH 31 44
ENDBRANCH 30 34
ENDBRANCH 17 30
ENDBRANCH 16 20
ENDBRANCH 1 16
TORSDOF 8
ENDMDL
MODEL 76
REMARK VINA RESULT:      -0.1     46.129     52.944
ROOT
ATOM      1  C1  BGC C   1      34.890  51.130  23.8620  0.00  0.00     0.000 C
ATOM      2  C2  BGC C   1      34.021  50.244  22.9710  0.00  0.00     0.000 C
ATOM      3  C3  BGC C   1      32.729  50.970  22.6160  0.00  0.00     0.000 C
ATOM      4  C4  BGC C   1      32.030  51.534  23.8410  0.00  0.00     0.000 C
ATOM      5  C5  BGC C   1      33.032  52.264  24.7310  0.00  0.00     0.000 C
ATOM      6  O5  BGC C   1      34.196  51.541  24.9770  0.00  0.00     0.000 O
ATOM      7   O  BGC C   1      34.760  49.962  21.8070  0.00  0.00     0.000 O
ATOM      9  HD  BGC C   1      34.072  49.523  22.0980  0.00  0.00     0.000 HD
ATOM      9   O  BGC C   1      31.891  50.057  21.8920  0.00  0.00     0.000 O
ATOM     11  HD  BGC C   1      31.204  49.619  22.1840  0.00  0.00     0.000 HD
ATOM     11   O  BGC C   1      31.023  52.422  23.3690  0.00  0.00     0.000 O
ATOM     13  HD  BGC C   1      30.335  51.983  23.6600  0.00  0.00     0.000 HD
ATOM     13   O  BGC C   1      32.095  51.348  26.8350  0.00  0.00     0.000 O
ATOM     15  HD  BGC C   1      31.408  50.910  27.1260  0.00  0.00     0.000 HD
ATOM     15   C  BGC C   1      32.347  52.565  26.0770  0.00  0.00     0.000 C
ENDROOT
BRANCH 1 16
ATOM     16  O4  BGC C   2      35.988  50.374  24.3160  0.00  0.00     0.000 O
BRANCH 16 20
ATOM     17  C1  BGC C   2      39.896  51.005  25.3190  0.00  0.00     0.000 C
ATOM     18  C2  BGC C   2      38.873  51.316  26.4000  0.00  0.00     0.000 C
ATOM     19  C3  BGC C   2      37.520  50.710  26.0550  0.00  0.00     0.000 C
ATOM     20  C4  BGC C   2      37.129  51.116  24.6740  0.00  0.00     0.000 C
ATOM     21  C5  BGC C   2      38.251  50.831  23.6800  0.00  0.00     0.000 C
ATOM     22  O5  BGC C   2      39.437  51.453  24.0760  0.00  0.00     0.000 O
ATOM     23   O  BGC C   2      39.350  50.799  27.6520  0.00  0.00     0.000 O
ATOM     25  HD  BGC C   2      38.696  50.445  28.0950  0.00  0.00     0.000 HD
ATOM     25   O  BGC C   2      36.550  51.173  26.9860  0.00  0.00     0.000 O
ATOM     27  HD  BGC C   2      35.896  50.819  27.4300  0.00  0.00     0.000 HD
ATOM     27   C  BGC C   2      37.944  51.237  22.2240  0.00  0.00     0.000 C
ATOM     28   O  BGC C   2      37.551  52.616  22.1400  0.00  0.00     0.000 O
ATOM     30  HD  BGC C   2      36.897  52.262  22.5840  0.00  0.00     0.000 HD
BRANCH 17 30
ATOM     30  O4  BGC C   3      41.106  51.667  25.6170  0.00  0.00     0.000 O
BRANCH 30 34
ATOM     31  C1  BGC C   3      45.107  51.149  25.3760  0.00  0.00     0.000 C
ATOM     32  C2  BGC C   3      44.420  51.676  24.0930  0.00  0.00     0.000 C
ATOM     33  C3  BGC C   3      43.041  52.157  24.3800  0.00  0.00     0.000 C
ATOM     34  C4  BGC C   3      42.292  51.055  25.1340  0.00  0.00     0.000 C
ATOM     35  C5  BGC C   3      43.079  50.475  26.3370  0.00  0.00     0.000 C
ATOM     36  O5  BGC C   3      44.368  50.089  25.9310  0.00  0.00     0.000 O
ATOM     37   O  BGC C   3      45.061  52.705  23.3620  0.00  0.00     0.000 O
ATOM     39  HD  BGC C   3      44.308  52.382  23.6420  0.00  0.00     0.000 HD
ATOM     39   O  BGC C   3      42.359  52.501  23.1380  0.00  0.00     0.000 O
ATOM     41  HD  BGC C   3      41.605  52.179  23.4180  0.00  0.00     0.000 HD
ATOM     41   C  BGC C   3      42.435  49.240  27.0080  0.00  0.00     0.000 C
ATOM     42   O  BGC C   3      42.339  48.042  26.1570  0.00  0.00     0.000 O
ATOM     44  HD  BGC C   3      41.586  47.719  26.4360  0.00  0.00     0.000 HD
BRANCH 31 44
ATOM     44  O4  BGC C   4      46.394  50.702  25.1050  0.00  0.00     0.000 O
BRANCH 44 48
ATOM     45  C1  BGC C   4      50.236  50.531  26.5070  0.00  0.00     0.000 C
ATOM     46  C2  BGC C   4      49.290  49.594  27.3240  0.00  0.00     0.000 C
ATOM     47  C3  BGC C   4      48.027  49.580  26.4530  0.00  0.00     0.000 C
ATOM     48  C4  BGC C   4      47.434  50.905  26.0150  0.00  0.00     0.000 C
ATOM     49  C5  BGC C   4      48.547  51.640  25.2510  0.00  0.00     0.000 C
ATOM     50  O5  BGC C   4      49.685  51.768  26.0310  0.00  0.00     0.000 O
ATOM     51   O  BGC C   4      49.641  48.132  27.6570  0.00  0.00     0.000 O
ATOM     53  HD  BGC C   4      48.969  47.717  28.0100  0.00  0.00     0.000 HD
ATOM     53   O  BGC C   4      47.036  49.041  27.4480  0.00  0.00     0.000 O
ATOM     55  HD  BGC C   4      46.363  48.626  27.8010  0.00  0.00     0.000 HD
ATOM     55   C  BGC C   4      48.136  53.047  24.9020  0.00  0.00     0.000 C
ATOM     56   O  BGC C   4      47.735  53.867  26.0050  0.00  0.00     0.000 O
ATOM     58  HD  BGC C   4      47.062  53.452  26.3590  0.00  0.00     0.000 HD
BRANCH 45 58
ATOM     58  O4  BGC C   5      51.376  50.890  27.2310  0.00  0.00     0.000 O
BRANCH 58 62
ATOM     59  C1  BGC C   5      53.300  48.514  27.2980  0.00  0.00     0.000 C
ATOM     60  C2  BGC C   5      53.958  49.593  28.0030  0.00  0.00     0.000 C
ATOM     61  C3  BGC C   5      53.855  50.941  27.2940  0.00  0.00     0.000 C
ATOM     62  C4  BGC C   5      52.592  50.957  26.4460  0.00  0.00     0.000 C
ATOM     63  C5  BGC C   5      52.527  49.638  25.7110  0.00  0.00     0.000 C
ATOM     64  O5  BGC C   5      53.367  48.574  26.1570  0.00  0.00     0.000 O
ATOM     65   O  BGC C   5      54.032  50.290  23.9370  0.00  0.00     0.000 O
ATOM     67  HD  BGC C   5      53.211  50.224  24.2040  0.00  0.00     0.000 HD
ATOM     67   O  BGC C   5      54.032  50.290  23.9370  0.00  0.00     0.000 O
ATOM     69  HD  BGC C   5      53.211  50.224  24.2040  0.00  0.00     0.000 HD
ENDBRANCH 58 62
ENDBRANCH 45 58
ENDBRANCH 44 48
ENDBRANCH 31 44
ENDBRANCH 30 34
ENDBRANCH 17 30
ENDBRANCH 16 20
ENDBRANCH 1 16
TORSDOF 8
ENDMDL
MODEL 77
REMARK VINA RESULT:      -0.1     74.985     78.074
ROOT
ATOM      1  C1  BGC C   1      53.936  59.632  55.0800  0.00  0.00     0.000 C
ATOM      2  C2  BGC C   1      53.897  61.132  54.7900  0.00  0.00     0.000 C
ATOM      3  C3  BGC C   1      52.710  61.771  55.5000  0.00  0.00     0.000 C
ATOM      4  C4  BGC C   1      51.411  61.028  55.2300  0.00  0.00     0.000 C
ATOM      5  C5  BGC C   1      51.617  59.526  55.4010  0.00  0.00     0.000 C
ATOM      6  O5  BGC C   1      52.742  59.035  54.7450  0.00  0.00     0.000 O
ATOM      7   O  BGC C   1      55.104  61.685  55.2610  0.00  0.00     0.000 O
ATOM      9  HD  BGC C   1      54.562  62.045  54.6890  0.00  0.00     0.000 HD
ATOM      9   O  BGC C   1      52.636  63.145  55.0970  0.00  0.00     0.000 O
ATOM     11  HD  BGC C   1      52.095  63.505  54.5250  0.00  0.00     0.000 HD
ATOM     11   O  BGC C   1      50.453  61.523  56.1600  0.00  0.00     0.000 O
ATOM     13  HD  BGC C   1      49.912  61.883  55.5880  0.00  0.00     0.000 HD
ATOM     13   O  BGC C   1      50.275  58.939  53.4020  0.00  0.00     0.000 O
ATOM     15  HD  BGC C   1      49.734  59.299  52.8300  0.00  0.00     0.000 HD
ATOM     15   C  BGC C   1      50.373  58.806  54.8470  0.00  0.00     0.000 C
ENDROOT
BRANCH 1 16
ATOM     16  O4  BGC C   2      54.931  59.044  54.2750  0.00  0.00     0.000 O
BRANCH 16 20
ATOM     17  C1  BGC C   2      57.552  55.921  54.4970  0.00  0.00     0.000 C
ATOM     18  C2  BGC C   2      56.134  55.569  54.0790  0.00  0.00     0.000 C
ATOM     19  C3  BGC C   2      55.363  56.820  53.6810  0.00  0.00     0.000 C
ATOM     20  C4  BGC C   2      55.472  57.840  54.7640  0.00  0.00     0.000 C
ATOM     21  C5  BGC C   2      56.927  58.062  55.1620  0.00  0.00     0.000 C
ATOM     22  O5  BGC C   2      57.532  56.860  55.5340  0.00  0.00     0.000 O
ATOM     23   O  BGC C   2      56.190  54.644  52.9820  0.00  0.00     0.000 O
ATOM     25  HD  BGC C   2      55.583  54.841  52.3960  0.00  0.00     0.000 HD
ATOM     25   O  BGC C   2      53.997  56.480  53.4740  0.00  0.00     0.000 O
ATOM     27  HD  BGC C   2      53.390  56.677  52.8880  0.00  0.00     0.000 HD
ATOM     27   C  BGC C   2      57.138  59.090  56.2940  0.00  0.00     0.000 C
ATOM     28   O  BGC C   2      56.356  58.756  57.4520  0.00  0.00     0.000 O
ATOM     30  HD  BGC C   2      55.749  58.952  56.8660  0.00  0.00     0.000 HD
BRANCH 17 30
ATOM     30  O4  BGC C   3      58.204  54.757  54.9590  0.00  0.00     0.000 O
BRANCH 30 34
ATOM     31  C1  BGC C   3      61.833  52.977  54.9380  0.00  0.00     0.000 C
ATOM     32  C2  BGC C   3      61.611  54.034  56.0450  0.00  0.00     0.000 C
ATOM     33  C3  BGC C   3      60.167  54.369  56.1880  0.00  0.00     0.000 C
ATOM     34  C4  BGC C   3      59.615  54.725  54.8050  0.00  0.00     0.000 C
ATOM     35  C5  BGC C   3      59.973  53.693  53.7050  0.00  0.00     0.000 C
ATOM     36  O5  BGC C   3      61.358  53.450  53.7020  0.00  0.00     0.000 O
ATOM     37   O  BGC C   3      62.088  53.753  57.3480  0.00  0.00     0.000 O
ATOM     39  HD  BGC C   3      61.456  54.106  56.8730  0.00  0.00     0.000 HD
ATOM     39   O  BGC C   3      59.996  55.475  57.1230  0.00  0.00     0.000 O
ATOM     41  HD  BGC C   3      59.363  55.828  56.6480  0.00  0.00     0.000 HD
ATOM     41   C  BGC C   3      59.590  54.109  52.2660  0.00  0.00     0.000 C
ATOM     42   O  BGC C   3      60.292  55.296  51.7490  0.00  0.00     0.000 O
ATOM     44  HD  BGC C   3      59.659  55.649  51.2740  0.00  0.00     0.000 HD
BRANCH 31 44
ATOM     44  O4  BGC C   4      63.180  52.666  54.8090  0.00  0.00     0.000 O
BRANCH 44 48
ATOM     45  C1  BGC C   4      65.863  49.647  54.1410  0.00  0.00     0.000 C
ATOM     46  C2  BGC C   4      65.061  49.992  52.8450  0.00  0.00     0.000 C
ATOM     47  C3  BGC C   4      64.377  51.308  53.2370  0.00  0.00     0.000 C
ATOM     48  C4  BGC C   4      63.596  51.360  54.5350  0.00  0.00     0.000 C
ATOM     49  C5  BGC C   4      64.586  50.975  55.6460  0.00  0.00     0.000 C
ATOM     50  O5  BGC C   4      65.164  49.743  55.3910  0.00  0.00     0.000 O
ATOM     51   O  BGC C   4      65.733  50.207  51.4770  0.00  0.00     0.000 O
ATOM     53  HD  BGC C   4      65.170  50.505  50.8900  0.00  0.00     0.000 HD
ATOM     53   O  BGC C   4      63.321  51.375  52.1670  0.00  0.00     0.000 O
ATOM     55  HD  BGC C   4      62.758  51.673  51.5810  0.00  0.00     0.000 HD
ATOM     55   C  BGC C   4      63.891  50.829  56.9750  0.00  0.00     0.000 C
ATOM     56   O  BGC C   4      62.802  49.898  57.0050  0.00  0.00     0.000 O
ATOM     58  HD  BGC C   4      62.239  50.196  56.4190  0.00  0.00     0.000 HD
BRANCH 45 58
ATOM     58  O4  BGC C   5      66.385  48.351  54.1080  0.00  0.00     0.000 O
BRANCH 58 62
ATOM     59  C1  BGC C   5      68.807  48.301  52.2410  0.00  0.00     0.000 C
ATOM     60  C2  BGC C   5      68.678  46.964  52.7800  0.00  0.00     0.000 C
ATOM     61  C3  BGC C   5      68.413  46.933  54.2830  0.00  0.00     0.000 C
ATOM     62  C4  BGC C   5      67.707  48.219  54.6870  0.00  0.00     0.000 C
ATOM     63  C5  BGC C   5      68.429  49.359  54.0060  0.00  0.00     0.000 C
ATOM     64  O5  BGC C   5      69.320  49.052  52.9360  0.00  0.00     0.000 O
ATOM     65   O  BGC C   5      70.199  49.518  55.6420  0.00  0.00     0.000 O
ATOM     67  HD  BGC C   5      69.424  49.804  55.3820  0.00  0.00     0.000 HD
ATOM     67   O  BGC C   5      70.199  49.518  55.6420  0.00  0.00     0.000 O
ATOM     69  HD  BGC C   5      69.424  49.804  55.3820  0.00  0.00     0.000 HD
ENDBRANCH 58 62
ENDBRANCH 45 58
ENDBRANCH 44 48
ENDBRANCH 31 44
ENDBRANCH 30 34
ENDBRANCH 17 30
ENDBRANCH 16 20
ENDBRANCH 1 16
TORSDOF 8
ENDMDL
MODEL 78
REMARK VINA RESULT:      -0.1     62.481     68.101
ROOT
ATOM      1  C1  BGC C   1      52.313  62.348  44.7310  0.00  0.00     0.000 C
ATOM      2  C2  BGC C   1      53.415  63.012  45.5560  0.00  0.00     0.000 C
ATOM      3  C3  BGC C   1      53.123  62.849  47.0430  0.00  0.00     0.000 C
ATOM      4  C4  BGC C   1      51.708  63.270  47.4010  0.00  0.00     0.000 C
ATOM      5  C5  BGC C   1      50.712  62.670  46.4130  0.00  0.00     0.000 C
ATOM      6  O5  BGC C   1      51.074  62.837  45.0790  0.00  0.00     0.000 O
ATOM      7   O  BGC C   1      54.629  62.381  45.2240  0.00  0.00     0.000 O
ATOM      9  HD  BGC C   1      54.538  63.154  45.6040  0.00  0.00     0.000 HD
ATOM      9   O  BGC C   1      54.106  63.595  47.7730  0.00  0.00     0.000 O
ATOM     11  HD  BGC C   1      54.015  64.368  48.1540  0.00  0.00     0.000 HD
ATOM     11   O  BGC C   1      51.461  62.804  48.7230  0.00  0.00     0.000 O
ATOM     13  HD  BGC C   1      51.370  63.577  49.1040  0.00  0.00     0.000 HD
ATOM     13   O  BGC C   1      49.367  64.743  46.2400  0.00  0.00     0.000 O
ATOM     15  HD  BGC C   1      49.276  65.516  46.6210  0.00  0.00     0.000 HD
ATOM     15   C  BGC C   1      49.346  63.344  46.6390  0.00  0.00     0.000 C
ENDROOT
BRANCH 1 16
ATOM     16  O4  BGC C   2      52.514  62.665  43.3740  0.00  0.00     0.000 O
BRANCH 16 20
ATOM     17  C1  BGC C   2      51.885  60.927  39.7320  0.00  0.00     0.000 C
ATOM     18  C2  BGC C   2      50.684  61.620  40.3540  0.00  0.00     0.000 C
ATOM     19  C3  BGC C   2      51.115  62.524  41.5000  0.00  0.00     0.000 C
ATOM     20  C4  BGC C   2      51.967  61.753  42.4510  0.00  0.00     0.000 C
ATOM     21  C5  BGC C   2      53.096  61.035  41.7170  0.00  0.00     0.000 C
ATOM     22  O5  BGC C   2      52.591  60.214  40.7070  0.00  0.00     0.000 O
ATOM     23   O  BGC C   2      50.012  62.382  39.3400  0.00  0.00     0.000 O
ATOM     25  HD  BGC C   2      49.755  63.144  39.6620  0.00  0.00     0.000 HD
ATOM     25   O  BGC C   2      49.960  63.009  42.1730  0.00  0.00     0.000 O
ATOM     27  HD  BGC C   2      49.702  63.771  42.4950  0.00  0.00     0.000 HD
ATOM     27   C  BGC C   2      54.021  60.193  42.6200  0.00  0.00     0.000 C
ATOM     28   O  BGC C   2      53.268  59.253  43.4040  0.00  0.00     0.000 O
ATOM     30  HD  BGC C   2      53.011  60.015  43.7270  0.00  0.00     0.000 HD
BRANCH 17 30
ATOM     30  O4  BGC C   3      51.441  60.020  38.7460  0.00  0.00     0.000 O
BRANCH 30 34
ATOM     31  C1  BGC C   3      52.484  58.571  35.1200  0.00  0.00     0.000 C
ATOM     32  C2  BGC C   3      53.147  57.879  36.3340  0.00  0.00     0.000 C
ATOM     33  C3  BGC C   3      52.452  58.235  37.6030  0.00  0.00     0.000 C
ATOM     34  C4  BGC C   3      52.343  59.760  37.6800  0.00  0.00     0.000 C
ATOM     35  C5  BGC C   3      51.789  60.414  36.3890  0.00  0.00     0.000 C
ATOM     36  O5  BGC C   3      52.515  59.969  35.2710  0.00  0.00     0.000 O
ATOM     37   O  BGC C   3      53.263  56.468  36.3230  0.00  0.00     0.000 O
ATOM     39  HD  BGC C   3      53.108  57.174  36.8010  0.00  0.00     0.000 HD
ATOM     39   O  BGC C   3      53.184  57.702  38.7450  0.00  0.00     0.000 O
ATOM     41  HD  BGC C   3      53.029  58.408  39.2220  0.00  0.00     0.000 HD
ATOM     41   C  BGC C   3      51.835  61.959  36.3640  0.00  0.00     0.000 C
ATOM     42   O  BGC C   3      53.185  62.547  36.3940  0.00  0.00     0.000 O
ATOM     44  HD  BGC C   3      53.030  63.252  36.8720  0.00  0.00     0.000 HD
BRANCH 31 44
ATOM     44  O4  BGC C   4      53.133  58.234  33.9390  0.00  0.00     0.000 O
BRANCH 44 48
ATOM     45  C1  BGC C   4      52.614  57.330  29.9800  0.00  0.00     0.000 C
ATOM     46  C2  BGC C   4      52.333  58.841  30.2600  0.00  0.00     0.000 C
ATOM     47  C3  BGC C   4      52.879  59.007  31.6840  0.00  0.00     0.000 C
ATOM     48  C4  BGC C   4      52.420  58.037  32.7550  0.00  0.00     0.000 C
ATOM     49  C5  BGC C   4      52.792  56.634  32.2490  0.00  0.00     0.000 C
ATOM     50  O5  BGC C   4      52.240  56.392  31.0010  0.00  0.00     0.000 O
ATOM     51   O  BGC C   4      52.922  59.975  29.4020  0.00  0.00     0.000 O
ATOM     53  HD  BGC C   4      52.770  60.752  29.7540  0.00  0.00     0.000 HD
ATOM     53   O  BGC C   4      52.225  60.309  32.0590  0.00  0.00     0.000 O
ATOM     55  HD  BGC C   4      52.073  61.085  32.4110  0.00  0.00     0.000 HD
ATOM     55   C  BGC C   4      52.239  55.561  33.1500  0.00  0.00     0.000 C
ATOM     56   O  BGC C   4      50.823  55.597  33.3610  0.00  0.00     0.000 O
ATOM     58  HD  BGC C   4      50.671  56.374  33.7140  0.00  0.00     0.000 HD
BRANCH 45 58
ATOM     58  O4  BGC C   5      51.980  56.882  28.8190  0.00  0.00     0.000 O
BRANCH 58 62
ATOM     59  C1  BGC C   5      53.513  57.921  26.3850  0.00  0.00     0.000 C
ATOM     60  C2  BGC C   5      52.427  57.115  25.8710  0.00  0.00     0.000 C
ATOM     61  C3  BGC C   5      52.245  55.790  26.6070  0.00  0.00     0.000 C
ATOM     62  C4  BGC C   5      52.755  55.944  28.0320  0.00  0.00     0.000 C
ATOM     63  C5  BGC C   5      54.081  56.665  27.9590  0.00  0.00     0.000 C
ATOM     64  O5  BGC C   5      54.424  57.328  26.7440  0.00  0.00     0.000 O
ATOM     65   O  BGC C   5      55.382  54.698  27.4350  0.00  0.00     0.000 O
ATOM     67  HD  BGC C   5      55.086  55.228  28.0520  0.00  0.00     0.000 HD
ATOM     67   O  BGC C   5      55.382  54.698  27.4350  0.00  0.00     0.000 O
ATOM     69  HD  BGC C   5      55.086  55.228  28.0520  0.00  0.00     0.000 HD
ENDBRANCH 58 62
ENDBRANCH 45 58
ENDBRANCH 44 48
ENDBRANCH 31 44
ENDBRANCH 30 34
ENDBRANCH 17 30
ENDBRANCH 16 20
ENDBRANCH 1 16
TORSDOF 8
ENDMDL
MODEL 79
REMARK VINA RESULT:      -0.1     69.327     79.044
ROOT
ATOM      1  C1  BGC C   1      61.501  61.134  61.6260  0.00  0.00     0.000 C
ATOM      2  C2  BGC C   1      62.887  61.116  62.2690  0.00  0.00     0.000 C
ATOM      3  C3  BGC C   1      63.135  62.422  63.0140  0.00  0.00     0.000 C
ATOM      4  C4  BGC C   1      62.841  63.639  62.1530  0.00  0.00     0.000 C
ATOM      5  C5  BGC C   1      61.502  63.471  61.4400  0.00  0.00     0.000 C
ATOM      6  O5  BGC C   1      61.349  62.236  60.8160  0.00  0.00     0.000 O
ATOM      7   O  BGC C   1      62.923  60.029  63.1630  0.00  0.00     0.000 O
ATOM      9  HD  BGC C   1      63.607  60.445  62.8320  0.00  0.00     0.000 HD
ATOM      9   O  BGC C   1      64.488  62.414  63.4880  0.00  0.00     0.000 O
ATOM     11  HD  BGC C   1      65.172  62.830  63.1570  0.00  0.00     0.000 HD
ATOM     11   O  BGC C   1      62.819  64.765  63.0240  0.00  0.00     0.000 O
ATOM     13  HD  BGC C   1      63.503  65.181  62.6930  0.00  0.00     0.000 HD
ATOM     13   O  BGC C   1      62.332  64.384  59.2920  0.00  0.00     0.000 O
ATOM     15  HD  BGC C   1      63.016  64.800  58.9610  0.00  0.00     0.000 HD
ATOM     15   C  BGC C   1      61.382  64.578  60.3770  0.00  0.00     0.000 C
ENDROOT
BRANCH 1 16
ATOM     16  O4  BGC C   2      61.371  59.998  60.8040  0.00  0.00     0.000 O
BRANCH 16 20
ATOM     17  C1  BGC C   2      58.407  57.472  59.5770  0.00  0.00     0.000 C
ATOM     18  C2  BGC C   2      58.529  58.777  58.8070  0.00  0.00     0.000 C
ATOM     19  C3  BGC C   2      59.860  59.454  59.0990  0.00  0.00     0.000 C
ATOM     20  C4  BGC C   2      60.051  59.565  60.5740  0.00  0.00     0.000 C
ATOM     21  C5  BGC C   2      59.833  58.219  61.2580  0.00  0.00     0.000 C
ATOM     22  O5  BGC C   2      58.575  57.700  60.9470  0.00  0.00     0.000 O
ATOM     23   O  BGC C   2      58.403  58.501  57.4040  0.00  0.00     0.000 O
ATOM     25  HD  BGC C   2      58.970  58.978  56.9550  0.00  0.00     0.000 HD
ATOM     25   O  BGC C   2      59.864  60.750  58.5140  0.00  0.00     0.000 O
ATOM     27  HD  BGC C   2      60.430  61.228  58.0650  0.00  0.00     0.000 HD
ATOM     27   C  BGC C   2      59.990  58.241  62.7930  0.00  0.00     0.000 C
ATOM     28   O  BGC C   2      59.146  59.239  63.3890  0.00  0.00     0.000 O
ATOM     30  HD  BGC C   2      59.712  59.716  62.9400  0.00  0.00     0.000 HD
BRANCH 17 30
ATOM     30  O4  BGC C   3      57.123  56.925  59.3660  0.00  0.00     0.000 O
BRANCH 30 34
ATOM     31  C1  BGC C   3      55.269  53.364  58.8970  0.00  0.00     0.000 C
ATOM     32  C2  BGC C   3      55.515  53.804  60.3600  0.00  0.00     0.000 C
ATOM     33  C3  BGC C   3      55.873  55.248  60.4340  0.00  0.00     0.000 C
ATOM     34  C4  BGC C   3      57.020  55.512  59.4560  0.00  0.00     0.000 C
ATOM     35  C5  BGC C   3      56.775  54.939  58.0360  0.00  0.00     0.000 C
ATOM     36  O5  BGC C   3      56.418  53.582  58.1170  0.00  0.00     0.000 O
ATOM     37   O  BGC C   3      54.483  53.597  61.3060  0.00  0.00     0.000 O
ATOM     39  HD  BGC C   3      55.116  54.123  61.0340  0.00  0.00     0.000 HD
ATOM     39   O  BGC C   3      56.252  55.603  61.7970  0.00  0.00     0.000 O
ATOM     41  HD  BGC C   3      56.884  56.129  61.5240  0.00  0.00     0.000 HD
ATOM     41   C  BGC C   3      57.984  55.026  57.0760  0.00  0.00     0.000 C
ATOM     42   O  BGC C   3      59.161  54.236  57.4760  0.00  0.00     0.000 O
ATOM     44  HD  BGC C   3      59.793  54.761  57.2040  0.00  0.00     0.000 HD
BRANCH 31 44
ATOM     44  O4  BGC C   4      54.933  52.018  58.8320  0.00  0.00     0.000 O
BRANCH 44 48
ATOM     45  C1  BGC C   4      52.558  49.252  56.9690  0.00  0.00     0.000 C
ATOM     46  C2  BGC C   4      53.677  49.778  56.0130  0.00  0.00     0.000 C
ATOM     47  C3  BGC C   4      54.597  50.529  56.9840  0.00  0.00     0.000 C
ATOM     48  C4  BGC C   4      53.985  51.554  57.9170  0.00  0.00     0.000 C
ATOM     49  C5  BGC C   4      52.918  50.807  58.7340  0.00  0.00     0.000 C
ATOM     50  O5  BGC C   4      51.999  50.188  57.9030  0.00  0.00     0.000 O
ATOM     51   O  BGC C   4      54.559  48.846  55.1630  0.00  0.00     0.000 O
ATOM     53  HD  BGC C   4      55.203  49.280  54.7800  0.00  0.00     0.000 HD
ATOM     53   O  BGC C   4      55.390  51.348  56.0030  0.00  0.00     0.000 O
ATOM     55  HD  BGC C   4      56.034  51.782  55.6200  0.00  0.00     0.000 HD
ATOM     55   C  BGC C   4      52.118  51.755  59.5890  0.00  0.00     0.000 C
ATOM     56   O  BGC C   4      51.474  52.826  58.8900  0.00  0.00     0.000 O
ATOM     58  HD  BGC C   4      52.118  53.261  58.5070  0.00  0.00     0.000 HD
BRANCH 45 58
ATOM     58  O4  BGC C   5      51.467  48.734  56.2680  0.00  0.00     0.000 O
BRANCH 58 62
ATOM     59  C1  BGC C   5      52.216  45.986  55.1530  0.00  0.00     0.000 C
ATOM     60  C2  BGC C   5      50.838  46.220  54.7750  0.00  0.00     0.000 C
ATOM     61  C3  BGC C   5      49.980  46.781  55.9060  0.00  0.00     0.000 C
ATOM     62  C4  BGC C   5      50.873  47.555  56.8650  0.00  0.00     0.000 C
ATOM     63  C5  BGC C   5      52.102  46.712  57.1120  0.00  0.00     0.000 C
ATOM     64  O5  BGC C   5      52.365  45.624  56.2280  0.00  0.00     0.000 O
ATOM     65   O  BGC C   5      51.084  45.306  58.7920  0.00  0.00     0.000 O
ATOM     67  HD  BGC C   5      51.556  46.013  58.6270  0.00  0.00     0.000 HD
ATOM     67   O  BGC C   5      51.084  45.306  58.7920  0.00  0.00     0.000 O
ATOM     69  HD  BGC C   5      51.556  46.013  58.6270  0.00  0.00     0.000 HD
ENDBRANCH 58 62
ENDBRANCH 45 58
ENDBRANCH 44 48
ENDBRANCH 31 44
ENDBRANCH 30 34
ENDBRANCH 17 30
ENDBRANCH 16 20
ENDBRANCH 1 16
TORSDOF 8
ENDMDL
MODEL 80
REMARK VINA RESULT:      -0.1     43.697     50.127
ROOT
ATOM      1  C1  BGC C   1      31.715  63.406  19.6570  0.00  0.00     0.000 C
ATOM      2  C2  BGC C   1      32.843  64.278  20.2060  0.00  0.00     0.000 C
ATOM      3  C3  BGC C   1      32.377  65.004  21.4620  0.00  0.00     0.000 C
ATOM      4  C4  BGC C   1      31.052  65.719  21.2550  0.00  0.00     0.000 C
ATOM      5  C5  BGC C   1      30.057  64.796  20.5590  0.00  0.00     0.000 C
ATOM      6  O5  BGC C   1      30.577  64.149  19.4410  0.00  0.00     0.000 O
ATOM      7   O  BGC C   1      33.926  63.430  20.5050  0.00  0.00     0.000 O
ATOM      9  HD  BGC C   1      33.961  64.288  20.3930  0.00  0.00     0.000 HD
ATOM      9   O  BGC C   1      33.417  65.906  21.8650  0.00  0.00     0.000 O
ATOM     11  HD  BGC C   1      33.451  66.764  21.7530  0.00  0.00     0.000 HD
ATOM     11   O  BGC C   1      30.584  66.099  22.5440  0.00  0.00     0.000 O
ATOM     13  HD  BGC C   1      30.618  66.957  22.4320  0.00  0.00     0.000 HD
ATOM     13   O  BGC C   1      29.198  66.567  19.0550  0.00  0.00     0.000 O
ATOM     15  HD  BGC C   1      29.232  67.425  18.9430  0.00  0.00     0.000 HD
ATOM     15   C  BGC C   1      28.847  65.639  20.1190  0.00  0.00     0.000 C
ENDROOT
BRANCH 1 16
ATOM     16  O4  BGC C   2      32.112  62.889  18.4090  0.00  0.00     0.000 O
BRANCH 16 20
ATOM     17  C1  BGC C   2      31.501  59.512  16.1950  0.00  0.00     0.000 C
ATOM     18  C2  BGC C   2      30.415  60.571  16.1050  0.00  0.00     0.000 C
ATOM     19  C3  BGC C   2      30.909  61.900  16.6590  0.00  0.00     0.000 C
ATOM     20  C4  BGC C   2      31.482  61.691  18.0210  0.00  0.00     0.000 C
ATOM     21  C5  BGC C   2      32.504  60.558  18.0170  0.00  0.00     0.000 C
ATOM     22  O5  BGC C   2      31.942  59.382  17.5160  0.00  0.00     0.000 O
ATOM     23   O  BGC C   2      30.021  60.716  14.7320  0.00  0.00     0.000 O
ATOM     25  HD  BGC C   2      29.898  61.552  14.5450  0.00  0.00     0.000 HD
ATOM     25   O  BGC C   2      29.818  62.811  16.7300  0.00  0.00     0.000 O
ATOM     27  HD  BGC C   2      29.695  63.648  16.5430  0.00  0.00     0.000 HD
ATOM     27   C  BGC C   2      33.138  60.256  19.3910  0.00  0.00     0.000 C
ATOM     28   O  BGC C   2      32.131  60.007  20.3850  0.00  0.00     0.000 O
ATOM     30  HD  BGC C   2      32.008  60.844  20.1980  0.00  0.00     0.000 HD
BRANCH 17 30
ATOM     30  O4  BGC C   3      30.978  58.271  15.7720  0.00  0.00     0.000 O
BRANCH 30 34
ATOM     31  C1  BGC C   3      32.052  54.941  13.7480  0.00  0.00     0.000 C
ATOM     32  C2  BGC C   3      32.432  54.966  15.2480  0.00  0.00     0.000 C
ATOM     33  C3  BGC C   3      31.704  56.046  15.9700  0.00  0.00     0.000 C
ATOM     34  C4  BGC C   3      31.908  57.358  15.2070  0.00  0.00     0.000 C
ATOM     35  C5  BGC C   3      31.633  57.246  13.6860  0.00  0.00     0.000 C
ATOM     36  O5  BGC C   3      32.359  56.172  13.1420  0.00  0.00     0.000 O
ATOM     37   O  BGC C   3      32.252  53.785  16.0070  0.00  0.00     0.000 O
ATOM     39  HD  BGC C   3      32.201  54.649  15.9980  0.00  0.00     0.000 HD
ATOM     39   O  BGC C   3      32.191  56.154  17.3400  0.00  0.00     0.000 O
ATOM     41  HD  BGC C   3      32.140  57.018  17.3310  0.00  0.00     0.000 HD
ATOM     41   C  BGC C   3      32.003  58.498  12.8580  0.00  0.00     0.000 C
ATOM     42   O  BGC C   3      33.436  58.837  12.8410  0.00  0.00     0.000 O
ATOM     44  HD  BGC C   3      33.385  59.702  12.8310  0.00  0.00     0.000 HD
BRANCH 31 44
ATOM     44  O4  BGC C   4      32.732  53.931  13.0800  0.00  0.00     0.000 O
BRANCH 44 48
ATOM     45  C1  BGC C   4      32.432  51.052  10.1850  0.00  0.00     0.000 C
ATOM     46  C2  BGC C   4      32.447  52.485   9.5630  0.00  0.00     0.000 C
ATOM     47  C3  BGC C   4      32.870  53.346  10.7590  0.00  0.00     0.000 C
ATOM     48  C4  BGC C   4      32.114  53.196  12.0650  0.00  0.00     0.000 C
ATOM     49  C5  BGC C   4      32.234  51.716  12.4610  0.00  0.00     0.000 C
ATOM     50  O5  BGC C   4      31.772  50.891  11.4490  0.00  0.00     0.000 O
ATOM     51   O  BGC C   4      33.341  52.872   8.3710  0.00  0.00     0.000 O
ATOM     53  HD  BGC C   4      33.320  53.724   8.2220  0.00  0.00     0.000 HD
ATOM     53   O  BGC C   4      32.468  54.704  10.2520  0.00  0.00     0.000 O
ATOM     55  HD  BGC C   4      32.446  55.557  10.1030  0.00  0.00     0.000 HD
ATOM     55   C  BGC C   4      31.383  51.399  13.6630  0.00  0.00     0.000 C
ATOM     56   O  BGC C   4      29.991  51.716  13.5380  0.00  0.00     0.000 O
ATOM     58  HD  BGC C   4      29.970  52.568  13.3890  0.00  0.00     0.000 HD
BRANCH 45 58
ATOM     58  O4  BGC C   5      31.838  50.115   9.3370  0.00  0.00     0.000 O
BRANCH 58 62
ATOM     59  C1  BGC C   5      33.789  49.435   7.0810  0.00  0.00     0.000 C
ATOM     60  C2  BGC C   5      32.615  48.617   6.8670  0.00  0.00     0.000 C
ATOM     61  C3  BGC C   5      32.088  47.956   8.1390  0.00  0.00     0.000 C
ATOM     62  C4  BGC C   5      32.475  48.813   9.3360  0.00  0.00     0.000 C
ATOM     63  C5  BGC C   5      33.923  49.207   9.1570  0.00  0.00     0.000 C
ATOM     64  O5  BGC C   5      34.516  49.037   7.8710  0.00  0.00     0.000 O
ATOM     65   O  BGC C   5      34.830  47.141  10.0200  0.00  0.00     0.000 O
ATOM     67  HD  BGC C   5      34.591  47.955  10.1920  0.00  0.00     0.000 HD
ATOM     67   O  BGC C   5      34.830  47.141  10.0200  0.00  0.00     0.000 O
ATOM     69  HD  BGC C   5      34.591  47.955  10.1920  0.00  0.00     0.000 HD
ENDBRANCH 58 62
ENDBRANCH 45 58
ENDBRANCH 44 48
ENDBRANCH 31 44
ENDBRANCH 30 34
ENDBRANCH 17 30
ENDBRANCH 16 20
ENDBRANCH 1 16
TORSDOF 8
ENDMDL
MODEL 81
REMARK VINA RESULT:      -0.1     62.702     67.767
ROOT
ATOM      1  C1  BGC C   1      63.895  66.465  12.3170  0.00  0.00     0.000 C
ATOM      2  C2  BGC C   1      64.904  66.847  13.3980  0.00  0.00     0.000 C
ATOM      3  C3  BGC C   1      65.106  68.358  13.4130  0.00  0.00     0.000 C
ATOM      4  C4  BGC C   1      65.402  68.912  12.0290  0.00  0.00     0.000 C
ATOM      5  C5  BGC C   1      64.424  68.337  11.0090  0.00  0.00     0.000 C
ATOM      6  O5  BGC C   1      64.278  66.954  11.0890  0.00  0.00     0.000 O
ATOM      7   O  BGC C   1      64.387  66.411  14.6330  0.00  0.00     0.000 O
ATOM      9  HD  BGC C   1      65.212  66.611  14.4630  0.00  0.00     0.000 HD
ATOM      9   O  BGC C   1      66.152  68.658  14.3470  0.00  0.00     0.000 O
ATOM     11  HD  BGC C   1      66.977  68.858  14.1770  0.00  0.00     0.000 HD
ATOM     11   O  BGC C   1      65.277  70.327  12.1170  0.00  0.00     0.000 O
ATOM     13  HD  BGC C   1      66.102  70.528  11.9480  0.00  0.00     0.000 HD
ATOM     13   O  BGC C   1      66.163  67.988   9.2790  0.00  0.00     0.000 O
ATOM     15  HD  BGC C   1      66.988  68.189   9.1090  0.00  0.00     0.000 HD
ATOM     15   C  BGC C   1      64.934  68.696   9.6010  0.00  0.00     0.000 C
ENDROOT
BRANCH 1 16
ATOM     16  O4  BGC C   2      63.862  65.061  12.2080  0.00  0.00     0.000 O
BRANCH 16 20
ATOM     17  C1  BGC C   2      61.142  62.157  11.2900  0.00  0.00     0.000 C
ATOM     18  C2  BGC C   2      61.798  62.850  10.1070  0.00  0.00     0.000 C
ATOM     19  C3  BGC C   2      63.028  63.629  10.5520  0.00  0.00     0.000 C
ATOM     20  C4  BGC C   2      62.668  64.521  11.6930  0.00  0.00     0.000 C
ATOM     21  C5  BGC C   2      61.948  63.744  12.7900  0.00  0.00     0.000 C
ATOM     22  O5  BGC C   2      60.824  63.090  12.2830  0.00  0.00     0.000 O
ATOM     23   O  BGC C   2      62.158  61.861   9.1310  0.00  0.00     0.000 O
ATOM     25  HD  BGC C   2      62.933  62.045   8.7930  0.00  0.00     0.000 HD
ATOM     25   O  BGC C   2      63.506  64.409   9.4630  0.00  0.00     0.000 O
ATOM     27  HD  BGC C   2      64.282  64.594   9.1250  0.00  0.00     0.000 HD
ATOM     27   C  BGC C   2      61.518  64.591  14.0060  0.00  0.00     0.000 C
ATOM     28   O  BGC C   2      60.725  65.719  13.6010  0.00  0.00     0.000 O
ATOM     30  HD  BGC C   2      61.501  65.903  13.2630  0.00  0.00     0.000 HD
BRANCH 17 30
ATOM     30  O4  BGC C   3      59.951  61.532  10.8620  0.00  0.00     0.000 O
BRANCH 30 34
ATOM     31  C1  BGC C   3      57.747  58.205  11.5030  0.00  0.00     0.000 C
ATOM     32  C2  BGC C   3      57.506  59.370  12.4920  0.00  0.00     0.000 C
ATOM     33  C3  BGC C   3      58.087  60.642  11.9790  0.00  0.00     0.000 C
ATOM     34  C4  BGC C   3      59.546  60.385  11.5930  0.00  0.00     0.000 C
ATOM     35  C5  BGC C   3      59.745  59.131  10.7020  0.00  0.00     0.000 C
ATOM     36  O5  BGC C   3      59.124  58.016  11.2910  0.00  0.00     0.000 O
ATOM     37   O  BGC C   3      56.175  59.663  12.8750  0.00  0.00     0.000 O
ATOM     39  HD  BGC C   3      56.953  59.984  12.6740  0.00  0.00     0.000 HD
ATOM     39   O  BGC C   3      57.987  61.687  12.9910  0.00  0.00     0.000 O
ATOM     41  HD  BGC C   3      58.765  62.009  12.7900  0.00  0.00     0.000 HD
ATOM     41   C  BGC C   3      61.218  58.738  10.4450  0.00  0.00     0.000 C
ATOM     42   O  BGC C   3      61.977  58.332  11.6400  0.00  0.00     0.000 O
ATOM     44  HD  BGC C   3      62.755  58.654  11.4390  0.00  0.00     0.000 HD
BRANCH 31 44
ATOM     44  O4  BGC C   4      57.203  57.022  11.9850  0.00  0.00     0.000 O
BRANCH 44 48
ATOM     45  C1  BGC C   4      55.209  53.598  10.9550  0.00  0.00     0.000 C
ATOM     46  C2  BGC C   4      56.685  53.573  10.4430  0.00  0.00     0.000 C
ATOM     47  C3  BGC C   4      57.301  54.763  11.1910  0.00  0.00     0.000 C
ATOM     48  C4  BGC C   4      56.597  56.104  11.1240  0.00  0.00     0.000 C
ATOM     49  C5  BGC C   4      55.177  55.869  11.6640  0.00  0.00     0.000 C
ATOM     50  O5  BGC C   4      54.535  54.866  10.9570  0.00  0.00     0.000 O
ATOM     51   O  BGC C   4      57.619  52.366  10.6400  0.00  0.00     0.000 O
ATOM     53  HD  BGC C   4      58.432  52.553  10.4060  0.00  0.00     0.000 HD
ATOM     53   O  BGC C   4      58.549  54.959  10.3750  0.00  0.00     0.000 O
ATOM     55  HD  BGC C   4      59.362  55.145  10.1410  0.00  0.00     0.000 HD
ATOM     55   C  BGC C   4      54.317  57.095  11.4980  0.00  0.00     0.000 C
ATOM     56   O  BGC C   4      54.208  57.599  10.1620  0.00  0.00     0.000 O
ATOM     58  HD  BGC C   4      55.021  57.786   9.9280  0.00  0.00     0.000 HD
BRANCH 45 58
ATOM     58  O4  BGC C   5      54.382  52.742  10.2240  0.00  0.00     0.000 O
BRANCH 58 62
ATOM     59  C1  BGC C   5      54.941  49.857  11.0700  0.00  0.00     0.000 C
ATOM     60  C2  BGC C   5      53.882  49.797  10.0860  0.00  0.00     0.000 C
ATOM     61  C3  BGC C   5      52.789  50.842  10.2970  0.00  0.00     0.000 C
ATOM     62  C4  BGC C   5      53.388  52.044  11.0130  0.00  0.00     0.000 C
ATOM     63  C5  BGC C   5      54.243  51.514  12.1410  0.00  0.00     0.000 C
ATOM     64  O5  BGC C   5      54.600  50.133  12.1280  0.00  0.00     0.000 O
ATOM     65   O  BGC C   5      52.412  51.187  13.6820  0.00  0.00     0.000 O
ATOM     67  HD  BGC C   5      53.041  51.714  13.4040  0.00  0.00     0.000 HD
ATOM     67   O  BGC C   5      52.412  51.187  13.6820  0.00  0.00     0.000 O
ATOM     69  HD  BGC C   5      53.041  51.714  13.4040  0.00  0.00     0.000 HD
ENDBRANCH 58 62
ENDBRANCH 45 58
ENDBRANCH 44 48
ENDBRANCH 31 44
ENDBRANCH 30 34
ENDBRANCH 17 30
ENDBRANCH 16 20
ENDBRANCH 1 16
TORSDOF 8
ENDMDL
MODEL 82
REMARK VINA RESULT:      -0.1     25.209     31.947
ROOT
ATOM      1  C1  BGC C   1      23.974   8.625  34.2270  0.00  0.00     0.000 C
ATOM      2  C2  BGC C   1      24.491   7.709  33.1190  0.00  0.00     0.000 C
ATOM      3  C3  BGC C   1      23.474   6.612  32.8310  0.00  0.00     0.000 C
ATOM      4  C4  BGC C   1      23.022   5.901  34.0960  0.00  0.00     0.000 C
ATOM      5  C5  BGC C   1      22.680   6.918  35.1810  0.00  0.00     0.000 C
ATOM      6  O5  BGC C   1      23.650   7.903  35.3530  0.00  0.00     0.000 O
ATOM      7   O  BGC C   1      24.691   8.503  31.9730  0.00  0.00     0.000 O
ATOM      9  HD  BGC C   1      25.033   7.722  32.1230  0.00  0.00     0.000 HD
ATOM      9   O  BGC C   1      24.053   5.705  31.8840  0.00  0.00     0.000 O
ATOM     11  HD  BGC C   1      24.396   4.924  32.0340  0.00  0.00     0.000 HD
ATOM     11   O  BGC C   1      21.882   5.123  33.7460  0.00  0.00     0.000 O
ATOM     13  HD  BGC C   1      22.224   4.342  33.8960  0.00  0.00     0.000 HD
ATOM     13   O  BGC C   1      23.770   5.619  36.9870  0.00  0.00     0.000 O
ATOM     15  HD  BGC C   1      24.112   4.838  37.1370  0.00  0.00     0.000 HD
ATOM     15   C  BGC C   1      22.507   6.162  36.5100  0.00  0.00     0.000 C
ENDROOT
BRANCH 1 16
ATOM     16  O4  BGC C   2      25.001   9.516  34.5910  0.00  0.00     0.000 O
BRANCH 16 20
ATOM     17  C1  BGC C   2      25.345  13.348  35.9610  0.00  0.00     0.000 C
ATOM     18  C2  BGC C   2      25.046  12.291  37.0120  0.00  0.00     0.000 C
ATOM     19  C3  BGC C   2      25.301  10.895  36.4610  0.00  0.00     0.000 C
ATOM     20  C4  BGC C   2      24.577  10.728  35.1680  0.00  0.00     0.000 C
ATOM     21  C5  BGC C   2      24.885  11.879  34.2150  0.00  0.00     0.000 C
ATOM     22  O5  BGC C   2      24.592  13.109  34.8060  0.00  0.00     0.000 O
ATOM     23   O  BGC C   2      25.870  12.535  38.1620  0.00  0.00     0.000 O
ATOM     25  HD  BGC C   2      26.167  11.785  38.4790  0.00  0.00     0.000 HD
ATOM     25   O  BGC C   2      24.839   9.931  37.4000  0.00  0.00     0.000 O
ATOM     27  HD  BGC C   2      25.135   9.181  37.7170  0.00  0.00     0.000 HD
ATOM     27   C  BGC C   2      24.163  11.802  32.8540  0.00  0.00     0.000 C
ATOM     28   O  BGC C   2      22.742  11.673  33.0250  0.00  0.00     0.000 O
ATOM     30  HD  BGC C   2      23.038  10.924  33.3420  0.00  0.00     0.000 HD
BRANCH 17 30
ATOM     30  O4  BGC C   3      24.999  14.619  36.4680  0.00  0.00     0.000 O
BRANCH 30 34
ATOM     31  C1  BGC C   3      26.236  18.467  36.3960  0.00  0.00     0.000 C
ATOM     32  C2  BGC C   3      25.355  18.023  35.2040  0.00  0.00     0.000 C
ATOM     33  C3  BGC C   3      24.675  16.729  35.4890  0.00  0.00     0.000 C
ATOM     34  C4  BGC C   3      25.730  15.721  35.9510  0.00  0.00     0.000 C
ATOM     35  C5  BGC C   3      26.667  16.261  37.0620  0.00  0.00     0.000 C
ATOM     36  O5  BGC C   3      27.215  17.496  36.6730  0.00  0.00     0.000 O
ATOM     37   O  BGC C   3      24.354  18.910  34.7420  0.00  0.00     0.000 O
ATOM     39  HD  BGC C   3      24.569  18.086  34.8990  0.00  0.00     0.000 HD
ATOM     39   O  BGC C   3      23.979  16.253  34.2990  0.00  0.00     0.000 O
ATOM     41  HD  BGC C   3      24.194  15.429  34.4570  0.00  0.00     0.000 HD
ATOM     41   C  BGC C   3      27.855  15.340  37.4230  0.00  0.00     0.000 C
ATOM     42   O  BGC C   3      28.831  15.122  36.3420  0.00  0.00     0.000 O
ATOM     44  HD  BGC C   3      29.046  14.298  36.5000  0.00  0.00     0.000 HD
BRANCH 31 44
ATOM     44  O4  BGC C   4      26.867  19.674  36.1270  0.00  0.00     0.000 O
BRANCH 44 48
ATOM     45  C1  BGC C   4      28.046  23.256  37.7210  0.00  0.00     0.000 C
ATOM     46  C2  BGC C   4      28.915  22.077  38.2650  0.00  0.00     0.000 C
ATOM     47  C3  BGC C   4      28.519  20.930  37.3260  0.00  0.00     0.000 C
ATOM     48  C4  BGC C   4      27.046  20.633  37.1280  0.00  0.00     0.000 C
ATOM     49  C5  BGC C   4      26.413  21.933  36.6060  0.00  0.00     0.000 C
ATOM     50  O5  BGC C   4      26.658  22.987  37.4700  0.00  0.00     0.000 O
ATOM     51   O  BGC C   4      30.453  22.125  38.3160  0.00  0.00     0.000 O
ATOM     53  HD  BGC C   4      30.788  21.356  38.5320  0.00  0.00     0.000 HD
ATOM     53   O  BGC C   4      29.029  19.760  38.1220  0.00  0.00     0.000 O
ATOM     55  HD  BGC C   4      29.364  18.991  38.3370  0.00  0.00     0.000 HD
ATOM     55   C  BGC C   4      24.913  21.818  36.5230  0.00  0.00     0.000 C
ATOM     56   O  BGC C   4      24.251  21.457  37.7410  0.00  0.00     0.000 O
ATOM     58  HD  BGC C   4      24.585  20.688  37.9560  0.00  0.00     0.000 HD
BRANCH 45 58
ATOM     58  O4  BGC C   5      28.059  24.359  38.5780  0.00  0.00     0.000 O
BRANCH 58 62
ATOM     59  C1  BGC C   5      30.735  25.810  38.2900  0.00  0.00     0.000 C
ATOM     60  C2  BGC C   5      29.957  26.572  39.2430  0.00  0.00     0.000 C
ATOM     61  C3  BGC C   5      28.507  26.788  38.8170  0.00  0.00     0.000 C
ATOM     62  C4  BGC C   5      28.085  25.643  37.9070  0.00  0.00     0.000 C
ATOM     63  C5  BGC C   5      29.205  25.421  36.9170  0.00  0.00     0.000 C
ATOM     64  O5  BGC C   5      30.477  26.006  37.1920  0.00  0.00     0.000 O
ATOM     65   O  BGC C   5      28.540  27.195  35.4180  0.00  0.00     0.000 O
ATOM     67  HD  BGC C   5      28.493  26.352  35.6100  0.00  0.00     0.000 HD
ATOM     67   O  BGC C   5      28.540  27.195  35.4180  0.00  0.00     0.000 O
ATOM     69  HD  BGC C   5      28.493  26.352  35.6100  0.00  0.00     0.000 HD
ENDBRANCH 58 62
ENDBRANCH 45 58
ENDBRANCH 44 48
ENDBRANCH 31 44
ENDBRANCH 30 34
ENDBRANCH 17 30
ENDBRANCH 16 20
ENDBRANCH 1 16
TORSDOF 8
ENDMDL
MODEL 83
REMARK VINA RESULT:      -0.1     35.932     38.463
ROOT
ATOM      1  C1  BGC C   1      16.596  27.601  44.4590  0.00  0.00     0.000 C
ATOM      2  C2  BGC C   1      16.964  26.134  44.2390  0.00  0.00     0.000 C
ATOM      3  C3  BGC C   1      17.774  25.616  45.4210  0.00  0.00     0.000 C
ATOM      4  C4  BGC C   1      18.940  26.528  45.7630  0.00  0.00     0.000 C
ATOM      5  C5  BGC C   1      18.479  27.983  45.8010  0.00  0.00     0.000 C
ATOM      6  O5  BGC C   1      17.718  28.360  44.6980  0.00  0.00     0.000 O
ATOM      7   O  BGC C   1      15.763  25.411  44.1150  0.00  0.00     0.000 O
ATOM      9  HD  BGC C   1      16.548  25.151  43.8580  0.00  0.00     0.000 HD
ATOM      9   O  BGC C   1      18.207  24.284  45.1150  0.00  0.00     0.000 O
ATOM     11  HD  BGC C   1      18.992  24.024  44.8580  0.00  0.00     0.000 HD
ATOM     11   O  BGC C   1      19.429  26.113  47.0340  0.00  0.00     0.000 O
ATOM     13  HD  BGC C   1      20.214  25.853  46.7770  0.00  0.00     0.000 HD
ATOM     13   O  BGC C   1      20.488  28.833  44.6270  0.00  0.00     0.000 O
ATOM     15  HD  BGC C   1      21.273  28.573  44.3700  0.00  0.00     0.000 HD
ATOM     15   C  BGC C   1      19.728  28.880  45.8670  0.00  0.00     0.000 C
ENDROOT
BRANCH 1 16
ATOM     16  O4  BGC C   2      16.006  28.098  43.2810  0.00  0.00     0.000 O
BRANCH 16 20
ATOM     17  C1  BGC C   2      13.174  30.850  42.2400  0.00  0.00     0.000 C
ATOM     18  C2  BGC C   2      14.566  31.398  42.5100  0.00  0.00     0.000 C
ATOM     19  C3  BGC C   2      15.595  30.276  42.5250  0.00  0.00     0.000 C
ATOM     20  C4  BGC C   2      15.145  29.198  43.4530  0.00  0.00     0.000 C
ATOM     21  C5  BGC C   2      13.712  28.774  43.1460  0.00  0.00     0.000 C
ATOM     22  O5  BGC C   2      12.848  29.870  43.1850  0.00  0.00     0.000 O
ATOM     23   O  BGC C   2      14.889  32.362  41.4960  0.00  0.00     0.000 O
ATOM     25  HD  BGC C   2      15.716  32.273  41.2540  0.00  0.00     0.000 HD
ATOM     25   O  BGC C   2      16.846  30.795  42.9590  0.00  0.00     0.000 O
ATOM     27  HD  BGC C   2      17.673  30.707  42.7180  0.00  0.00     0.000 HD
ATOM     27   C  BGC C   2      13.152  27.674  44.0710  0.00  0.00     0.000 C
ATOM     28   O  BGC C   2      13.270  28.046  45.4540  0.00  0.00     0.000 O
ATOM     30  HD  BGC C   2      14.097  27.957  45.2120  0.00  0.00     0.000 HD
BRANCH 17 30
ATOM     30  O4  BGC C   3      12.233  31.898  42.3380  0.00  0.00     0.000 O
BRANCH 30 34
ATOM     31  C1  BGC C   3       8.806  33.204  40.6400  0.00  0.00     0.000 C
ATOM     32  C2  BGC C   3       8.642  32.131  41.7420  0.00  0.00     0.000 C
ATOM     33  C3  BGC C   3       9.894  31.974  42.5320  0.00  0.00     0.000 C
ATOM     34  C4  BGC C   3      11.055  31.759  41.5580  0.00  0.00     0.000 C
ATOM     35  C5  BGC C   3      11.100  32.789  40.4000  0.00  0.00     0.000 C
ATOM     36  O5  BGC C   3       9.848  32.854  39.7630  0.00  0.00     0.000 O
ATOM     37   O  BGC C   3       7.593  32.285  42.6800  0.00  0.00     0.000 O
ATOM     39  HD  BGC C   3       8.413  32.039  42.5510  0.00  0.00     0.000 HD
ATOM     39   O  BGC C   3       9.770  30.855  43.4580  0.00  0.00     0.000 O
ATOM     41  HD  BGC C   3      10.590  30.608  43.3290  0.00  0.00     0.000 HD
ATOM     41   C  BGC C   3      12.145  32.494  39.3000  0.00  0.00     0.000 C
ATOM     42   O  BGC C   3      11.921  31.255  38.5370  0.00  0.00     0.000 O
ATOM     44  HD  BGC C   3      12.741  31.008  38.4090  0.00  0.00     0.000 HD
BRANCH 31 44
ATOM     44  O4  BGC C   4       7.635  33.348  39.9070  0.00  0.00     0.000 O
BRANCH 44 48
ATOM     45  C1  BGC C   4       5.167  36.032  38.0450  0.00  0.00     0.000 C
ATOM     46  C2  BGC C   4       6.507  35.853  37.2620  0.00  0.00     0.000 C
ATOM     47  C3  BGC C   4       7.110  34.617  37.9420  0.00  0.00     0.000 C
ATOM     48  C4  BGC C   4       7.217  34.602  39.4550  0.00  0.00     0.000 C
ATOM     49  C5  BGC C   4       5.789  34.805  39.9870  0.00  0.00     0.000 C
ATOM     50  O5  BGC C   4       5.229  35.965  39.4780  0.00  0.00     0.000 O
ATOM     51   O  BGC C   4       6.564  35.621  35.7420  0.00  0.00     0.000 O
ATOM     53  HD  BGC C   4       7.366  35.426  35.4800  0.00  0.00     0.000 HD
ATOM     53   O  BGC C   4       8.534  34.735  37.4720  0.00  0.00     0.000 O
ATOM     55  HD  BGC C   4       9.336  34.540  37.2100  0.00  0.00     0.000 HD
ATOM     55   C  BGC C   4       5.781  34.974  41.4840  0.00  0.00     0.000 C
ATOM     56   O  BGC C   4       6.601  36.032  41.9930  0.00  0.00     0.000 O
ATOM     58  HD  BGC C   4       7.403  35.837  41.7320  0.00  0.00     0.000 HD
BRANCH 45 58
ATOM     58  O4  BGC C   5       4.548  37.251  37.7600  0.00  0.00     0.000 O
BRANCH 58 62
ATOM     59  C1  BGC C   5       3.250  37.086  34.9950  0.00  0.00     0.000 C
ATOM     60  C2  BGC C   5       2.941  38.400  35.5150  0.00  0.00     0.000 C
ATOM     61  C3  BGC C   5       2.490  38.393  36.9730  0.00  0.00     0.000 C
ATOM     62  C4  BGC C   5       3.103  37.188  37.6720  0.00  0.00     0.000 C
ATOM     63  C5  BGC C   5       2.928  36.000  36.7540  0.00  0.00     0.000 C
ATOM     64  O5  BGC C   5       2.585  36.243  35.3920  0.00  0.00     0.000 O
ATOM     65   O  BGC C   5       0.648  35.540  37.4080  0.00  0.00     0.000 O
ATOM     67  HD  BGC C   5       1.487  35.367  37.5330  0.00  0.00     0.000 HD
ATOM     67   O  BGC C   5       0.648  35.540  37.4080  0.00  0.00     0.000 O
ATOM     69  HD  BGC C   5       1.487  35.367  37.5330  0.00  0.00     0.000 HD
ENDBRANCH 58 62
ENDBRANCH 45 58
ENDBRANCH 44 48
ENDBRANCH 31 44
ENDBRANCH 30 34
ENDBRANCH 17 30
ENDBRANCH 16 20
ENDBRANCH 1 16
TORSDOF 8
ENDMDL
MODEL 84
REMARK VINA RESULT:      -0.1     59.420     65.688
ROOT
ATOM      1  C1  BGC C   1      57.280  47.577  14.5420  0.00  0.00     0.000 C
ATOM      2  C2  BGC C   1      55.934  46.960  14.1640  0.00  0.00     0.000 C
ATOM      3  C3  BGC C   1      55.840  45.539  14.7080  0.00  0.00     0.000 C
ATOM      4  C4  BGC C   1      57.057  44.703  14.3460  0.00  0.00     0.000 C
ATOM      5  C5  BGC C   1      58.337  45.486  14.6230  0.00  0.00     0.000 C
ATOM      6  O5  BGC C   1      58.322  46.784  14.1190  0.00  0.00     0.000 O
ATOM      7   O  BGC C   1      54.927  47.766  14.7270  0.00  0.00     0.000 O
ATOM      9  HD  BGC C   1      54.829  47.197  14.0820  0.00  0.00     0.000 HD
ATOM      9   O  BGC C   1      54.624  44.956  14.2220  0.00  0.00     0.000 O
ATOM     11  HD  BGC C   1      54.526  44.387  13.5760  0.00  0.00     0.000 HD
ATOM     11   O  BGC C   1      56.996  43.523  15.1400  0.00  0.00     0.000 O
ATOM     13  HD  BGC C   1      56.899  42.954  14.4940  0.00  0.00     0.000 HD
ATOM     13   O  BGC C   1      59.444  44.754  12.5310  0.00  0.00     0.000 O
ATOM     15  HD  BGC C   1      59.346  44.185  11.8850  0.00  0.00     0.000 HD
ATOM     15   C  BGC C   1      59.512  44.724  13.9840  0.00  0.00     0.000 C
ENDROOT
BRANCH 1 16
ATOM     16  O4  BGC C   2      57.409  48.814  13.8810  0.00  0.00     0.000 O
BRANCH 16 20
ATOM     17  C1  BGC C   2      59.160  52.440  14.5560  0.00  0.00     0.000 C
ATOM     18  C2  BGC C   2      60.073  51.353  14.0110  0.00  0.00     0.000 C
ATOM     19  C3  BGC C   2      59.259  50.190  13.4640  0.00  0.00     0.000 C
ATOM     20  C4  BGC C   2      58.276  49.739  14.4920  0.00  0.00     0.000 C
ATOM     21  C5  BGC C   2      57.466  50.916  15.0280  0.00  0.00     0.000 C
ATOM     22  O5  BGC C   2      58.305  51.912  15.5300  0.00  0.00     0.000 O
ATOM     23   O  BGC C   2      60.900  51.916  12.9810  0.00  0.00     0.000 O
ATOM     25  HD  BGC C   2      60.978  51.356  12.3250  0.00  0.00     0.000 HD
ATOM     25   O  BGC C   2      60.136  49.119  13.1340  0.00  0.00     0.000 O
ATOM     27  HD  BGC C   2      60.214  48.560  12.4780  0.00  0.00     0.000 HD
ATOM     27   C  BGC C   2      56.434  50.548  16.1150  0.00  0.00     0.000 C
ATOM     28   O  BGC C   2      57.053  49.840  17.2020  0.00  0.00     0.000 O
ATOM     30  HD  BGC C   2      57.131  49.281  16.5450  0.00  0.00     0.000 HD
BRANCH 17 30
ATOM     30  O4  BGC C   3      59.945  53.453  15.1490  0.00  0.00     0.000 O
BRANCH 30 34
ATOM     31  C1  BGC C   3      60.058  57.467  15.6120  0.00  0.00     0.000 C
ATOM     32  C2  BGC C   3      59.179  56.699  16.6280  0.00  0.00     0.000 C
ATOM     33  C3  BGC C   3      59.472  55.239  16.5980  0.00  0.00     0.000 C
ATOM     34  C4  BGC C   3      59.390  54.759  15.1470  0.00  0.00     0.000 C
ATOM     35  C5  BGC C   3      60.189  55.639  14.1520  0.00  0.00     0.000 C
ATOM     36  O5  BGC C   3      59.835  56.990  14.3080  0.00  0.00     0.000 O
ATOM     37   O  BGC C   3      59.225  57.091  17.9870  0.00  0.00     0.000 O
ATOM     39  HD  BGC C   3      59.171  56.430  17.4290  0.00  0.00     0.000 HD
ATOM     39   O  BGC C   3      58.529  54.519  17.4450  0.00  0.00     0.000 O
ATOM     41  HD  BGC C   3      58.475  53.858  16.8870  0.00  0.00     0.000 HD
ATOM     41   C  BGC C   3      59.981  55.294  12.6590  0.00  0.00     0.000 C
ATOM     42   O  BGC C   3      58.615  55.501  12.1510  0.00  0.00     0.000 O
ATOM     44  HD  BGC C   3      58.560  54.841  11.5940  0.00  0.00     0.000 HD
BRANCH 31 44
ATOM     44  O4  BGC C   4      59.783  58.828  15.6440  0.00  0.00     0.000 O
BRANCH 44 48
ATOM     45  C1  BGC C   4      61.422  62.574  15.4350  0.00  0.00     0.000 C
ATOM     46  C2  BGC C   4      61.451  61.862  14.0450  0.00  0.00     0.000 C
ATOM     47  C3  BGC C   4      60.535  60.655  14.2860  0.00  0.00     0.000 C
ATOM     48  C4  BGC C   4      60.801  59.773  15.4900  0.00  0.00     0.000 C
ATOM     49  C5  BGC C   4      60.731  60.693  16.7190  0.00  0.00     0.000 C
ATOM     50  O5  BGC C   4      61.614  61.753  16.5980  0.00  0.00     0.000 O
ATOM     51   O  BGC C   4      60.988  62.543  12.7450  0.00  0.00     0.000 O
ATOM     53  HD  BGC C   4      60.956  61.982  12.0860  0.00  0.00     0.000 HD
ATOM     53   O  BGC C   4      60.921  59.801  13.1100  0.00  0.00     0.000 O
ATOM     55  HD  BGC C   4      60.889  59.240  12.4510  0.00  0.00     0.000 HD
ATOM     55   C  BGC C   4      61.141  59.966  17.9740  0.00  0.00     0.000 C
ATOM     56   O  BGC C   4      62.439  59.362  17.9430  0.00  0.00     0.000 O
ATOM     58  HD  BGC C   4      62.407  58.800  17.2840  0.00  0.00     0.000 HD
BRANCH 45 58
ATOM     58  O4  BGC C   5      62.384  63.581  15.5320  0.00  0.00     0.000 O
BRANCH 58 62
ATOM     59  C1  BGC C   5      61.440  66.013  13.9350  0.00  0.00     0.000 C
ATOM     60  C2  BGC C   5      62.705  66.382  14.5330  0.00  0.00     0.000 C
ATOM     61  C3  BGC C   5      62.831  65.977  15.9990  0.00  0.00     0.000 C
ATOM     62  C4  BGC C   5      61.951  64.761  16.2520  0.00  0.00     0.000 C
ATOM     63  C5  BGC C   5      60.620  65.026  15.5870  0.00  0.00     0.000 C
ATOM     64  O5  BGC C   5      60.537  66.084  14.6350  0.00  0.00     0.000 O
ATOM     65   O  BGC C   5      59.726  66.366  17.3880  0.00  0.00     0.000 O
ATOM     67  HD  BGC C   5      59.790  65.579  17.0320  0.00  0.00     0.000 HD
ATOM     67   O  BGC C   5      59.726  66.366  17.3880  0.00  0.00     0.000 O
ATOM     69  HD  BGC C   5      59.790  65.579  17.0320  0.00  0.00     0.000 HD
ENDBRANCH 58 62
ENDBRANCH 45 58
ENDBRANCH 44 48
ENDBRANCH 31 44
ENDBRANCH 30 34
ENDBRANCH 17 30
ENDBRANCH 16 20
ENDBRANCH 1 16
TORSDOF 8
ENDMDL
MODEL 85
REMARK VINA RESULT:      -0.1     47.937     56.875
ROOT
ATOM      1  C1  BGC C   1      14.818  59.396  20.5990  0.00  0.00     0.000 C
ATOM      2  C2  BGC C   1      15.743  58.186  20.7310  0.00  0.00     0.000 C
ATOM      3  C3  BGC C   1      16.582  58.031  19.4690  0.00  0.00     0.000 C
ATOM      4  C4  BGC C   1      15.735  58.060  18.2080  0.00  0.00     0.000 C
ATOM      5  C5  BGC C   1      14.745  59.219  18.2630  0.00  0.00     0.000 C
ATOM      6  O5  BGC C   1      14.046  59.304  19.4640  0.00  0.00     0.000 O
ATOM      7   O  BGC C   1      16.573  58.408  21.8470  0.00  0.00     0.000 O
ATOM      9  HD  BGC C   1      16.416  57.646  21.4660  0.00  0.00     0.000 HD
ATOM      9   O  BGC C   1      17.335  56.815  19.5820  0.00  0.00     0.000 O
ATOM     11  HD  BGC C   1      17.178  56.053  19.2020  0.00  0.00     0.000 HD
ATOM     11   O  BGC C   1      16.633  58.205  17.1120  0.00  0.00     0.000 O
ATOM     13  HD  BGC C   1      16.476  57.443  16.7320  0.00  0.00     0.000 HD
ATOM     13   O  BGC C   1      12.869  57.891  17.3380  0.00  0.00     0.000 O
ATOM     15  HD  BGC C   1      12.712  57.129  16.9580  0.00  0.00     0.000 HD
ATOM     15   C  BGC C   1      13.733  59.041  17.1170  0.00  0.00     0.000 C
ENDROOT
BRANCH 1 16
ATOM     16  O4  BGC C   2      13.936  59.410  21.6970  0.00  0.00     0.000 O
BRANCH 16 20
ATOM     17  C1  BGC C   2      11.986  62.178  23.9800  0.00  0.00     0.000 C
ATOM     18  C2  BGC C   2      11.321  61.816  22.6610  0.00  0.00     0.000 C
ATOM     19  C3  BGC C   2      11.923  60.543  22.0840  0.00  0.00     0.000 C
ATOM     20  C4  BGC C   2      13.409  60.671  22.0340  0.00  0.00     0.000 C
ATOM     21  C5  BGC C   2      13.967  61.111  23.3840  0.00  0.00     0.000 C
ATOM     22  O5  BGC C   2      13.369  62.299  23.8080  0.00  0.00     0.000 O
ATOM     23   O  BGC C   2       9.913  61.650  22.8830  0.00  0.00     0.000 O
ATOM     25  HD  BGC C   2       9.619  60.973  22.4300  0.00  0.00     0.000 HD
ATOM     25   O  BGC C   2      11.413  60.337  20.7730  0.00  0.00     0.000 O
ATOM     27  HD  BGC C   2      11.119  59.660  20.3200  0.00  0.00     0.000 HD
ATOM     27   C  BGC C   2      15.499  61.289  23.4220  0.00  0.00     0.000 C
ATOM     28   O  BGC C   2      15.945  62.184  22.3900  0.00  0.00     0.000 O
ATOM     30  HD  BGC C   2      15.651  61.507  21.9370  0.00  0.00     0.000 HD
BRANCH 17 30
ATOM     30  O4  BGC C   3      11.479  63.415  24.4330  0.00  0.00     0.000 O
BRANCH 30 34
ATOM     31  C1  BGC C   3      10.460  65.326  27.8460  0.00  0.00     0.000 C
ATOM     32  C2  BGC C   3      11.960  65.378  27.4700  0.00  0.00     0.000 C
ATOM     33  C3  BGC C   3      12.176  64.962  26.0570  0.00  0.00     0.000 C
ATOM     34  C4  BGC C   3      11.480  63.616  25.8380  0.00  0.00     0.000 C
ATOM     35  C5  BGC C   3      10.016  63.580  26.3470  0.00  0.00     0.000 C
ATOM     36  O5  BGC C   3       9.955  64.024  27.6790  0.00  0.00     0.000 O
ATOM     37   O  BGC C   3      12.652  66.601  27.6390  0.00  0.00     0.000 O
ATOM     39  HD  BGC C   3      12.546  65.895  27.1480  0.00  0.00     0.000 HD
ATOM     39   O  BGC C   3      13.603  64.868  25.7720  0.00  0.00     0.000 O
ATOM     41  HD  BGC C   3      13.497  64.162  25.2810  0.00  0.00     0.000 HD
ATOM     41   C  BGC C   3       9.343  62.189  26.3100  0.00  0.00     0.000 C
ATOM     42   O  BGC C   3       9.949  61.175  27.1890  0.00  0.00     0.000 O
ATOM     44  HD  BGC C   3       9.843  60.469  26.6980  0.00  0.00     0.000 HD
BRANCH 31 44
ATOM     44  O4  BGC C   4      10.262  65.717  29.1640  0.00  0.00     0.000 O
BRANCH 44 48
ATOM     45  C1  BGC C   4       7.807  67.786  31.7030  0.00  0.00     0.000 C
ATOM     46  C2  BGC C   4       7.139  66.459  31.2220  0.00  0.00     0.000 C
ATOM     47  C3  BGC C   4       8.318  65.729  30.5660  0.00  0.00     0.000 C
ATOM     48  C4  BGC C   4       9.145  66.469  29.5330  0.00  0.00     0.000 C
ATOM     49  C5  BGC C   4       9.678  67.729  30.2340  0.00  0.00     0.000 C
ATOM     50  O5  BGC C   4       8.642  68.480  30.7630  0.00  0.00     0.000 O
ATOM     51   O  BGC C   4       6.456  65.469  32.1820  0.00  0.00     0.000 O
ATOM     53  HD  BGC C   4       6.241  64.733  31.7800  0.00  0.00     0.000 HD
ATOM     53   O  BGC C   4       7.569  64.696  29.7700  0.00  0.00     0.000 O
ATOM     55  HD  BGC C   4       7.354  63.960  29.3670  0.00  0.00     0.000 HD
ATOM     55   C  BGC C   4      10.384  68.640  29.2630  0.00  0.00     0.000 C
ATOM     56   O  BGC C   4       9.613  69.054  28.1290  0.00  0.00     0.000 O
ATOM     58  HD  BGC C   4       9.398  68.318  27.7260  0.00  0.00     0.000 HD
BRANCH 45 58
ATOM     58  O4  BGC C   5       6.865  68.728  32.1250  0.00  0.00     0.000 O
BRANCH 58 62
ATOM     59  C1  BGC C   5       5.810  67.913  34.8770  0.00  0.00     0.000 C
ATOM     60  C2  BGC C   5       5.157  69.160  34.5420  0.00  0.00     0.000 C
ATOM     61  C3  BGC C   5       6.101  70.210  33.9620  0.00  0.00     0.000 C
ATOM     62  C4  BGC C   5       7.265  69.504  33.2810  0.00  0.00     0.000 C
ATOM     63  C5  BGC C   5       7.731  68.408  34.2100  0.00  0.00     0.000 C
ATOM     64  O5  BGC C   5       6.875  68.022  35.2840  0.00  0.00     0.000 O
ATOM     65   O  BGC C   5       9.085  69.846  35.6010  0.00  0.00     0.000 O
ATOM     67  HD  BGC C   5       9.059  69.310  34.9210  0.00  0.00     0.000 HD
ATOM     67   O  BGC C   5       9.085  69.846  35.6010  0.00  0.00     0.000 O
ATOM     69  HD  BGC C   5       9.059  69.310  34.9210  0.00  0.00     0.000 HD
ENDBRANCH 58 62
ENDBRANCH 45 58
ENDBRANCH 44 48
ENDBRANCH 31 44
ENDBRANCH 30 34
ENDBRANCH 17 30
ENDBRANCH 16 20
ENDBRANCH 1 16
TORSDOF 8
ENDMDL
MODEL 86
REMARK VINA RESULT:      -0.1     53.619     57.006
ROOT
ATOM      1  C1  BGC C   1      29.277  12.401  64.2330  0.00  0.00     0.000 C
ATOM      2  C2  BGC C   1      29.358  11.555  65.5030  0.00  0.00     0.000 C
ATOM      3  C3  BGC C   1      30.094  10.251  65.2160  0.00  0.00     0.000 C
ATOM      4  C4  BGC C   1      29.537   9.533  63.9970  0.00  0.00     0.000 C
ATOM      5  C5  BGC C   1      29.355  10.515  62.8430  0.00  0.00     0.000 C
ATOM      6  O5  BGC C   1      28.703  11.691  63.2030  0.00  0.00     0.000 O
ATOM      7   O  BGC C   1      30.054  12.306  66.4680  0.00  0.00     0.000 O
ATOM      9  HD  BGC C   1      29.541  11.625  66.6190  0.00  0.00     0.000 HD
ATOM      9   O  BGC C   1      30.032   9.436  66.3940  0.00  0.00     0.000 O
ATOM     11  HD  BGC C   1      29.518   8.755  66.5450  0.00  0.00     0.000 HD
ATOM     11   O  BGC C   1      30.470   8.513  63.6590  0.00  0.00     0.000 O
ATOM     13  HD  BGC C   1      29.957   7.832  63.8100  0.00  0.00     0.000 HD
ATOM     13   O  BGC C   1      27.163   9.582  62.1650  0.00  0.00     0.000 O
ATOM     15  HD  BGC C   1      26.650   8.901  62.3160  0.00  0.00     0.000 HD
ATOM     15   C  BGC C   1      28.535   9.816  61.7440  0.00  0.00     0.000 C
ENDROOT
BRANCH 1 16
ATOM     16  O4  BGC C   2      28.445  13.509  64.4830  0.00  0.00     0.000 O
BRANCH 16 20
ATOM     17  C1  BGC C   2      28.134  17.398  63.2750  0.00  0.00     0.000 C
ATOM     18  C2  BGC C   2      27.518  16.362  62.3480  0.00  0.00     0.000 C
ATOM     19  C3  BGC C   2      27.369  15.024  63.0560  0.00  0.00     0.000 C
ATOM     20  C4  BGC C   2      28.673  14.634  63.6680  0.00  0.00     0.000 C
ATOM     21  C5  BGC C   2      29.241  15.768  64.5150  0.00  0.00     0.000 C
ATOM     22  O5  BGC C   2      29.362  16.939  63.7650  0.00  0.00     0.000 O
ATOM     23   O  BGC C   2      26.239  16.841  61.9040  0.00  0.00     0.000 O
ATOM     25  HD  BGC C   2      25.667  16.190  61.8910  0.00  0.00     0.000 HD
ATOM     25   O  BGC C   2      26.966  14.038  62.1130  0.00  0.00     0.000 O
ATOM     27  HD  BGC C   2      26.394  13.388  62.1000  0.00  0.00     0.000 HD
ATOM     27   C  BGC C   2      30.602  15.463  65.1740  0.00  0.00     0.000 C
ATOM     28   O  BGC C   2      31.571  15.044  64.1990  0.00  0.00     0.000 O
ATOM     30  HD  BGC C   2      30.999  14.394  64.1860  0.00  0.00     0.000 HD
BRANCH 17 30
ATOM     30  O4  BGC C   3      28.355  18.593  62.5580  0.00  0.00     0.000 O
BRANCH 30 34
ATOM     31  C1  BGC C   3      28.225  22.605  63.0320  0.00  0.00     0.000 C
ATOM     32  C2  BGC C   3      29.532  21.917  63.4930  0.00  0.00     0.000 C
ATOM     33  C3  BGC C   3      29.623  20.527  62.9680  0.00  0.00     0.000 C
ATOM     34  C4  BGC C   3      28.324  19.794  63.3150  0.00  0.00     0.000 C
ATOM     35  C5  BGC C   3      27.043  20.583  62.9440  0.00  0.00     0.000 C
ATOM     36  O5  BGC C   3      27.104  21.883  63.4780  0.00  0.00     0.000 O
ATOM     37   O  BGC C   3      30.764  22.543  63.1880  0.00  0.00     0.000 O
ATOM     39  HD  BGC C   3      30.336  21.794  63.2610  0.00  0.00     0.000 HD
ATOM     39   O  BGC C   3      30.779  19.847  63.5390  0.00  0.00     0.000 O
ATOM     41  HD  BGC C   3      30.351  19.098  63.6120  0.00  0.00     0.000 HD
ATOM     41   C  BGC C   3      25.720  19.958  63.4430  0.00  0.00     0.000 C
ATOM     42   O  BGC C   3      25.571  19.891  64.9070  0.00  0.00     0.000 O
ATOM     44  HD  BGC C   3      25.142  19.142  64.9790  0.00  0.00     0.000 HD
BRANCH 31 44
ATOM     44  O4  BGC C   4      28.145  23.902  63.5220  0.00  0.00     0.000 O
BRANCH 44 48
ATOM     45  C1  BGC C   4      27.004  27.737  62.6560  0.00  0.00     0.000 C
ATOM     46  C2  BGC C   4      25.766  26.803  62.8410  0.00  0.00     0.000 C
ATOM     47  C3  BGC C   4      26.403  25.547  63.4480  0.00  0.00     0.000 C
ATOM     48  C4  BGC C   4      27.600  24.932  62.7510  0.00  0.00     0.000 C
ATOM     49  C5  BGC C   4      28.668  26.036  62.6800  0.00  0.00     0.000 C
ATOM     50  O5  BGC C   4      28.174  27.166  62.0490  0.00  0.00     0.000 O
ATOM     51   O  BGC C   4      24.556  27.180  63.7150  0.00  0.00     0.000 O
ATOM     53  HD  BGC C   4      24.011  26.513  63.8070  0.00  0.00     0.000 HD
ATOM     53   O  BGC C   4      25.292  24.559  63.2170  0.00  0.00     0.000 O
ATOM     55  HD  BGC C   4      24.748  23.892  63.3090  0.00  0.00     0.000 HD
ATOM     55   C  BGC C   4      29.854  25.600  61.8590  0.00  0.00     0.000 C
ATOM     56   O  BGC C   4      29.561  25.177  60.5230  0.00  0.00     0.000 O
ATOM     58  HD  BGC C   4      29.016  24.510  60.6150  0.00  0.00     0.000 HD
BRANCH 45 58
ATOM     58  O4  BGC C   5      26.704  28.865  61.8880  0.00  0.00     0.000 O
BRANCH 58 62
ATOM     59  C1  BGC C   5      25.103  30.832  63.5960  0.00  0.00     0.000 C
ATOM     60  C2  BGC C   5      25.287  31.465  62.3080  0.00  0.00     0.000 C
ATOM     61  C3  BGC C   5      26.708  31.343  61.7620  0.00  0.00     0.000 C
ATOM     62  C4  BGC C   5      27.348  30.085  62.3320  0.00  0.00     0.000 C
ATOM     63  C5  BGC C   5      27.032  30.050  63.8090  0.00  0.00     0.000 C
ATOM     64  O5  BGC C   5      26.002  30.905  64.3010  0.00  0.00     0.000 O
ATOM     65   O  BGC C   5      28.807  31.554  64.4590  0.00  0.00     0.000 O
ATOM     67  HD  BGC C   5      28.557  30.732  64.3480  0.00  0.00     0.000 HD
ATOM     67   O  BGC C   5      28.807  31.554  64.4590  0.00  0.00     0.000 O
ATOM     69  HD  BGC C   5      28.557  30.732  64.3480  0.00  0.00     0.000 HD
ENDBRANCH 58 62
ENDBRANCH 45 58
ENDBRANCH 44 48
ENDBRANCH 31 44
ENDBRANCH 30 34
ENDBRANCH 17 30
ENDBRANCH 16 20
ENDBRANCH 1 16
TORSDOF 8
ENDMDL
MODEL 87
REMARK VINA RESULT:      -0.1     42.691     47.993
ROOT
ATOM      1  C1  BGC C   1      35.007  33.218  52.4660  0.00  0.00     0.000 C
ATOM      2  C2  BGC C   1      34.972  34.669  51.9880  0.00  0.00     0.000 C
ATOM      3  C3  BGC C   1      34.907  35.611  53.1850  0.00  0.00     0.000 C
ATOM      4  C4  BGC C   1      33.807  35.226  54.1600  0.00  0.00     0.000 C
ATOM      5  C5  BGC C   1      33.849  33.726  54.4390  0.00  0.00     0.000 C
ATOM      6  O5  BGC C   1      33.941  32.944  53.2910  0.00  0.00     0.000 O
ATOM      7   O  BGC C   1      36.147  34.899  51.2480  0.00  0.00     0.000 O
ATOM      9  HD  BGC C   1      35.424  35.374  51.2240  0.00  0.00     0.000 HD
ATOM      9   O  BGC C   1      34.744  36.947  52.6910  0.00  0.00     0.000 O
ATOM     11  HD  BGC C   1      34.020  37.422  52.6670  0.00  0.00     0.000 HD
ATOM     11   O  BGC C   1      34.032  35.974  55.3500  0.00  0.00     0.000 O
ATOM     13  HD  BGC C   1      33.309  36.450  55.3260  0.00  0.00     0.000 HD
ATOM     13   O  BGC C   1      31.387  33.464  54.3440  0.00  0.00     0.000 O
ATOM     15  HD  BGC C   1      30.663  33.939  54.3200  0.00  0.00     0.000 HD
ATOM     15   C  BGC C   1      32.562  33.343  55.1920  0.00  0.00     0.000 C
ENDROOT
BRANCH 1 16
ATOM     16  O4  BGC C   2      34.889  32.372  51.3460  0.00  0.00     0.000 O
BRANCH 16 20
ATOM     17  C1  BGC C   2      36.193  28.680  50.1860  0.00  0.00     0.000 C
ATOM     18  C2  BGC C   2      34.960  28.701  51.0740  0.00  0.00     0.000 C
ATOM     19  C3  BGC C   2      34.363  30.099  51.1380  0.00  0.00     0.000 C
ATOM     20  C4  BGC C   2      35.426  31.080  51.5020  0.00  0.00     0.000 C
ATOM     21  C5  BGC C   2      36.647  30.925  50.6010  0.00  0.00     0.000 C
ATOM     22  O5  BGC C   2      37.130  29.616  50.6370  0.00  0.00     0.000 O
ATOM     23   O  BGC C   2      33.999  27.768  50.5560  0.00  0.00     0.000 O
ATOM     25  HD  BGC C   2      33.202  28.102  50.6090  0.00  0.00     0.000 HD
ATOM     25   O  BGC C   2      33.330  30.123  52.1150  0.00  0.00     0.000 O
ATOM     27  HD  BGC C   2      32.532  30.457  52.1690  0.00  0.00     0.000 HD
ATOM     27   C  BGC C   2      37.810  31.888  50.9170  0.00  0.00     0.000 C
ATOM     28   O  BGC C   2      38.202  31.796  52.2970  0.00  0.00     0.000 O
ATOM     30  HD  BGC C   2      37.404  32.130  52.3500  0.00  0.00     0.000 HD
BRANCH 17 30
ATOM     30  O4  BGC C   3      36.780  27.398  50.2330  0.00  0.00     0.000 O
BRANCH 30 34
ATOM     31  C1  BGC C   3      38.692  24.734  47.8690  0.00  0.00     0.000 C
ATOM     32  C2  BGC C   3      39.580  25.838  48.4910  0.00  0.00     0.000 C
ATOM     33  C3  BGC C   3      38.872  26.541  49.5960  0.00  0.00     0.000 C
ATOM     34  C4  BGC C   3      37.504  26.996  49.0800  0.00  0.00     0.000 C
ATOM     35  C5  BGC C   3      36.707  25.882  48.3540  0.00  0.00     0.000 C
ATOM     36  O5  BGC C   3      37.503  25.287  47.3600  0.00  0.00     0.000 O
ATOM     37   O  BGC C   3      40.851  25.472  48.9970  0.00  0.00     0.000 O
ATOM     39  HD  BGC C   3      40.148  25.967  49.1040  0.00  0.00     0.000 HD
ATOM     39   O  BGC C   3      39.662  27.674  50.0610  0.00  0.00     0.000 O
ATOM     41  HD  BGC C   3      38.960  28.169  50.1690  0.00  0.00     0.000 HD
ATOM     41   C  BGC C   3      35.406  26.350  47.6630  0.00  0.00     0.000 C
ATOM     42   O  BGC C   3      35.593  27.301  46.5540  0.00  0.00     0.000 O
ATOM     44  HD  BGC C   3      34.890  27.796  46.6610  0.00  0.00     0.000 HD
BRANCH 31 44
ATOM     44  O4  BGC C   4      39.357  24.080  46.8400  0.00  0.00     0.000 O
BRANCH 44 48
ATOM     45  C1  BGC C   4      40.013  20.452  45.0600  0.00  0.00     0.000 C
ATOM     46  C2  BGC C   4      38.563  20.965  44.7890  0.00  0.00     0.000 C
ATOM     47  C3  BGC C   4      38.647  22.422  45.2610  0.00  0.00     0.000 C
ATOM     48  C4  BGC C   4      39.205  22.706  46.6420  0.00  0.00     0.000 C
ATOM     49  C5  BGC C   4      40.618  22.101  46.6650  0.00  0.00     0.000 C
ATOM     50  O5  BGC C   4      40.589  20.755  46.3400  0.00  0.00     0.000 O
ATOM     51   O  BGC C   4      37.923  20.966  43.3890  0.00  0.00     0.000 O
ATOM     53  HD  BGC C   4      37.166  21.387  43.3860  0.00  0.00     0.000 HD
ATOM     53   O  BGC C   4      37.181  22.738  45.3820  0.00  0.00     0.000 O
ATOM     55  HD  BGC C   4      36.424  23.158  45.3790  0.00  0.00     0.000 HD
ATOM     55   C  BGC C   4      41.222  22.171  48.0440  0.00  0.00     0.000 C
ATOM     56   O  BGC C   4      40.457  21.558  49.0880  0.00  0.00     0.000 O
ATOM     58  HD  BGC C   4      39.700  21.978  49.0850  0.00  0.00     0.000 HD
BRANCH 45 58
ATOM     58  O4  BGC C   5      40.115  19.065  44.9290  0.00  0.00     0.000 O
BRANCH 58 62
ATOM     59  C1  BGC C   5      40.098  18.344  41.9570  0.00  0.00     0.000 C
ATOM     60  C2  BGC C   5      40.252  17.100  42.6790  0.00  0.00     0.000 C
ATOM     61  C3  BGC C   5      41.268  17.172  43.8150  0.00  0.00     0.000 C
ATOM     62  C4  BGC C   5      41.346  18.607  44.3170  0.00  0.00     0.000 C
ATOM     63  C5  BGC C   5      41.409  19.504  43.1030  0.00  0.00     0.000 C
ATOM     64  O5  BGC C   5      41.060  18.952  41.8350  0.00  0.00     0.000 O
ATOM     65   O  BGC C   5      43.783  19.233  42.7420  0.00  0.00     0.000 O
ATOM     67  HD  BGC C   5      43.153  19.706  43.1040  0.00  0.00     0.000 HD
ATOM     67   O  BGC C   5      43.783  19.233  42.7420  0.00  0.00     0.000 O
ATOM     69  HD  BGC C   5      43.153  19.706  43.1040  0.00  0.00     0.000 HD
ENDBRANCH 58 62
ENDBRANCH 45 58
ENDBRANCH 44 48
ENDBRANCH 31 44
ENDBRANCH 30 34
ENDBRANCH 17 30
ENDBRANCH 16 20
ENDBRANCH 1 16
TORSDOF 8
ENDMDL
MODEL 88
REMARK VINA RESULT:      -0.1     45.224     53.556
ROOT
ATOM      1  C1  BGC C   1      39.266  28.492  45.3960  0.00  0.00     0.000 C
ATOM      2  C2  BGC C   1      39.060  28.110  43.9310  0.00  0.00     0.000 C
ATOM      3  C3  BGC C   1      38.719  29.350  43.1110  0.00  0.00     0.000 C
ATOM      4  C4  BGC C   1      37.591  30.157  43.7320  0.00  0.00     0.000 C
ATOM      5  C5  BGC C   1      37.834  30.340  45.2280  0.00  0.00     0.000 C
ATOM      6  O5  BGC C   1      38.171  29.163  45.8900  0.00  0.00     0.000 O
ATOM      7   O  BGC C   1      40.259  27.534  43.4710  0.00  0.00     0.000 O
ATOM      9  HD  BGC C   1      39.477  27.455  43.1060  0.00  0.00     0.000 HD
ATOM      9   O  BGC C   1      38.406  28.928  41.7770  0.00  0.00     0.000 O
ATOM     11  HD  BGC C   1      37.624  28.849  41.4120  0.00  0.00     0.000 HD
ATOM     11   O  BGC C   1      37.566  31.412  43.0610  0.00  0.00     0.000 O
ATOM     13  HD  BGC C   1      36.784  31.333  42.6960  0.00  0.00     0.000 HD
ATOM     13   O  BGC C   1      35.468  29.931  45.8390  0.00  0.00     0.000 O
ATOM     15  HD  BGC C   1      34.686  29.851  45.4740  0.00  0.00     0.000 HD
ATOM     15   C  BGC C   1      36.547  30.906  45.8570  0.00  0.00     0.000 C
ENDROOT
BRANCH 1 16
ATOM     16  O4  BGC C   2      39.404  27.313  46.1530  0.00  0.00     0.000 O
BRANCH 16 20
ATOM     17  C1  BGC C   2      41.383  26.080  49.5060  0.00  0.00     0.000 C
ATOM     18  C2  BGC C   2      40.071  26.812  49.7400  0.00  0.00     0.000 C
ATOM     19  C3  BGC C   2      39.262  26.894  48.4540  0.00  0.00     0.000 C
ATOM     20  C4  BGC C   2      40.114  27.448  47.3620  0.00  0.00     0.000 C
ATOM     21  C5  BGC C   2      41.436  26.693  47.2610  0.00  0.00     0.000 C
ATOM     22  O5  BGC C   2      42.109  26.701  48.4840  0.00  0.00     0.000 O
ATOM     23   O  BGC C   2      39.330  26.121  50.7560  0.00  0.00     0.000 O
ATOM     25  HD  BGC C   2      38.489  26.099  50.5480  0.00  0.00     0.000 HD
ATOM     25   O  BGC C   2      38.137  27.739  48.6630  0.00  0.00     0.000 O
ATOM     27  HD  BGC C   2      37.296  27.717  48.4540  0.00  0.00     0.000 HD
ATOM     27   C  BGC C   2      42.394  27.211  46.1680  0.00  0.00     0.000 C
ATOM     28   O  BGC C   2      42.641  28.618  46.3160  0.00  0.00     0.000 O
ATOM     30  HD  BGC C   2      41.801  28.597  46.1080  0.00  0.00     0.000 HD
BRANCH 17 30
ATOM     30  O4  BGC C   3      42.153  26.113  50.6880  0.00  0.00     0.000 O
BRANCH 30 34
ATOM     31  C1  BGC C   3      44.701  23.828  52.8380  0.00  0.00     0.000 C
ATOM     32  C2  BGC C   3      45.334  24.624  51.6720  0.00  0.00     0.000 C
ATOM     33  C3  BGC C   3      44.409  25.679  51.1740  0.00  0.00     0.000 C
ATOM     34  C4  BGC C   3      43.052  25.032  50.8830  0.00  0.00     0.000 C
ATOM     35  C5  BGC C   3      42.522  24.144  52.0370  0.00  0.00     0.000 C
ATOM     36  O5  BGC C   3      43.504  23.217  52.4250  0.00  0.00     0.000 O
ATOM     37   O  BGC C   3      46.583  25.255  51.8880  0.00  0.00     0.000 O
ATOM     39  HD  BGC C   3      45.804  25.309  51.5130  0.00  0.00     0.000 HD
ATOM     39   O  BGC C   3      44.958  26.310  49.9800  0.00  0.00     0.000 O
ATOM     41  HD  BGC C   3      44.180  26.364  49.6040  0.00  0.00     0.000 HD
ATOM     41   C  BGC C   3      41.248  23.332  51.7080  0.00  0.00     0.000 C
ATOM     42   O  BGC C   3      41.405  22.319  50.6510  0.00  0.00     0.000 O
ATOM     44  HD  BGC C   3      40.627  22.373  50.2750  0.00  0.00     0.000 HD
BRANCH 31 44
ATOM     44  O4  BGC C   4      45.568  22.846  53.3000  0.00  0.00     0.000 O
BRANCH 44 48
ATOM     45  C1  BGC C   4      46.969  20.925  56.6320  0.00  0.00     0.000 C
ATOM     46  C2  BGC C   4      45.495  20.515  56.3160  0.00  0.00     0.000 C
ATOM     47  C3  BGC C   4      45.301  21.088  54.9060  0.00  0.00     0.000 C
ATOM     48  C4  BGC C   4      45.653  22.542  54.6610  0.00  0.00     0.000 C
ATOM     49  C5  BGC C   4      47.131  22.696  55.0520  0.00  0.00     0.000 C
ATOM     50  O5  BGC C   4      47.347  22.282  56.3560  0.00  0.00     0.000 O
ATOM     51   O  BGC C   4      45.020  19.050  56.2920  0.00  0.00     0.000 O
ATOM     53  HD  BGC C   4      44.212  18.984  55.9880  0.00  0.00     0.000 HD
ATOM     53   O  BGC C   4      43.800  21.051  54.8200  0.00  0.00     0.000 O
ATOM     55  HD  BGC C   4      42.991  20.984  54.5160  0.00  0.00     0.000 HD
ATOM     55   C  BGC C   4      47.563  24.139  55.0090  0.00  0.00     0.000 C
ATOM     56   O  BGC C   4      46.792  25.040  55.8130  0.00  0.00     0.000 O
ATOM     58  HD  BGC C   4      45.984  24.974  55.5090  0.00  0.00     0.000 HD
BRANCH 45 58
ATOM     58  O4  BGC C   5      47.298  20.716  57.9740  0.00  0.00     0.000 O
BRANCH 58 62
ATOM     59  C1  BGC C   5      47.718  17.723  58.4400  0.00  0.00     0.000 C
ATOM     60  C2  BGC C   5      47.983  18.375  59.7040  0.00  0.00     0.000 C
ATOM     61  C3  BGC C   5      48.846  19.628  59.5790  0.00  0.00     0.000 C
ATOM     62  C4  BGC C   5      48.645  20.229  58.1950  0.00  0.00     0.000 C
ATOM     63  C5  BGC C   5      48.701  19.093  57.2000  0.00  0.00     0.000 C
ATOM     64  O5  BGC C   5      48.583  17.758  57.6900  0.00  0.00     0.000 O
ATOM     65   O  BGC C   5      51.113  19.004  57.0900  0.00  0.00     0.000 O
ATOM     67  HD  BGC C   5      50.382  19.318  56.7470  0.00  0.00     0.000 HD
ATOM     67   O  BGC C   5      51.113  19.004  57.0900  0.00  0.00     0.000 O
ATOM     69  HD  BGC C   5      50.382  19.318  56.7470  0.00  0.00     0.000 HD
ENDBRANCH 58 62
ENDBRANCH 45 58
ENDBRANCH 44 48
ENDBRANCH 31 44
ENDBRANCH 30 34
ENDBRANCH 17 30
ENDBRANCH 16 20
ENDBRANCH 1 16
TORSDOF 8
ENDMDL
MODEL 89
REMARK VINA RESULT:      -0.1     33.022     40.131
ROOT
ATOM      1  C1  BGC C   1      20.559  28.209  40.5640  0.00  0.00     0.000 C
ATOM      2  C2  BGC C   1      20.318  27.054  41.5350  0.00  0.00     0.000 C
ATOM      3  C3  BGC C   1      21.573  26.197  41.6500  0.00  0.00     0.000 C
ATOM      4  C4  BGC C   1      22.118  25.792  40.2900  0.00  0.00     0.000 C
ATOM      5  C5  BGC C   1      22.166  27.000  39.3590  0.00  0.00     0.000 C
ATOM      6  O5  BGC C   1      20.989  27.743  39.3420  0.00  0.00     0.000 O
ATOM      7   O  BGC C   1      19.993  27.615  42.7850  0.00  0.00     0.000 O
ATOM      9  HD  BGC C   1      19.833  26.803  42.5290  0.00  0.00     0.000 HD
ATOM      9   O  BGC C   1      21.261  25.059  42.4640  0.00  0.00     0.000 O
ATOM     11  HD  BGC C   1      21.102  24.247  42.2080  0.00  0.00     0.000 HD
ATOM     11   O  BGC C   1      23.421  25.263  40.5110  0.00  0.00     0.000 O
ATOM     13  HD  BGC C   1      23.262  24.452  40.2550  0.00  0.00     0.000 HD
ATOM     13   O  BGC C   1      21.325  25.741  37.3980  0.00  0.00     0.000 O
ATOM     15  HD  BGC C   1      21.166  24.929  37.1420  0.00  0.00     0.000 HD
ATOM     15   C  BGC C   1      22.449  26.494  37.9330  0.00  0.00     0.000 C
ENDROOT
BRANCH 1 16
ATOM     16  O4  BGC C   2      19.338  28.875  40.3440  0.00  0.00     0.000 O
BRANCH 16 20
ATOM     17  C1  BGC C   2      18.059  32.670  39.5430  0.00  0.00     0.000 C
ATOM     18  C2  BGC C   2      18.546  31.866  38.3470  0.00  0.00     0.000 C
ATOM     19  C3  BGC C   2      18.645  30.387  38.6950  0.00  0.00     0.000 C
ATOM     20  C4  BGC C   2      19.446  30.220  39.9420  0.00  0.00     0.000 C
ATOM     21  C5  BGC C   2      18.924  31.125  41.0540  0.00  0.00     0.000 C
ATOM     22  O5  BGC C   2      18.898  32.458  40.6420  0.00  0.00     0.000 O
ATOM     23   O  BGC C   2      17.637  32.065  37.2540  0.00  0.00     0.000 O
ATOM     25  HD  BGC C   2      17.507  31.317  36.8360  0.00  0.00     0.000 HD
ATOM     25   O  BGC C   2      19.274  29.696  37.6220  0.00  0.00     0.000 O
ATOM     27  HD  BGC C   2      19.145  28.949  37.2040  0.00  0.00     0.000 HD
ATOM     27   C  BGC C   2      19.705  31.034  42.3820  0.00  0.00     0.000 C
ATOM     28   O  BGC C   2      21.108  31.266  42.1770  0.00  0.00     0.000 O
ATOM     30  HD  BGC C   2      20.978  30.519  41.7580  0.00  0.00     0.000 HD
BRANCH 17 30
ATOM     30  O4  BGC C   3      18.079  34.043  39.2200  0.00  0.00     0.000 O
BRANCH 30 34
ATOM     31  C1  BGC C   3      15.994  37.446  39.8580  0.00  0.00     0.000 C
ATOM     32  C2  BGC C   3      17.006  37.062  40.9640  0.00  0.00     0.000 C
ATOM     33  C3  BGC C   3      17.952  36.016  40.4880  0.00  0.00     0.000 C
ATOM     34  C4  BGC C   3      17.138  34.861  39.8980  0.00  0.00     0.000 C
ATOM     35  C5  BGC C   3      16.053  35.314  38.8880  0.00  0.00     0.000 C
ATOM     36  O5  BGC C   3      15.253  36.321  39.4560  0.00  0.00     0.000 O
ATOM     37   O  BGC C   3      17.796  38.087  41.5370  0.00  0.00     0.000 O
ATOM     39  HD  BGC C   3      17.769  37.265  41.2650  0.00  0.00     0.000 HD
ATOM     39   O  BGC C   3      18.792  35.558  41.5880  0.00  0.00     0.000 O
ATOM     41  HD  BGC C   3      18.766  34.736  41.3170  0.00  0.00     0.000 HD
ATOM     41   C  BGC C   3      15.094  34.199  38.4120  0.00  0.00     0.000 C
ATOM     42   O  BGC C   3      14.244  33.612  39.4610  0.00  0.00     0.000 O
ATOM     44  HD  BGC C   3      14.218  32.790  39.1900  0.00  0.00     0.000 HD
BRANCH 31 44
ATOM     44  O4  BGC C   4      15.114  38.424  40.3060  0.00  0.00     0.000 O
BRANCH 44 48
ATOM     45  C1  BGC C   4      13.071  41.813  39.2570  0.00  0.00     0.000 C
ATOM     46  C2  BGC C   4      12.473  40.549  38.5600  0.00  0.00     0.000 C
ATOM     47  C3  BGC C   4      13.165  39.410  39.3190  0.00  0.00     0.000 C
ATOM     48  C4  BGC C   4      14.675  39.441  39.4560  0.00  0.00     0.000 C
ATOM     49  C5  BGC C   4      15.014  40.769  40.1520  0.00  0.00     0.000 C
ATOM     50  O5  BGC C   4      14.494  41.845  39.4510  0.00  0.00     0.000 O
ATOM     51   O  BGC C   4      10.965  40.242  38.5340  0.00  0.00     0.000 O
ATOM     53  HD  BGC C   4      10.808  39.453  38.2140  0.00  0.00     0.000 HD
ATOM     53   O  BGC C   4      12.903  38.273  38.3690  0.00  0.00     0.000 O
ATOM     55  HD  BGC C   4      12.746  37.484  38.0490  0.00  0.00     0.000 HD
ATOM     55   C  BGC C   4      16.502  40.999  40.2000  0.00  0.00     0.000 C
ATOM     56   O  BGC C   4      17.174  40.974  38.9350  0.00  0.00     0.000 O
ATOM     58  HD  BGC C   4      17.017  40.185  38.6160  0.00  0.00     0.000 HD
BRANCH 45 58
ATOM     58  O4  BGC C   5      12.766  42.989  38.5690  0.00  0.00     0.000 O
BRANCH 58 62
ATOM     59  C1  BGC C   5       9.843  43.718  39.0930  0.00  0.00     0.000 C
ATOM     60  C2  BGC C   5      10.381  44.765  38.2510  0.00  0.00     0.000 C
ATOM     61  C3  BGC C   5      11.760  45.254  38.6870  0.00  0.00     0.000 C
ATOM     62  C4  BGC C   5      12.474  44.126  39.4180  0.00  0.00     0.000 C
ATOM     63  C5  BGC C   5      11.481  43.514  40.3780  0.00  0.00     0.000 C
ATOM     64  O5  BGC C   5      10.098  43.816  40.2050  0.00  0.00     0.000 O
ATOM     65   O  BGC C   5      11.785  45.172  42.1090  0.00  0.00     0.000 O
ATOM     67  HD  BGC C   5      12.017  44.398  41.7980  0.00  0.00     0.000 HD
ATOM     67   O  BGC C   5      11.785  45.172  42.1090  0.00  0.00     0.000 O
ATOM     69  HD  BGC C   5      12.017  44.398  41.7980  0.00  0.00     0.000 HD
ENDBRANCH 58 62
ENDBRANCH 45 58
ENDBRANCH 44 48
ENDBRANCH 31 44
ENDBRANCH 30 34
ENDBRANCH 17 30
ENDBRANCH 16 20
ENDBRANCH 1 16
TORSDOF 8
ENDMDL
MODEL 90
REMARK VINA RESULT:      -0.1     46.959     52.908
ROOT
ATOM      1  C1  BGC C   1      50.495  15.941  39.6640  0.00  0.00     0.000 C
ATOM      2  C2  BGC C   1      49.873  16.658  40.8620  0.00  0.00     0.000 C
ATOM      3  C3  BGC C   1      48.446  17.080  40.5350  0.00  0.00     0.000 C
ATOM      4  C4  BGC C   1      48.356  17.831  39.2170  0.00  0.00     0.000 C
ATOM      5  C5  BGC C   1      49.145  17.097  38.1360  0.00  0.00     0.000 C
ATOM      6  O5  BGC C   1      50.425  16.721  38.5320  0.00  0.00     0.000 O
ATOM      7   O  BGC C   1      49.881  15.758  41.9440  0.00  0.00     0.000 O
ATOM      9  HD  BGC C   1      49.798  16.618  41.9920  0.00  0.00     0.000 HD
ATOM      9   O  BGC C   1      47.950  17.859  41.6310  0.00  0.00     0.000 O
ATOM     11  HD  BGC C   1      47.866  18.720  41.6800  0.00  0.00     0.000 HD
ATOM     11   O  BGC C   1      46.975  17.907  38.8800  0.00  0.00     0.000 O
ATOM     13  HD  BGC C   1      46.892  18.768  38.9280  0.00  0.00     0.000 HD
ATOM     13   O  BGC C   1      50.116  19.171  37.1900  0.00  0.00     0.000 O
ATOM     15  HD  BGC C   1      50.032  20.032  37.2380  0.00  0.00     0.000 HD
ATOM     15   C  BGC C   1      49.262  18.026  36.9140  0.00  0.00     0.000 C
ENDROOT
BRANCH 1 16
ATOM     16  O4  BGC C   2      51.860  15.722  39.9300  0.00  0.00     0.000 O
BRANCH 16 20
ATOM     17  C1  BGC C   2      54.715  12.946  39.0240  0.00  0.00     0.000 C
ATOM     18  C2  BGC C   2      54.456  14.004  37.9630  0.00  0.00     0.000 C
ATOM     19  C3  BGC C   2      53.664  15.167  38.5420  0.00  0.00     0.000 C
ATOM     20  C4  BGC C   2      52.448  14.649  39.2330  0.00  0.00     0.000 C
ATOM     21  C5  BGC C   2      52.808  13.541  40.2190  0.00  0.00     0.000 C
ATOM     22  O5  BGC C   2      53.507  12.514  39.5810  0.00  0.00     0.000 O
ATOM     23   O  BGC C   2      55.716  14.461  37.4480  0.00  0.00     0.000 O
ATOM     25  HD  BGC C   2      55.695  15.319  37.3300  0.00  0.00     0.000 HD
ATOM     25   O  BGC C   2      53.283  16.044  37.4890  0.00  0.00     0.000 O
ATOM     27  HD  BGC C   2      53.262  16.902  37.3720  0.00  0.00     0.000 HD
ATOM     27   C  BGC C   2      51.607  12.928  40.9690  0.00  0.00     0.000 C
ATOM     28   O  BGC C   2      50.603  12.464  40.0530  0.00  0.00     0.000 O
ATOM     30  HD  BGC C   2      50.582  13.322  39.9350  0.00  0.00     0.000 HD
BRANCH 17 30
ATOM     30  O4  BGC C   3      55.357  11.838  38.4300  0.00  0.00     0.000 O
BRANCH 30 34
ATOM     31  C1  BGC C   3      58.179   9.054  39.2190  0.00  0.00     0.000 C
ATOM     32  C2  BGC C   3      56.757   8.733  39.7370  0.00  0.00     0.000 C
ATOM     33  C3  BGC C   3      55.741   9.623  39.1090  0.00  0.00     0.000 C
ATOM     34  C4  BGC C   3      56.201  11.074  39.2770  0.00  0.00     0.000 C
ATOM     35  C5  BGC C   3      57.675  11.314  38.8600  0.00  0.00     0.000 C
ATOM     36  O5  BGC C   3      58.517  10.389  39.5020  0.00  0.00     0.000 O
ATOM     37   O  BGC C   3      56.273   7.410  39.5960  0.00  0.00     0.000 O
ATOM     39  HD  BGC C   3      56.080   8.254  39.5680  0.00  0.00     0.000 HD
ATOM     39   O  BGC C   3      54.436   9.411  39.7230  0.00  0.00     0.000 O
ATOM     41  HD  BGC C   3      54.244  10.255  39.6950  0.00  0.00     0.000 HD
ATOM     41   C  BGC C   3      58.227  12.721  39.1860  0.00  0.00     0.000 C
ATOM     42   O  BGC C   3      58.306  13.047  40.6200  0.00  0.00     0.000 O
ATOM     44  HD  BGC C   3      58.113  13.891  40.5920  0.00  0.00     0.000 HD
BRANCH 31 44
ATOM     44  O4  BGC C   4      59.122   8.221  39.8060  0.00  0.00     0.000 O
BRANCH 44 48
ATOM     45  C1  BGC C   4      62.553   6.083  39.1600  0.00  0.00     0.000 C
ATOM     46  C2  BGC C   4      62.832   7.620  39.1560  0.00  0.00     0.000 C
ATOM     47  C3  BGC C   4      61.517   8.182  39.7120  0.00  0.00     0.000 C
ATOM     48  C4  BGC C   4      60.213   7.741  39.0770  0.00  0.00     0.000 C
ATOM     49  C5  BGC C   4      60.178   6.209  39.1920  0.00  0.00     0.000 C
ATOM     50  O5  BGC C   4      61.301   5.640  38.6150  0.00  0.00     0.000 O
ATOM     51   O  BGC C   4      63.985   8.264  39.9470  0.00  0.00     0.000 O
ATOM     53  HD  BGC C   4      63.933   9.129  39.9350  0.00  0.00     0.000 HD
ATOM     53   O  BGC C   4      61.661   9.622  39.3020  0.00  0.00     0.000 O
ATOM     55  HD  BGC C   4      61.609  10.487  39.2900  0.00  0.00     0.000 HD
ATOM     55   C  BGC C   4      59.003   5.630  38.4470  0.00  0.00     0.000 C
ATOM     56   O  BGC C   4      58.918   5.974  37.0600  0.00  0.00     0.000 O
ATOM     58  HD  BGC C   4      58.866   6.839  37.0480  0.00  0.00     0.000 HD
BRANCH 45 58
ATOM     58  O4  BGC C   5      63.531   5.368  38.4640  0.00  0.00     0.000 O
BRANCH 58 62
ATOM     59  C1  BGC C   5      66.059   5.215  40.1780  0.00  0.00     0.000 C
ATOM     60  C2  BGC C   5      66.340   4.473  38.9680  0.00  0.00     0.000 C
ATOM     61  C3  BGC C   5      65.208   3.541  38.5440  0.00  0.00     0.000 C
ATOM     62  C4  BGC C   5      63.890   4.098  39.0620  0.00  0.00     0.000 C
ATOM     63  C5  BGC C   5      64.113   4.515  40.4980  0.00  0.00     0.000 C
ATOM     64  O5  BGC C   5      65.455   4.642  40.9640  0.00  0.00     0.000 O
ATOM     65   O  BGC C   5      63.836   2.302  41.4250  0.00  0.00     0.000 O
ATOM     67  HD  BGC C   5      63.461   3.056  41.2250  0.00  0.00     0.000 HD
ATOM     67   O  BGC C   5      63.836   2.302  41.4250  0.00  0.00     0.000 O
ATOM     69  HD  BGC C   5      63.461   3.056  41.2250  0.00  0.00     0.000 HD
ENDBRANCH 58 62
ENDBRANCH 45 58
ENDBRANCH 44 48
ENDBRANCH 31 44
ENDBRANCH 30 34
ENDBRANCH 17 30
ENDBRANCH 16 20
ENDBRANCH 1 16
TORSDOF 8
ENDMDL
MODEL 91
REMARK VINA RESULT:      -0.1     42.462     48.293
ROOT
ATOM      1  C1  BGC C   1      22.699  16.877  52.4950  0.00  0.00     0.000 C
ATOM      2  C2  BGC C   1      23.231  15.451  52.6380  0.00  0.00     0.000 C
ATOM      3  C3  BGC C   1      22.324  14.478  51.8940  0.00  0.00     0.000 C
ATOM      4  C4  BGC C   1      20.861  14.660  52.2640  0.00  0.00     0.000 C
ATOM      5  C5  BGC C   1      20.489  16.140  52.2360  0.00  0.00     0.000 C
ATOM      6  O5  BGC C   1      21.390  16.958  52.9120  0.00  0.00     0.000 O
ATOM      7   O  BGC C   1      24.527  15.427  52.0890  0.00  0.00     0.000 O
ATOM      9  HD  BGC C   1      24.189  14.846  52.6350  0.00  0.00     0.000 HD
ATOM      9   O  BGC C   1      22.784  13.147  52.1630  0.00  0.00     0.000 O
ATOM     11  HD  BGC C   1      22.446  12.566  52.7080  0.00  0.00     0.000 HD
ATOM     11   O  BGC C   1      20.101  13.923  51.3110  0.00  0.00     0.000 O
ATOM     13  HD  BGC C   1      19.763  13.342  51.8570  0.00  0.00     0.000 HD
ATOM     13   O  BGC C   1      19.141  16.018  54.3110  0.00  0.00     0.000 O
ATOM     15  HD  BGC C   1      18.803  15.437  54.8570  0.00  0.00     0.000 HD
ATOM     15   C  BGC C   1      19.101  16.297  52.8840  0.00  0.00     0.000 C
ENDROOT
BRANCH 1 16
ATOM     16  O4  BGC C   2      23.451  17.724  53.3320  0.00  0.00     0.000 O
BRANCH 16 20
ATOM     17  C1  BGC C   2      24.723  21.604  53.3580  0.00  0.00     0.000 C
ATOM     18  C2  BGC C   2      23.300  21.368  53.8400  0.00  0.00     0.000 C
ATOM     19  C3  BGC C   2      23.067  19.892  54.1310  0.00  0.00     0.000 C
ATOM     20  C4  BGC C   2      23.482  19.079  52.9510  0.00  0.00     0.000 C
ATOM     21  C5  BGC C   2      24.893  19.447  52.5010  0.00  0.00     0.000 C
ATOM     22  O5  BGC C   2      24.991  20.814  52.2360  0.00  0.00     0.000 O
ATOM     23   O  BGC C   2      23.074  22.153  55.0210  0.00  0.00     0.000 O
ATOM     25  HD  BGC C   2      22.616  21.698  55.5970  0.00  0.00     0.000 HD
ATOM     25   O  BGC C   2      21.686  19.681  54.3990  0.00  0.00     0.000 O
ATOM     27  HD  BGC C   2      21.228  19.226  54.9760  0.00  0.00     0.000 HD
ATOM     27   C  BGC C   2      25.402  18.668  51.2710  0.00  0.00     0.000 C
ATOM     28   O  BGC C   2      24.489  18.782  50.1680  0.00  0.00     0.000 O
ATOM     30  HD  BGC C   2      24.030  18.327  50.7440  0.00  0.00     0.000 HD
BRANCH 17 30
ATOM     30  O4  BGC C   3      24.873  22.961  52.9990  0.00  0.00     0.000 O
BRANCH 30 34
ATOM     31  C1  BGC C   3      27.588  25.954  53.1150  0.00  0.00     0.000 C
ATOM     32  C2  BGC C   3      27.708  24.985  51.9150  0.00  0.00     0.000 C
ATOM     33  C3  BGC C   3      26.483  24.150  51.7710  0.00  0.00     0.000 C
ATOM     34  C4  BGC C   3      26.180  23.502  53.1240  0.00  0.00     0.000 C
ATOM     35  C5  BGC C   3      26.195  24.498  54.3120  0.00  0.00     0.000 C
ATOM     36  O5  BGC C   3      27.390  25.237  54.3090  0.00  0.00     0.000 O
ATOM     37   O  BGC C   3      27.975  25.529  50.6360  0.00  0.00     0.000 O
ATOM     39  HD  BGC C   3      27.544  24.929  51.0870  0.00  0.00     0.000 HD
ATOM     39   O  BGC C   3      26.679  23.141  50.7370  0.00  0.00     0.000 O
ATOM     41  HD  BGC C   3      26.248  22.540  51.1880  0.00  0.00     0.000 HD
ATOM     41   C  BGC C   3      26.073  23.852  55.7110  0.00  0.00     0.000 C
ATOM     42   O  BGC C   3      27.191  22.973  56.0950  0.00  0.00     0.000 O
ATOM     44  HD  BGC C   3      26.760  22.372  56.5460  0.00  0.00     0.000 HD
BRANCH 31 44
ATOM     44  O4  BGC C   4      28.731  26.731  53.2440  0.00  0.00     0.000 O
BRANCH 44 48
ATOM     45  C1  BGC C   4      30.148  30.465  54.1460  0.00  0.00     0.000 C
ATOM     46  C2  BGC C   4      29.604  29.740  55.4180  0.00  0.00     0.000 C
ATOM     47  C3  BGC C   4      29.431  28.301  54.9150  0.00  0.00     0.000 C
ATOM     48  C4  BGC C   4      28.652  28.070  53.6350  0.00  0.00     0.000 C
ATOM     49  C5  BGC C   4      29.366  28.886  52.5460  0.00  0.00     0.000 C
ATOM     50  O5  BGC C   4      29.464  30.220  52.9070  0.00  0.00     0.000 O
ATOM     51   O  BGC C   4      30.384  29.678  56.7440  0.00  0.00     0.000 O
ATOM     53  HD  BGC C   4      30.004  29.145  57.3110  0.00  0.00     0.000 HD
ATOM     53   O  BGC C   4      28.536  27.758  55.9960  0.00  0.00     0.000 O
ATOM     55  HD  BGC C   4      28.156  27.225  56.5620  0.00  0.00     0.000 HD
ATOM     55   C  BGC C   4      28.592  28.873  51.2530  0.00  0.00     0.000 C
ATOM     56   O  BGC C   4      27.238  29.331  51.3370  0.00  0.00     0.000 O
ATOM     58  HD  BGC C   4      26.857  28.799  51.9040  0.00  0.00     0.000 HD
BRANCH 45 58
ATOM     58  O4  BGC C   5      30.157  31.854  54.2930  0.00  0.00     0.000 O
BRANCH 58 62
ATOM     59  C1  BGC C   5      32.492  32.645  56.1040  0.00  0.00     0.000 C
ATOM     60  C2  BGC C   5      31.850  33.878  55.7010  0.00  0.00     0.000 C
ATOM     61  C3  BGC C   5      31.508  33.933  54.2150  0.00  0.00     0.000 C
ATOM     62  C4  BGC C   5      31.303  32.515  53.7020  0.00  0.00     0.000 C
ATOM     63  C5  BGC C   5      32.431  31.672  54.2520  0.00  0.00     0.000 C
ATOM     64  O5  BGC C   5      33.206  32.198  55.3280  0.00  0.00     0.000 O
ATOM     65   O  BGC C   5      34.041  32.319  52.5710  0.00  0.00     0.000 O
ATOM     67  HD  BGC C   5      33.442  31.745  52.8180  0.00  0.00     0.000 HD
ATOM     67   O  BGC C   5      34.041  32.319  52.5710  0.00  0.00     0.000 O
ATOM     69  HD  BGC C   5      33.442  31.745  52.8180  0.00  0.00     0.000 HD
ENDBRANCH 58 62
ENDBRANCH 45 58
ENDBRANCH 44 48
ENDBRANCH 31 44
ENDBRANCH 30 34
ENDBRANCH 17 30
ENDBRANCH 16 20
ENDBRANCH 1 16
TORSDOF 8
ENDMDL
MODEL 92
REMARK VINA RESULT:      -0.1     70.570     74.322
ROOT
ATOM      1  C1  BGC C   1      66.992  42.702  52.7230  0.00  0.00     0.000 C
ATOM      2  C2  BGC C   1      66.737  43.765  51.6550  0.00  0.00     0.000 C
ATOM      3  C3  BGC C   1      67.848  43.734  50.6120  0.00  0.00     0.000 C
ATOM      4  C4  BGC C   1      69.230  43.773  51.2430  0.00  0.00     0.000 C
ATOM      5  C5  BGC C   1      69.312  42.778  52.3960  0.00  0.00     0.000 C
ATOM      6  O5  BGC C   1      68.241  42.854  53.2820  0.00  0.00     0.000 O
ATOM      7   O  BGC C   1      65.497  43.474  51.0570  0.00  0.00     0.000 O
ATOM      9  HD  BGC C   1      65.914  44.233  51.0320  0.00  0.00     0.000 HD
ATOM      9   O  BGC C   1      67.640  44.828  49.7080  0.00  0.00     0.000 O
ATOM     11  HD  BGC C   1      68.057  45.586  49.6830  0.00  0.00     0.000 HD
ATOM     11   O  BGC C   1      70.160  43.445  50.2160  0.00  0.00     0.000 O
ATOM     13  HD  BGC C   1      70.578  44.203  50.1910  0.00  0.00     0.000 HD
ATOM     13   O  BGC C   1      70.561  44.326  53.8730  0.00  0.00     0.000 O
ATOM     15  HD  BGC C   1      70.978  45.084  53.8480  0.00  0.00     0.000 HD
ATOM     15   C  BGC C   1      70.612  43.052  53.1740  0.00  0.00     0.000 C
ENDROOT
BRANCH 1 16
ATOM     16  O4  BGC C   2      66.054  42.870  53.7590  0.00  0.00     0.000 O
BRANCH 16 20
ATOM     17  C1  BGC C   2      64.061  40.534  56.4510  0.00  0.00     0.000 C
ATOM     18  C2  BGC C   2      65.479  40.928  56.8340  0.00  0.00     0.000 C
ATOM     19  C3  BGC C   2      65.977  42.069  55.9590  0.00  0.00     0.000 C
ATOM     20  C4  BGC C   2      65.781  41.719  54.5220  0.00  0.00     0.000 C
ATOM     21  C5  BGC C   2      64.348  41.265  54.2590  0.00  0.00     0.000 C
ATOM     22  O5  BGC C   2      64.002  40.200  55.0930  0.00  0.00     0.000 O
ATOM     23   O  BGC C   2      65.495  41.313  58.2170  0.00  0.00     0.000 O
ATOM     25  HD  BGC C   2      66.005  42.004  58.3270  0.00  0.00     0.000 HD
ATOM     25   O  BGC C   2      67.359  42.287  56.2170  0.00  0.00     0.000 O
ATOM     27  HD  BGC C   2      67.869  42.979  56.3270  0.00  0.00     0.000 HD
ATOM     27   C  BGC C   2      64.055  40.862  52.7990  0.00  0.00     0.000 C
ATOM     28   O  BGC C   2      64.980  39.864  52.3390  0.00  0.00     0.000 O
ATOM     30  HD  BGC C   2      65.490  40.555  52.4490  0.00  0.00     0.000 HD
BRANCH 17 30
ATOM     30  O4  BGC C   3      63.670  39.408  57.2080  0.00  0.00     0.000 O
BRANCH 30 34
ATOM     31  C1  BGC C   3      60.430  37.832  59.0390  0.00  0.00     0.000 C
ATOM     32  C2  BGC C   3      60.553  37.539  57.5250  0.00  0.00     0.000 C
ATOM     33  C3  BGC C   3      61.921  37.853  57.0250  0.00  0.00     0.000 C
ATOM     34  C4  BGC C   3      62.280  39.275  57.4620  0.00  0.00     0.000 C
ATOM     35  C5  BGC C   3      62.019  39.553  58.9640  0.00  0.00     0.000 C
ATOM     36  O5  BGC C   3      60.705  39.186  59.3030  0.00  0.00     0.000 O
ATOM     37   O  BGC C   3      60.247  36.236  57.0650  0.00  0.00     0.000 O
ATOM     39  HD  BGC C   3      60.763  36.926  56.9810  0.00  0.00     0.000 HD
ATOM     39   O  BGC C   3      61.970  37.719  55.5740  0.00  0.00     0.000 O
ATOM     41  HD  BGC C   3      62.487  38.409  55.4900  0.00  0.00     0.000 HD
ATOM     41   C  BGC C   3      62.197  41.026  59.4000  0.00  0.00     0.000 C
ATOM     42   O  BGC C   3      61.252  41.978  58.7910  0.00  0.00     0.000 O
ATOM     44  HD  BGC C   3      61.769  42.668  58.7070  0.00  0.00     0.000 HD
BRANCH 31 44
ATOM     44  O4  BGC C   4      59.154  37.537  59.5010  0.00  0.00     0.000 O
BRANCH 44 48
ATOM     45  C1  BGC C   4      57.006  35.977  62.6180  0.00  0.00     0.000 C
ATOM     46  C2  BGC C   4      57.619  37.366  62.9880  0.00  0.00     0.000 C
ATOM     47  C3  BGC C   4      58.089  37.880  61.6210  0.00  0.00     0.000 C
ATOM     48  C4  BGC C   4      58.956  36.978  60.7650  0.00  0.00     0.000 C
ATOM     49  C5  BGC C   4      58.150  35.687  60.5510  0.00  0.00     0.000 C
ATOM     50  O5  BGC C   4      57.781  35.124  61.7620  0.00  0.00     0.000 O
ATOM     51   O  BGC C   4      56.805  38.490  63.6530  0.00  0.00     0.000 O
ATOM     53  HD  BGC C   4      57.254  39.230  63.6850  0.00  0.00     0.000 HD
ATOM     53   O  BGC C   4      59.020  38.975  62.0650  0.00  0.00     0.000 O
ATOM     55  HD  BGC C   4      59.468  39.715  62.0970  0.00  0.00     0.000 HD
ATOM     55   C  BGC C   4      58.971  34.636  59.8500  0.00  0.00     0.000 C
ATOM     56   O  BGC C   4      60.207  34.290  60.4860  0.00  0.00     0.000 O
ATOM     58  HD  BGC C   4      60.656  35.030  60.5180  0.00  0.00     0.000 HD
BRANCH 45 58
ATOM     58  O4  BGC C   5      56.724  35.208  63.7480  0.00  0.00     0.000 O
BRANCH 58 62
ATOM     59  C1  BGC C   5      54.200  36.298  65.0880  0.00  0.00     0.000 C
ATOM     60  C2  BGC C   5      54.611  35.148  65.8640  0.00  0.00     0.000 C
ATOM     61  C3  BGC C   5      55.005  33.943  65.0140  0.00  0.00     0.000 C
ATOM     62  C4  BGC C   5      55.501  34.435  63.6620  0.00  0.00     0.000 C
ATOM     63  C5  BGC C   5      54.532  35.492  63.1850  0.00  0.00     0.000 C
ATOM     64  O5  BGC C   5      53.622  36.050  64.1310  0.00  0.00     0.000 O
ATOM     65   O  BGC C   5      52.908  33.934  62.3070  0.00  0.00     0.000 O
ATOM     67  HD  BGC C   5      53.594  34.436  62.1420  0.00  0.00     0.000 HD
ATOM     67   O  BGC C   5      52.908  33.934  62.3070  0.00  0.00     0.000 O
ATOM     69  HD  BGC C   5      53.594  34.436  62.1420  0.00  0.00     0.000 HD
ENDBRANCH 58 62
ENDBRANCH 45 58
ENDBRANCH 44 48
ENDBRANCH 31 44
ENDBRANCH 30 34
ENDBRANCH 17 30
ENDBRANCH 16 20
ENDBRANCH 1 16
TORSDOF 8
ENDMDL
MODEL 93
REMARK VINA RESULT:      -0.1     63.246     68.973
ROOT
ATOM      1  C1  BGC C   1      64.113  60.570  10.3720  0.00  0.00     0.000 C
ATOM      2  C2  BGC C   1      64.538  59.603   9.2670  0.00  0.00     0.000 C
ATOM      3  C3  BGC C   1      65.940  59.074   9.5470  0.00  0.00     0.000 C
ATOM      4  C4  BGC C   1      66.928  60.191   9.8410  0.00  0.00     0.000 C
ATOM      5  C5  BGC C   1      66.328  61.177  10.8400  0.00  0.00     0.000 C
ATOM      6  O5  BGC C   1      65.034  61.581  10.5230  0.00  0.00     0.000 O
ATOM      7   O  BGC C   1      63.611  58.544   9.2520  0.00  0.00     0.000 O
ATOM      9  HD  BGC C   1      64.153  58.762   8.6130  0.00  0.00     0.000 HD
ATOM      9   O  BGC C   1      66.348  58.279   8.4260  0.00  0.00     0.000 O
ATOM     11  HD  BGC C   1      66.890  58.496   7.7860  0.00  0.00     0.000 HD
ATOM     11   O  BGC C   1      68.099  59.577  10.3680  0.00  0.00     0.000 O
ATOM     13  HD  BGC C   1      68.641  59.795   9.7290  0.00  0.00     0.000 HD
ATOM     13   O  BGC C   1      67.176  63.174   9.6440  0.00  0.00     0.000 O
ATOM     15  HD  BGC C   1      67.719  63.391   9.0050  0.00  0.00     0.000 HD
ATOM     15   C  BGC C   1      67.233  62.422  10.8880  0.00  0.00     0.000 C
ENDROOT
BRANCH 1 16
ATOM     16  O4  BGC C   2      62.897  61.173   9.9980  0.00  0.00     0.000 O
BRANCH 16 20
ATOM     17  C1  BGC C   2      59.548  62.625  11.8290  0.00  0.00     0.000 C
ATOM     18  C2  BGC C   2      60.741  63.566  11.7830  0.00  0.00     0.000 C
ATOM     19  C3  BGC C   2      61.778  63.075  10.7820  0.00  0.00     0.000 C
ATOM     20  C4  BGC C   2      62.104  61.647  11.0610  0.00  0.00     0.000 C
ATOM     21  C5  BGC C   2      60.836  60.804  11.1630  0.00  0.00     0.000 C
ATOM     22  O5  BGC C   2      59.969  61.324  12.1250  0.00  0.00     0.000 O
ATOM     23   O  BGC C   2      60.283  64.879  11.4280  0.00  0.00     0.000 O
ATOM     25  HD  BGC C   2      60.839  65.249  10.8770  0.00  0.00     0.000 HD
ATOM     25   O  BGC C   2      62.952  63.870  10.8980  0.00  0.00     0.000 O
ATOM     27  HD  BGC C   2      63.508  64.240  10.3470  0.00  0.00     0.000 HD
ATOM     27   C  BGC C   2      61.076  59.311  11.4710  0.00  0.00     0.000 C
ATOM     28   O  BGC C   2      61.874  59.145  12.6530  0.00  0.00     0.000 O
ATOM     30  HD  BGC C   2      62.430  59.515  12.1020  0.00  0.00     0.000 HD
BRANCH 17 30
ATOM     30  O4  BGC C   3      58.658  63.050  12.8390  0.00  0.00     0.000 O
BRANCH 30 34
ATOM     31  C1  BGC C   3      54.703  63.309  13.6280  0.00  0.00     0.000 C
ATOM     32  C2  BGC C   3      55.358  61.940  13.9270  0.00  0.00     0.000 C
ATOM     33  C3  BGC C   3      56.843  62.045  13.9390  0.00  0.00     0.000 C
ATOM     34  C4  BGC C   3      57.289  62.730  12.6450  0.00  0.00     0.000 C
ATOM     35  C5  BGC C   3      56.513  64.034  12.3280  0.00  0.00     0.000 C
ATOM     36  O5  BGC C   3      55.128  63.797  12.3800  0.00  0.00     0.000 O
ATOM     37   O  BGC C   3      54.994  61.266  15.1170  0.00  0.00     0.000 O
ATOM     39  HD  BGC C   3      55.634  61.460  14.5670  0.00  0.00     0.000 HD
ATOM     39   O  BGC C   3      57.441  60.721  14.0660  0.00  0.00     0.000 O
ATOM     41  HD  BGC C   3      58.081  60.915  13.5160  0.00  0.00     0.000 HD
ATOM     41   C  BGC C   3      56.807  64.653  10.9430  0.00  0.00     0.000 C
ATOM     42   O  BGC C   3      56.411  63.827   9.7900  0.00  0.00     0.000 O
ATOM     44  HD  BGC C   3      57.051  64.022   9.2390  0.00  0.00     0.000 HD
BRANCH 31 44
ATOM     44  O4  BGC C   4      53.318  63.207  13.6200  0.00  0.00     0.000 O
BRANCH 44 48
ATOM     45  C1  BGC C   4      49.824  65.069  14.6630  0.00  0.00     0.000 C
ATOM     46  C2  BGC C   4      50.516  65.789  13.4610  0.00  0.00     0.000 C
ATOM     47  C3  BGC C   4      51.591  64.772  13.0580  0.00  0.00     0.000 C
ATOM     48  C4  BGC C   4      52.516  64.232  14.1300  0.00  0.00     0.000 C
ATOM     49  C5  BGC C   4      51.611  63.590  15.1940  0.00  0.00     0.000 C
ATOM     50  O5  BGC C   4      50.678  64.498  15.6660  0.00  0.00     0.000 O
ATOM     51   O  BGC C   4      49.761  66.199  12.1830  0.00  0.00     0.000 O
ATOM     53  HD  BGC C   4      50.304  66.478  11.5700  0.00  0.00     0.000 HD
ATOM     53   O  BGC C   4      52.474  65.653  12.2170  0.00  0.00     0.000 O
ATOM     55  HD  BGC C   4      53.017  65.932  11.6030  0.00  0.00     0.000 HD
ATOM     55   C  BGC C   4      52.402  63.158  16.4010  0.00  0.00     0.000 C
ATOM     56   O  BGC C   4      53.176  64.183  17.0340  0.00  0.00     0.000 O
ATOM     58  HD  BGC C   4      53.719  64.463  16.4200  0.00  0.00     0.000 HD
BRANCH 45 58
ATOM     58  O4  BGC C   5      48.956  65.917  15.3560  0.00  0.00     0.000 O
BRANCH 58 62
ATOM     59  C1  BGC C   5      46.400  66.277  13.7170  0.00  0.00     0.000 C
ATOM     60  C2  BGC C   5      46.212  67.029  14.9390  0.00  0.00     0.000 C
ATOM     61  C3  BGC C   5      46.649  66.279  16.1940  0.00  0.00     0.000 C
ATOM     62  C4  BGC C   5      47.738  65.284  15.8190  0.00  0.00     0.000 C
ATOM     63  C5  BGC C   5      47.288  64.580  14.5590  0.00  0.00     0.000 C
ATOM     64  O5  BGC C   5      46.216  65.151  13.8120  0.00  0.00     0.000 O
ATOM     65   O  BGC C   5      45.863  62.986  15.6830  0.00  0.00     0.000 O
ATOM     67  HD  BGC C   5      46.647  63.153  15.3550  0.00  0.00     0.000 HD
ATOM     67   O  BGC C   5      45.863  62.986  15.6830  0.00  0.00     0.000 O
ATOM     69  HD  BGC C   5      46.647  63.153  15.3550  0.00  0.00     0.000 HD
ENDBRANCH 58 62
ENDBRANCH 45 58
ENDBRANCH 44 48
ENDBRANCH 31 44
ENDBRANCH 30 34
ENDBRANCH 17 30
ENDBRANCH 16 20
ENDBRANCH 1 16
TORSDOF 8
ENDMDL
MODEL 94
REMARK VINA RESULT:      -0.1     38.966     43.734
ROOT
ATOM      1  C1  BGC C   1      31.209  51.096  29.4230  0.00  0.00     0.000 C
ATOM      2  C2  BGC C   1      30.462  52.351  28.9720  0.00  0.00     0.000 C
ATOM      3  C3  BGC C   1      30.339  53.330  30.1330  0.00  0.00     0.000 C
ATOM      4  C4  BGC C   1      29.792  52.670  31.3880  0.00  0.00     0.000 C
ATOM      5  C5  BGC C   1      30.511  51.349  31.6460  0.00  0.00     0.000 C
ATOM      6  O5  BGC C   1      30.606  50.532  30.5230  0.00  0.00     0.000 O
ATOM      7   O  BGC C   1      31.199  52.928  27.9210  0.00  0.00     0.000 O
ATOM      9  HD  BGC C   1      30.367  53.079  28.1080  0.00  0.00     0.000 HD
ATOM      9   O  BGC C   1      29.522  54.428  29.7050  0.00  0.00     0.000 O
ATOM     11  HD  BGC C   1      28.690  54.579  29.8920  0.00  0.00     0.000 HD
ATOM     11   O  BGC C   1      29.999  53.584  32.4590  0.00  0.00     0.000 O
ATOM     13  HD  BGC C   1      29.167  53.735  32.6460  0.00  0.00     0.000 HD
ATOM     13   O  BGC C   1      28.440  50.142  32.2720  0.00  0.00     0.000 O
ATOM     15  HD  BGC C   1      27.608  50.293  32.4590  0.00  0.00     0.000 HD
ATOM     15   C  BGC C   1      29.742  50.590  32.7430  0.00  0.00     0.000 C
ENDROOT
BRANCH 1 16
ATOM     16  O4  BGC C   2      31.152  50.143  28.3880  0.00  0.00     0.000 O
BRANCH 16 20
ATOM     17  C1  BGC C   2      33.486  47.136  26.9080  0.00  0.00     0.000 C
ATOM     18  C2  BGC C   2      32.634  46.783  28.1170  0.00  0.00     0.000 C
ATOM     19  C3  BGC C   2      31.561  47.837  28.3480  0.00  0.00     0.000 C
ATOM     20  C4  BGC C   2      32.188  49.190  28.3850  0.00  0.00     0.000 C
ATOM     21  C5  BGC C   2      33.081  49.414  27.1680  0.00  0.00     0.000 C
ATOM     22  O5  BGC C   2      34.044  48.409  27.0650  0.00  0.00     0.000 O
ATOM     23   O  BGC C   2      32.036  45.496  27.9030  0.00  0.00     0.000 O
ATOM     25  HD  BGC C   2      31.217  45.498  28.1850  0.00  0.00     0.000 HD
ATOM     25   O  BGC C   2      30.907  47.575  29.5840  0.00  0.00     0.000 O
ATOM     27  HD  BGC C   2      30.088  47.577  29.8660  0.00  0.00     0.000 HD
ATOM     27   C  BGC C   2      33.790  50.783  27.1300  0.00  0.00     0.000 C
ATOM     28   O  BGC C   2      34.535  51.017  28.3360  0.00  0.00     0.000 O
ATOM     30  HD  BGC C   2      33.716  51.019  28.6180  0.00  0.00     0.000 HD
BRANCH 17 30
ATOM     30  O4  BGC C   3      34.533  46.198  26.7860  0.00  0.00     0.000 O
BRANCH 30 34
ATOM     31  C1  BGC C   3      36.661  44.221  23.9750  0.00  0.00     0.000 C
ATOM     32  C2  BGC C   3      37.154  45.649  24.3090  0.00  0.00     0.000 C
ATOM     33  C3  BGC C   3      36.542  46.149  25.5700  0.00  0.00     0.000 C
ATOM     34  C4  BGC C   3      35.024  45.973  25.4730  0.00  0.00     0.000 C
ATOM     35  C5  BGC C   3      34.588  44.559  25.0130  0.00  0.00     0.000 C
ATOM     36  O5  BGC C   3      35.262  44.204  23.8320  0.00  0.00     0.000 O
ATOM     37   O  BGC C   3      38.548  45.868  24.4240  0.00  0.00     0.000 O
ATOM     39  HD  BGC C   3      37.761  46.061  24.7300  0.00  0.00     0.000 HD
ATOM     39   O  BGC C   3      36.896  47.548  25.7830  0.00  0.00     0.000 O
ATOM     41  HD  BGC C   3      36.109  47.740  26.0890  0.00  0.00     0.000 HD
ATOM     41   C  BGC C   3      33.076  44.399  24.7280  0.00  0.00     0.000 C
ATOM     42   O  BGC C   3      32.560  45.207  23.6110  0.00  0.00     0.000 O
ATOM     44  HD  BGC C   3      31.773  45.400  23.9170  0.00  0.00     0.000 HD
BRANCH 31 44
ATOM     44  O4  BGC C   4      37.236  43.758  22.7980  0.00  0.00     0.000 O
BRANCH 44 48
ATOM     45  C1  BGC C   4      38.812  40.483  20.9140  0.00  0.00     0.000 C
ATOM     46  C2  BGC C   4      37.263  40.357  21.0740  0.00  0.00     0.000 C
ATOM     47  C3  BGC C   4      36.870  41.778  21.4980  0.00  0.00     0.000 C
ATOM     48  C4  BGC C   4      37.608  42.419  22.6570  0.00  0.00     0.000 C
ATOM     49  C5  BGC C   4      39.096  42.417  22.2700  0.00  0.00     0.000 C
ATOM     50  O5  BGC C   4      39.531  41.137  21.9700  0.00  0.00     0.000 O
ATOM     51   O  BGC C   4      36.332  39.942  19.9200  0.00  0.00     0.000 O
ATOM     53  HD  BGC C   4      35.499  40.032  20.1370  0.00  0.00     0.000 HD
ATOM     53   O  BGC C   4      35.492  41.512  22.0380  0.00  0.00     0.000 O
ATOM     55  HD  BGC C   4      34.658  41.602  22.2550  0.00  0.00     0.000 HD
ATOM     55   C  BGC C   4      39.961  42.881  23.4130  0.00  0.00     0.000 C
ATOM     56   O  BGC C   4      39.817  42.149  24.6360  0.00  0.00     0.000 O
ATOM     58  HD  BGC C   4      38.983  42.239  24.8520  0.00  0.00     0.000 HD
BRANCH 45 58
ATOM     58  O4  BGC C   5      39.429  39.239  20.7620  0.00  0.00     0.000 O
BRANCH 58 62
ATOM     59  C1  BGC C   5      38.921  38.217  17.9250  0.00  0.00     0.000 C
ATOM     60  C2  BGC C   5      39.752  37.226  18.5740  0.00  0.00     0.000 C
ATOM     61  C3  BGC C   5      40.912  37.823  19.3660  0.00  0.00     0.000 C
ATOM     62  C4  BGC C   5      40.530  39.224  19.8200  0.00  0.00     0.000 C
ATOM     63  C5  BGC C   5      39.901  39.923  18.6370  0.00  0.00     0.000 C
ATOM     64  O5  BGC C   5      39.484  39.131  17.5270  0.00  0.00     0.000 O
ATOM     65   O  BGC C   5      41.991  40.553  17.6040  0.00  0.00     0.000 O
ATOM     67  HD  BGC C   5      41.345  40.784  18.1310  0.00  0.00     0.000 HD
ATOM     67   O  BGC C   5      41.991  40.553  17.6040  0.00  0.00     0.000 O
ATOM     69  HD  BGC C   5      41.345  40.784  18.1310  0.00  0.00     0.000 HD
ENDBRANCH 58 62
ENDBRANCH 45 58
ENDBRANCH 44 48
ENDBRANCH 31 44
ENDBRANCH 30 34
ENDBRANCH 17 30
ENDBRANCH 16 20
ENDBRANCH 1 16
TORSDOF 8
ENDMDL
MODEL 95
REMARK VINA RESULT:      -0.1     39.303     46.173
ROOT
ATOM      1  C1  BGC C   1      24.439  35.163  54.5880  0.00  0.00     0.000 C
ATOM      2  C2  BGC C   1      23.162  35.896  54.9940  0.00  0.00     0.000 C
ATOM      3  C3  BGC C   1      23.199  36.224  56.4820  0.00  0.00     0.000 C
ATOM      4  C4  BGC C   1      23.543  35.011  57.3300  0.00  0.00     0.000 C
ATOM      5  C5  BGC C   1      24.739  34.273  56.7360  0.00  0.00     0.000 C
ATOM      6  O5  BGC C   1      24.635  34.045  55.3660  0.00  0.00     0.000 O
ATOM      7   O  BGC C   1      23.094  37.079  54.2340  0.00  0.00     0.000 O
ATOM      9  HD  BGC C   1      22.437  36.696  54.6480  0.00  0.00     0.000 HD
ATOM      9   O  BGC C   1      21.932  36.790  56.8440  0.00  0.00     0.000 O
ATOM     11  HD  BGC C   1      21.275  36.407  57.2580  0.00  0.00     0.000 HD
ATOM     11   O  BGC C   1      23.836  35.492  58.6370  0.00  0.00     0.000 O
ATOM     13  HD  BGC C   1      23.179  35.108  59.0510  0.00  0.00     0.000 HD
ATOM     13   O  BGC C   1      23.767  32.027  57.1200  0.00  0.00     0.000 O
ATOM     15  HD  BGC C   1      23.110  31.644  57.5340  0.00  0.00     0.000 HD
ATOM     15   C  BGC C   1      24.869  32.916  57.4510  0.00  0.00     0.000 C
ENDROOT
BRANCH 1 16
ATOM     16  O4  BGC C   2      24.301  34.719  53.2580  0.00  0.00     0.000 O
BRANCH 16 20
ATOM     17  C1  BGC C   2      26.696  34.076  50.0140  0.00  0.00     0.000 C
ATOM     18  C2  BGC C   2      26.656  32.957  51.0430  0.00  0.00     0.000 C
ATOM     19  C3  BGC C   2      25.482  33.140  51.9940  0.00  0.00     0.000 C
ATOM     20  C4  BGC C   2      25.505  34.522  52.5570  0.00  0.00     0.000 C
ATOM     21  C5  BGC C   2      25.624  35.563  51.4480  0.00  0.00     0.000 C
ATOM     22  O5  BGC C   2      26.745  35.320  50.6530  0.00  0.00     0.000 O
ATOM     23   O  BGC C   2      26.555  31.700  50.3570  0.00  0.00     0.000 O
ATOM     25  HD  BGC C   2      26.006  31.177  50.7750  0.00  0.00     0.000 HD
ATOM     25   O  BGC C   2      25.581  32.189  53.0480  0.00  0.00     0.000 O
ATOM     27  HD  BGC C   2      25.032  31.666  53.4660  0.00  0.00     0.000 HD
ATOM     27   C  BGC C   2      25.675  37.025  51.9380  0.00  0.00     0.000 C
ATOM     28   O  BGC C   2      26.721  37.214  52.9040  0.00  0.00     0.000 O
ATOM     30  HD  BGC C   2      26.172  36.691  53.3220  0.00  0.00     0.000 HD
BRANCH 17 30
ATOM     30  O4  BGC C   3      27.852  33.935  49.2170  0.00  0.00     0.000 O
BRANCH 30 34
ATOM     31  C1  BGC C   3      29.115  34.421  45.4080  0.00  0.00     0.000 C
ATOM     32  C2  BGC C   3      29.128  35.694  46.2870  0.00  0.00     0.000 C
ATOM     33  C3  BGC C   3      28.987  35.354  47.7300  0.00  0.00     0.000 C
ATOM     34  C4  BGC C   3      27.769  34.442  47.8940  0.00  0.00     0.000 C
ATOM     35  C5  BGC C   3      27.742  33.250  46.9040  0.00  0.00     0.000 C
ATOM     36  O5  BGC C   3      27.914  33.711  45.5870  0.00  0.00     0.000 O
ATOM     37   O  BGC C   3      30.237  36.568  46.1870  0.00  0.00     0.000 O
ATOM     39  HD  BGC C   3      29.654  36.203  46.7120  0.00  0.00     0.000 HD
ATOM     39   O  BGC C   3      28.845  36.570  48.5220  0.00  0.00     0.000 O
ATOM     41  HD  BGC C   3      28.261  36.205  49.0480  0.00  0.00     0.000 HD
ATOM     41   C  BGC C   3      26.441  32.415  46.9170  0.00  0.00     0.000 C
ATOM     42   O  BGC C   3      25.229  33.135  46.4910  0.00  0.00     0.000 O
ATOM     44  HD  BGC C   3      24.645  32.770  47.0160  0.00  0.00     0.000 HD
BRANCH 31 44
ATOM     44  O4  BGC C   4      29.249  34.742  44.0640  0.00  0.00     0.000 O
BRANCH 44 48
ATOM     45  C1  BGC C   4      30.949  33.618  40.5130  0.00  0.00     0.000 C
ATOM     46  C2  BGC C   4      29.798  32.646  40.9260  0.00  0.00     0.000 C
ATOM     47  C3  BGC C   4      29.127  33.415  42.0710  0.00  0.00     0.000 C
ATOM     48  C4  BGC C   4      29.994  33.935  43.2010  0.00  0.00     0.000 C
ATOM     49  C5  BGC C   4      31.045  34.848  42.5480  0.00  0.00     0.000 C
ATOM     50  O5  BGC C   4      31.751  34.171  41.5670  0.00  0.00     0.000 O
ATOM     51   O  BGC C   4      28.690  32.199  39.9550  0.00  0.00     0.000 O
ATOM     53  HD  BGC C   4      28.068  31.757  40.3650  0.00  0.00     0.000 HD
ATOM     53   O  BGC C   4      28.333  32.301  42.6970  0.00  0.00     0.000 O
ATOM     55  HD  BGC C   4      27.711  31.860  43.1070  0.00  0.00     0.000 HD
ATOM     55   C  BGC C   4      32.076  35.302  43.5490  0.00  0.00     0.000 C
ATOM     56   O  BGC C   4      32.764  34.257  44.2460  0.00  0.00     0.000 O
ATOM     58  HD  BGC C   4      32.142  33.816  44.6560  0.00  0.00     0.000 HD
BRANCH 45 58
ATOM     58  O4  BGC C   5      31.855  33.020  39.6350  0.00  0.00     0.000 O
BRANCH 58 62
ATOM     59  C1  BGC C   5      30.590  32.863  36.8550  0.00  0.00     0.000 C
ATOM     60  C2  BGC C   5      31.924  32.318  36.7280  0.00  0.00     0.000 C
ATOM     61  C3  BGC C   5      32.995  33.146  37.4340  0.00  0.00     0.000 C
ATOM     62  C4  BGC C   5      32.353  33.895  38.5930  0.00  0.00     0.000 C
ATOM     63  C5  BGC C   5      31.061  34.491  38.0830  0.00  0.00     0.000 C
ATOM     64  O5  BGC C   5      30.535  34.007  36.8490  0.00  0.00     0.000 O
ATOM     65   O  BGC C   5      32.087  36.427  37.0660  0.00  0.00     0.000 O
ATOM     67  HD  BGC C   5      31.701  36.095  37.7660  0.00  0.00     0.000 HD
ATOM     67   O  BGC C   5      32.087  36.427  37.0660  0.00  0.00     0.000 O
ATOM     69  HD  BGC C   5      31.701  36.095  37.7660  0.00  0.00     0.000 HD
ENDBRANCH 58 62
ENDBRANCH 45 58
ENDBRANCH 44 48
ENDBRANCH 31 44
ENDBRANCH 30 34
ENDBRANCH 17 30
ENDBRANCH 16 20
ENDBRANCH 1 16
TORSDOF 8
ENDMDL
MODEL 96
REMARK VINA RESULT:      -0.1     39.129     42.607
ROOT
ATOM      1  C1  BGC C   1      49.432  23.242   4.1920  0.00  0.00     0.000 C
ATOM      2  C2  BGC C   1      48.651  24.540   3.9910  0.00  0.00     0.000 C
ATOM      3  C3  BGC C   1      47.810  24.453   2.7230  0.00  0.00     0.000 C
ATOM      4  C4  BGC C   1      48.626  24.000   1.5230  0.00  0.00     0.000 C
ATOM      5  C5  BGC C   1      49.482  22.792   1.8920  0.00  0.00     0.000 C
ATOM      6  O5  BGC C   1      50.189  22.946   3.0810  0.00  0.00     0.000 O
ATOM      7   O  BGC C   1      47.822  24.712   5.1160  0.00  0.00     0.000 O
ATOM      9  HD  BGC C   1      48.055  25.325   4.5510  0.00  0.00     0.000 HD
ATOM      9   O  BGC C   1      47.200  25.732   2.5050  0.00  0.00     0.000 O
ATOM     11  HD  BGC C   1      47.433  26.345   1.9400  0.00  0.00     0.000 HD
ATOM     11   O  BGC C   1      47.698  23.675   0.4940  0.00  0.00     0.000 O
ATOM     13  HD  BGC C   1      47.932  24.289  -0.0710  0.00  0.00     0.000 HD
ATOM     13   O  BGC C   1      51.477  23.613   0.6730  0.00  0.00     0.000 O
ATOM     15  HD  BGC C   1      51.710  24.227   0.1080  0.00  0.00     0.000 HD
ATOM     15   C  BGC C   1      50.487  22.550   0.7510  0.00  0.00     0.000 C
ENDROOT
BRANCH 1 16
ATOM     16  O4  BGC C   2      50.327  23.417   5.2650  0.00  0.00     0.000 O
BRANCH 16 20
ATOM     17  C1  BGC C   2      51.999  21.142   8.2150  0.00  0.00     0.000 C
ATOM     18  C2  BGC C   2      52.676  21.069   6.8560  0.00  0.00     0.000 C
ATOM     19  C3  BGC C   2      52.209  22.206   5.9580  0.00  0.00     0.000 C
ATOM     20  C4  BGC C   2      50.718  22.237   5.9260  0.00  0.00     0.000 C
ATOM     21  C5  BGC C   2      50.138  22.231   7.3380  0.00  0.00     0.000 C
ATOM     22  O5  BGC C   2      50.608  21.136   8.0650  0.00  0.00     0.000 O
ATOM     23   O  BGC C   2      54.098  21.129   7.0420  0.00  0.00     0.000 O
ATOM     25  HD  BGC C   2      54.457  21.626   6.4310  0.00  0.00     0.000 HD
ATOM     25   O  BGC C   2      52.715  22.003   4.6450  0.00  0.00     0.000 O
ATOM     27  HD  BGC C   2      53.074  22.501   4.0340  0.00  0.00     0.000 HD
ATOM     27   C  BGC C   2      48.597  22.242   7.4040  0.00  0.00     0.000 C
ATOM     28   O  BGC C   2      48.036  21.164   6.6370  0.00  0.00     0.000 O
ATOM     30  HD  BGC C   2      48.395  21.662   6.0260  0.00  0.00     0.000 HD
BRANCH 17 30
ATOM     30  O4  BGC C   3      52.373  20.018   8.9830  0.00  0.00     0.000 O
BRANCH 30 34
ATOM     31  C1  BGC C   3      53.237  18.964  12.7880  0.00  0.00     0.000 C
ATOM     32  C2  BGC C   3      51.734  18.984  12.4220  0.00  0.00     0.000 C
ATOM     33  C3  BGC C   3      51.539  19.038  10.9470  0.00  0.00     0.000 C
ATOM     34  C4  BGC C   3      52.376  20.192  10.3920  0.00  0.00     0.000 C
ATOM     35  C5  BGC C   3      53.844  20.196  10.8900  0.00  0.00     0.000 C
ATOM     36  O5  BGC C   3      53.879  20.113  12.2920  0.00  0.00     0.000 O
ATOM     37   O  BGC C   3      50.913  17.933  12.8970  0.00  0.00     0.000 O
ATOM     39  HD  BGC C   3      51.087  18.469  12.2400  0.00  0.00     0.000 HD
ATOM     39   O  BGC C   3      50.126  19.213  10.6310  0.00  0.00     0.000 O
ATOM     41  HD  BGC C   3      50.301  19.749   9.9740  0.00  0.00     0.000 HD
ATOM     41   C  BGC C   3      54.667  21.445  10.4970  0.00  0.00     0.000 C
ATOM     42   O  BGC C   3      54.193  22.715  11.0730  0.00  0.00     0.000 O
ATOM     44  HD  BGC C   3      54.367  23.251  10.4160  0.00  0.00     0.000 HD
BRANCH 31 44
ATOM     44  O4  BGC C   4      53.414  18.912  14.1650  0.00  0.00     0.000 O
BRANCH 44 48
ATOM     45  C1  BGC C   4      55.670  17.317  17.1860  0.00  0.00     0.000 C
ATOM     46  C2  BGC C   4      56.472  18.389  16.3810  0.00  0.00     0.000 C
ATOM     47  C3  BGC C   4      55.370  19.050  15.5430  0.00  0.00     0.000 C
ATOM     48  C4  BGC C   4      54.447  18.162  14.7310  0.00  0.00     0.000 C
ATOM     49  C5  BGC C   4      53.790  17.198  15.7310  0.00  0.00     0.000 C
ATOM     50  O5  BGC C   4      54.746  16.500  16.4510  0.00  0.00     0.000 O
ATOM     51   O  BGC C   4      57.278  19.513  17.0570  0.00  0.00     0.000 O
ATOM     53  HD  BGC C   4      57.567  20.089  16.4780  0.00  0.00     0.000 HD
ATOM     53   O  BGC C   4      56.214  19.748  14.5130  0.00  0.00     0.000 O
ATOM     55  HD  BGC C   4      56.502  20.324  13.9340  0.00  0.00     0.000 HD
ATOM     55   C  BGC C   4      52.970  16.150  15.0250  0.00  0.00     0.000 C
ATOM     56   O  BGC C   4      53.669  15.370  14.0480  0.00  0.00     0.000 O
ATOM     58  HD  BGC C   4      53.957  15.946  13.4690  0.00  0.00     0.000 HD
BRANCH 45 58
ATOM     58  O4  BGC C   5      56.509  16.420  17.8500  0.00  0.00     0.000 O
BRANCH 58 62
ATOM     59  C1  BGC C   5      57.697  17.802  20.3060  0.00  0.00     0.000 C
ATOM     60  C2  BGC C   5      58.201  16.446  20.3150  0.00  0.00     0.000 C
ATOM     61  C3  BGC C   5      57.136  15.393  20.0200  0.00  0.00     0.000 C
ATOM     62  C4  BGC C   5      56.046  16.022  19.1640  0.00  0.00     0.000 C
ATOM     63  C5  BGC C   5      55.722  17.369  19.7690  0.00  0.00     0.000 C
ATOM     64  O5  BGC C   5      56.635  17.923  20.7140  0.00  0.00     0.000 O
ATOM     65   O  BGC C   5      54.241  16.505  21.4720  0.00  0.00     0.000 O
ATOM     67  HD  BGC C   5      54.315  16.839  20.6760  0.00  0.00     0.000 HD
ATOM     67   O  BGC C   5      54.241  16.505  21.4720  0.00  0.00     0.000 O
ATOM     69  HD  BGC C   5      54.315  16.839  20.6760  0.00  0.00     0.000 HD
ENDBRANCH 58 62
ENDBRANCH 45 58
ENDBRANCH 44 48
ENDBRANCH 31 44
ENDBRANCH 30 34
ENDBRANCH 17 30
ENDBRANCH 16 20
ENDBRANCH 1 16
TORSDOF 8
ENDMDL
MODEL 97
REMARK VINA RESULT:      -0.1     34.521     41.954
ROOT
ATOM      1  C1  BGC C   1      23.258   8.129  46.3670  0.00  0.00     0.000 C
ATOM      2  C2  BGC C   1      23.765   6.771  46.8510  0.00  0.00     0.000 C
ATOM      3  C3  BGC C   1      25.044   6.398  46.1110  0.00  0.00     0.000 C
ATOM      4  C4  BGC C   1      24.895   6.531  44.6040  0.00  0.00     0.000 C
ATOM      5  C5  BGC C   1      24.235   7.861  44.2540  0.00  0.00     0.000 C
ATOM      6  O5  BGC C   1      23.093   8.136  45.0010  0.00  0.00     0.000 O
ATOM      7   O  BGC C   1      24.014   6.881  48.2320  0.00  0.00     0.000 O
ATOM      9  HD  BGC C   1      23.906   6.146  47.7860  0.00  0.00     0.000 HD
ATOM      9   O  BGC C   1      25.409   5.066  46.4980  0.00  0.00     0.000 O
ATOM     11  HD  BGC C   1      25.301   4.332  46.0520  0.00  0.00     0.000 HD
ATOM     11   O  BGC C   1      26.205   6.448  44.0530  0.00  0.00     0.000 O
ATOM     13  HD  BGC C   1      26.097   5.714  43.6060  0.00  0.00     0.000 HD
ATOM     13   O  BGC C   1      22.779   6.879  42.5070  0.00  0.00     0.000 O
ATOM     15  HD  BGC C   1      22.670   6.145  42.0610  0.00  0.00     0.000 HD
ATOM     15   C  BGC C   1      23.851   7.828  42.7630  0.00  0.00     0.000 C
ENDROOT
BRANCH 1 16
ATOM     16  O4  BGC C   2      21.992   8.366  46.9360  0.00  0.00     0.000 O
BRANCH 16 20
ATOM     17  C1  BGC C   2      19.786  11.562  48.1970  0.00  0.00     0.000 C
ATOM     18  C2  BGC C   2      19.746  11.275  46.7040  0.00  0.00     0.000 C
ATOM     19  C3  BGC C   2      20.287   9.883  46.4080  0.00  0.00     0.000 C
ATOM     20  C4  BGC C   2      21.623   9.719  47.0530  0.00  0.00     0.000 C
ATOM     21  C5  BGC C   2      21.571  10.106  48.5280  0.00  0.00     0.000 C
ATOM     22  O5  BGC C   2      21.087  11.405  48.6860  0.00  0.00     0.000 O
ATOM     23   O  BGC C   2      18.391  11.395  46.2450  0.00  0.00     0.000 O
ATOM     25  HD  BGC C   2      18.214  10.767  45.6760  0.00  0.00     0.000 HD
ATOM     25   O  BGC C   2      20.408   9.719  45.0000  0.00  0.00     0.000 O
ATOM     27  HD  BGC C   2      20.231   9.091  44.4310  0.00  0.00     0.000 HD
ATOM     27   C  BGC C   2      22.915   9.986  49.2750  0.00  0.00     0.000 C
ATOM     28   O  BGC C   2      23.949  10.728  48.6080  0.00  0.00     0.000 O
ATOM     30  HD  BGC C   2      23.772  10.100  48.0380  0.00  0.00     0.000 HD
BRANCH 17 30
ATOM     30  O4  BGC C   3      19.377  12.894  48.4260  0.00  0.00     0.000 O
BRANCH 30 34
ATOM     31  C1  BGC C   3      17.291  15.124  51.0740  0.00  0.00     0.000 C
ATOM     32  C2  BGC C   3      18.775  14.868  51.4340  0.00  0.00     0.000 C
ATOM     33  C3  BGC C   3      19.532  14.352  50.2600  0.00  0.00     0.000 C
ATOM     34  C4  BGC C   3      18.770  13.157  49.6810  0.00  0.00     0.000 C
ATOM     35  C5  BGC C   3      17.260  13.428  49.4570  0.00  0.00     0.000 C
ATOM     36  O5  BGC C   3      16.680  13.937  50.6320  0.00  0.00     0.000 O
ATOM     37   O  BGC C   3      19.533  15.941  51.9600  0.00  0.00     0.000 O
ATOM     39  HD  BGC C   3      19.531  15.247  51.4430  0.00  0.00     0.000 HD
ATOM     39   O  BGC C   3      20.882  13.971  50.6590  0.00  0.00     0.000 O
ATOM     41  HD  BGC C   3      20.880  13.277  50.1410  0.00  0.00     0.000 HD
ATOM     41   C  BGC C   3      16.426  12.192  49.0480  0.00  0.00     0.000 C
ATOM     42   O  BGC C   3      16.351  11.123  50.0580  0.00  0.00     0.000 O
ATOM     44  HD  BGC C   3      16.349  10.429  49.5400  0.00  0.00     0.000 HD
BRANCH 31 44
ATOM     44  O4  BGC C   4      16.589  15.607  52.1710  0.00  0.00     0.000 O
BRANCH 44 48
ATOM     45  C1  BGC C   4      13.692  18.228  53.3930  0.00  0.00     0.000 C
ATOM     46  C2  BGC C   4      13.079  17.033  52.5960  0.00  0.00     0.000 C
ATOM     47  C3  BGC C   4      14.262  16.060  52.5210  0.00  0.00     0.000 C
ATOM     48  C4  BGC C   4      15.596  16.577  52.0210  0.00  0.00     0.000 C
ATOM     49  C5  BGC C   4      15.979  17.742  52.9480  0.00  0.00     0.000 C
ATOM     50  O5  BGC C   4      14.982  18.703  52.9760  0.00  0.00     0.000 O
ATOM     51   O  BGC C   4      11.854  16.240  53.0860  0.00  0.00     0.000 O
ATOM     53  HD  BGC C   4      11.711  15.541  52.5950  0.00  0.00     0.000 HD
ATOM     53   O  BGC C   4      13.779  15.154  51.4210  0.00  0.00     0.000 O
ATOM     55  HD  BGC C   4      13.636  14.455  50.9300  0.00  0.00     0.000 HD
ATOM     55   C  BGC C   4      17.212  18.453  52.4550  0.00  0.00     0.000 C
ATOM     56   O  BGC C   4      17.145  18.954  51.1150  0.00  0.00     0.000 O
ATOM     58  HD  BGC C   4      17.002  18.255  50.6230  0.00  0.00     0.000 HD
BRANCH 45 58
ATOM     58  O4  BGC C   5      12.863  19.352  53.3790  0.00  0.00     0.000 O
BRANCH 58 62
ATOM     59  C1  BGC C   5      10.527  18.889  55.2970  0.00  0.00     0.000 C
ATOM     60  C2  BGC C   5      10.356  20.221  54.7580  0.00  0.00     0.000 C
ATOM     61  C3  BGC C   5      11.643  21.040  54.7280  0.00  0.00     0.000 C
ATOM     62  C4  BGC C   5      12.829  20.091  54.6250  0.00  0.00     0.000 C
ATOM     63  C5  BGC C   5      12.594  18.971  55.6120  0.00  0.00     0.000 C
ATOM     64  O5  BGC C   5      11.284  18.809  56.1520  0.00  0.00     0.000 O
ATOM     65   O  BGC C   5      13.407  20.186  57.5350  0.00  0.00     0.000 O
ATOM     67  HD  BGC C   5      13.593  19.633  56.8950  0.00  0.00     0.000 HD
ATOM     67   O  BGC C   5      13.407  20.186  57.5350  0.00  0.00     0.000 O
ATOM     69  HD  BGC C   5      13.593  19.633  56.8950  0.00  0.00     0.000 HD
ENDBRANCH 58 62
ENDBRANCH 45 58
ENDBRANCH 44 48
ENDBRANCH 31 44
ENDBRANCH 30 34
ENDBRANCH 17 30
ENDBRANCH 16 20
ENDBRANCH 1 16
TORSDOF 8
ENDMDL
MODEL 98
REMARK VINA RESULT:      -0.1     62.316     67.707
ROOT
ATOM      1  C1  BGC C   1      45.534  61.003  49.9960  0.00  0.00     0.000 C
ATOM      2  C2  BGC C   1      45.151  60.161  51.2120  0.00  0.00     0.000 C
ATOM      3  C3  BGC C   1      44.175  60.931  52.0940  0.00  0.00     0.000 C
ATOM      4  C4  BGC C   1      44.670  62.333  52.4110  0.00  0.00     0.000 C
ATOM      5  C5  BGC C   1      45.170  63.016  51.1420  0.00  0.00     0.000 C
ATOM      6  O5  BGC C   1      46.030  62.228  50.3810  0.00  0.00     0.000 O
ATOM      7   O  BGC C   1      44.551  58.979  50.7360  0.00  0.00     0.000 O
ATOM      9  HD  BGC C   1      44.885  59.104  51.5250  0.00  0.00     0.000 HD
ATOM      9   O  BGC C   1      43.946  60.161  53.2820  0.00  0.00     0.000 O
ATOM     11  HD  BGC C   1      44.280  60.286  54.0710  0.00  0.00     0.000 HD
ATOM     11   O  BGC C   1      43.570  63.040  52.9730  0.00  0.00     0.000 O
ATOM     13  HD  BGC C   1      43.904  63.165  53.7630  0.00  0.00     0.000 HD
ATOM     13   O  BGC C   1      47.156  64.003  52.2470  0.00  0.00     0.000 O
ATOM     15  HD  BGC C   1      47.489  64.128  53.0360  0.00  0.00     0.000 HD
ATOM     15   C  BGC C   1      45.914  64.301  51.5500  0.00  0.00     0.000 C
ENDROOT
BRANCH 1 16
ATOM     16  O4  BGC C   2      46.563  60.343  49.2980  0.00  0.00     0.000 O
BRANCH 16 20
ATOM     17  C1  BGC C   2      47.836  59.948  45.4380  0.00  0.00     0.000 C
ATOM     18  C2  BGC C   2      48.291  61.205  46.1630  0.00  0.00     0.000 C
ATOM     19  C3  BGC C   2      48.075  61.071  47.6630  0.00  0.00     0.000 C
ATOM     20  C4  BGC C   2      46.666  60.658  47.9300  0.00  0.00     0.000 C
ATOM     21  C5  BGC C   2      46.286  59.437  47.0980  0.00  0.00     0.000 C
ATOM     22  O5  BGC C   2      46.497  59.675  45.7380  0.00  0.00     0.000 O
ATOM     23   O  BGC C   2      49.680  61.429  45.8740  0.00  0.00     0.000 O
ATOM     25  HD  BGC C   2      50.093  61.693  46.5880  0.00  0.00     0.000 HD
ATOM     25   O  BGC C   2      48.336  62.323  48.2870  0.00  0.00     0.000 O
ATOM     27  HD  BGC C   2      48.749  62.587  49.0010  0.00  0.00     0.000 HD
ATOM     27   C  BGC C   2      44.836  58.948  47.2930  0.00  0.00     0.000 C
ATOM     28   O  BGC C   2      43.894  60.009  47.0680  0.00  0.00     0.000 O
ATOM     30  HD  BGC C   2      44.307  60.273  47.7820  0.00  0.00     0.000 HD
BRANCH 17 30
ATOM     30  O4  BGC C   3      47.952  60.146  44.0450  0.00  0.00     0.000 O
BRANCH 30 34
ATOM     31  C1  BGC C   3      48.921  58.154  40.6640  0.00  0.00     0.000 C
ATOM     32  C2  BGC C   3      47.457  57.995  41.1410  0.00  0.00     0.000 C
ATOM     33  C3  BGC C   3      47.110  59.018  42.1650  0.00  0.00     0.000 C
ATOM     34  C4  BGC C   3      48.177  58.983  43.2630  0.00  0.00     0.000 C
ATOM     35  C5  BGC C   3      49.630  59.019  42.7240  0.00  0.00     0.000 C
ATOM     36  O5  BGC C   3      49.809  58.023  41.7470  0.00  0.00     0.000 O
ATOM     37   O  BGC C   3      46.427  58.033  40.1710  0.00  0.00     0.000 O
ATOM     39  HD  BGC C   3      46.671  58.257  40.9710  0.00  0.00     0.000 HD
ATOM     39   O  BGC C   3      45.785  58.755  42.7120  0.00  0.00     0.000 O
ATOM     41  HD  BGC C   3      46.029  58.978  43.5120  0.00  0.00     0.000 HD
ATOM     41   C  BGC C   3      50.730  58.802  43.7880  0.00  0.00     0.000 C
ATOM     42   O  BGC C   3      50.725  57.479  44.4350  0.00  0.00     0.000 O
ATOM     44  HD  BGC C   3      50.969  57.702  45.2350  0.00  0.00     0.000 HD
BRANCH 31 44
ATOM     44  O4  BGC C   4      49.240  57.199  39.7080  0.00  0.00     0.000 O
BRANCH 44 48
ATOM     45  C1  BGC C   4      51.274  56.510  36.2220  0.00  0.00     0.000 C
ATOM     46  C2  BGC C   4      52.253  56.703  37.4240  0.00  0.00     0.000 C
ATOM     47  C3  BGC C   4      51.301  56.630  38.6250  0.00  0.00     0.000 C
ATOM     48  C4  BGC C   4      50.067  57.510  38.6260  0.00  0.00     0.000 C
ATOM     49  C5  BGC C   4      49.281  57.147  37.3560  0.00  0.00     0.000 C
ATOM     50  O5  BGC C   4      50.069  57.291  36.2260  0.00  0.00     0.000 O
ATOM     51   O  BGC C   4      53.430  55.752  37.7060  0.00  0.00     0.000 O
ATOM     53  HD  BGC C   4      53.803  55.925  38.4680  0.00  0.00     0.000 HD
ATOM     53   O  BGC C   4      52.183  57.226  39.6870  0.00  0.00     0.000 O
ATOM     55  HD  BGC C   4      52.556  57.400  40.4500  0.00  0.00     0.000 HD
ATOM     55   C  BGC C   4      48.109  58.072  37.1520  0.00  0.00     0.000 C
ATOM     56   O  BGC C   4      48.424  59.469  37.0980  0.00  0.00     0.000 O
ATOM     58  HD  BGC C   4      48.797  59.642  37.8610  0.00  0.00     0.000 HD
BRANCH 45 58
ATOM     58  O4  BGC C   5      51.885  56.781  34.9960  0.00  0.00     0.000 O
BRANCH 58 62
ATOM     59  C1  BGC C   5      53.716  54.445  34.2600  0.00  0.00     0.000 C
ATOM     60  C2  BGC C   5      53.796  55.387  33.1650  0.00  0.00     0.000 C
ATOM     61  C3  BGC C   5      52.440  55.937  32.7300  0.00  0.00     0.000 C
ATOM     62  C4  BGC C   5      51.488  55.899  33.9170  0.00  0.00     0.000 C
ATOM     63  C5  BGC C   5      51.651  54.551  34.5800  0.00  0.00     0.000 C
ATOM     64  O5  BGC C   5      52.794  53.766  34.2450  0.00  0.00     0.000 O
ATOM     65   O  BGC C   5      50.199  53.369  33.0530  0.00  0.00     0.000 O
ATOM     67  HD  BGC C   5      50.271  53.789  33.8070  0.00  0.00     0.000 HD
ATOM     67   O  BGC C   5      50.199  53.369  33.0530  0.00  0.00     0.000 O
ATOM     69  HD  BGC C   5      50.271  53.789  33.8070  0.00  0.00     0.000 HD
ENDBRANCH 58 62
ENDBRANCH 45 58
ENDBRANCH 44 48
ENDBRANCH 31 44
ENDBRANCH 30 34
ENDBRANCH 17 30
ENDBRANCH 16 20
ENDBRANCH 1 16
TORSDOF 8
ENDMDL
MODEL 99
REMARK VINA RESULT:      -0.1     53.362     57.539
ROOT
ATOM      1  C1  BGC C   1      35.703  29.959  63.2580  0.00  0.00     0.000 C
ATOM      2  C2  BGC C   1      34.347  29.353  63.6200  0.00  0.00     0.000 C
ATOM      3  C3  BGC C   1      33.466  30.405  64.2850  0.00  0.00     0.000 C
ATOM      4  C4  BGC C   1      34.179  31.115  65.4230  0.00  0.00     0.000 C
ATOM      5  C5  BGC C   1      35.580  31.535  64.9890  0.00  0.00     0.000 C
ATOM      6  O5  BGC C   1      36.301  30.522  64.3620  0.00  0.00     0.000 O
ATOM      7   O  BGC C   1      33.753  28.903  62.4250  0.00  0.00     0.000 O
ATOM      9  HD  BGC C   1      33.540  28.660  63.2290  0.00  0.00     0.000 HD
ATOM      9   O  BGC C   1      32.261  29.763  64.7230  0.00  0.00     0.000 O
ATOM     11  HD  BGC C   1      32.048  29.520  65.5270  0.00  0.00     0.000 HD
ATOM     11   O  BGC C   1      33.387  32.248  65.7620  0.00  0.00     0.000 O
ATOM     13  HD  BGC C   1      33.174  32.005  66.5650  0.00  0.00     0.000 HD
ATOM     13   O  BGC C   1      36.633  30.870  67.1310  0.00  0.00     0.000 O
ATOM     15  HD  BGC C   1      36.420  30.627  67.9350  0.00  0.00     0.000 HD
ATOM     15   C  BGC C   1      36.355  31.986  66.2410  0.00  0.00     0.000 C
ENDROOT
BRANCH 1 16
ATOM     16  O4  BGC C   2      36.551  28.928  62.8110  0.00  0.00     0.000 O
BRANCH 16 20
ATOM     17  C1  BGC C   2      39.627  28.471  60.1640  0.00  0.00     0.000 C
ATOM     18  C2  BGC C   2      40.001  29.027  61.5280  0.00  0.00     0.000 C
ATOM     19  C3  BGC C   2      38.873  28.812  62.5270  0.00  0.00     0.000 C
ATOM     20  C4  BGC C   2      37.596  29.331  61.9570  0.00  0.00     0.000 C
ATOM     21  C5  BGC C   2      37.353  28.772  60.5590  0.00  0.00     0.000 C
ATOM     22  O5  BGC C   2      38.432  29.047  59.7170  0.00  0.00     0.000 O
ATOM     23   O  BGC C   2      41.201  28.380  61.9790  0.00  0.00     0.000 O
ATOM     25  HD  BGC C   2      41.145  28.206  62.8250  0.00  0.00     0.000 HD
ATOM     25   O  BGC C   2      39.179  29.503  63.7330  0.00  0.00     0.000 O
ATOM     27  HD  BGC C   2      39.122  29.329  64.5790  0.00  0.00     0.000 HD
ATOM     27   C  BGC C   2      36.060  29.271  59.8800  0.00  0.00     0.000 C
ATOM     28   O  BGC C   2      36.006  30.706  59.8520  0.00  0.00     0.000 O
ATOM     30  HD  BGC C   2      35.950  30.532  60.6990  0.00  0.00     0.000 HD
BRANCH 17 30
ATOM     30  O4  BGC C   3      40.648  28.780  59.2390  0.00  0.00     0.000 O
BRANCH 30 34
ATOM     31  C1  BGC C   3      42.564  27.211  56.0440  0.00  0.00     0.000 C
ATOM     32  C2  BGC C   3      41.226  27.926  55.7390  0.00  0.00     0.000 C
ATOM     33  C3  BGC C   3      40.782  28.754  56.8940  0.00  0.00     0.000 C
ATOM     34  C4  BGC C   3      40.802  27.880  58.1510  0.00  0.00     0.000 C
ATOM     35  C5  BGC C   3      42.121  27.089  58.3420  0.00  0.00     0.000 C
ATOM     36  O5  BGC C   3      42.433  26.379  57.1700  0.00  0.00     0.000 O
ATOM     37   O  BGC C   3      41.154  28.758  54.5970  0.00  0.00     0.000 O
ATOM     39  HD  BGC C   3      40.914  28.644  55.4210  0.00  0.00     0.000 HD
ATOM     39   O  BGC C   3      39.449  29.291  56.6470  0.00  0.00     0.000 O
ATOM     41  HD  BGC C   3      39.210  29.177  57.4720  0.00  0.00     0.000 HD
ATOM     41   C  BGC C   3      42.108  26.061  59.4960  0.00  0.00     0.000 C
ATOM     42   O  BGC C   3      41.157  24.948  59.3340  0.00  0.00     0.000 O
ATOM     44  HD  BGC C   3      40.918  24.834  60.1580  0.00  0.00     0.000 HD
BRANCH 31 44
ATOM     44  O4  BGC C   4      42.975  26.441  54.9640  0.00  0.00     0.000 O
BRANCH 44 48
ATOM     45  C1  BGC C   4      46.207  25.220  52.7680  0.00  0.00     0.000 C
ATOM     46  C2  BGC C   4      46.197  24.557  54.1830  0.00  0.00     0.000 C
ATOM     47  C3  BGC C   4      44.787  24.898  54.6830  0.00  0.00     0.000 C
ATOM     48  C4  BGC C   4      44.326  26.341  54.6230  0.00  0.00     0.000 C
ATOM     49  C5  BGC C   4      44.438  26.764  53.1500  0.00  0.00     0.000 C
ATOM     50  O5  BGC C   4      45.723  26.568  52.6720  0.00  0.00     0.000 O
ATOM     51   O  BGC C   4      46.416  23.049  54.4020  0.00  0.00     0.000 O
ATOM     53  HD  BGC C   4      46.265  22.823  55.2240  0.00  0.00     0.000 HD
ATOM     53   O  BGC C   4      44.965  24.627  56.1520  0.00  0.00     0.000 O
ATOM     55  HD  BGC C   4      44.814  24.401  56.9740  0.00  0.00     0.000 HD
ATOM     55   C  BGC C   4      44.163  28.236  52.9790  0.00  0.00     0.000 C
ATOM     56   O  BGC C   4      44.983  29.114  53.7590  0.00  0.00     0.000 O
ATOM     58  HD  BGC C   4      44.832  28.888  54.5810  0.00  0.00     0.000 HD
BRANCH 45 58
ATOM     58  O4  BGC C   5      47.487  25.247  52.2080  0.00  0.00     0.000 O
BRANCH 58 62
ATOM     59  C1  BGC C   5      48.201  22.443  51.2200  0.00  0.00     0.000 C
ATOM     60  C2  BGC C   5      49.321  23.293  50.8810  0.00  0.00     0.000 C
ATOM     61  C3  BGC C   5      48.911  24.632  50.2720  0.00  0.00     0.000 C
ATOM     62  C4  BGC C   5      47.525  25.001  50.7810  0.00  0.00     0.000 C
ATOM     63  C5  BGC C   5      46.667  23.761  50.6850  0.00  0.00     0.000 C
ATOM     64  O5  BGC C   5      47.314  22.504  50.4990  0.00  0.00     0.000 O
ATOM     65   O  BGC C   5      46.153  24.020  48.3380  0.00  0.00     0.000 O
ATOM     67  HD  BGC C   5      45.909  24.171  49.1550  0.00  0.00     0.000 HD
ATOM     67   O  BGC C   5      46.153  24.020  48.3380  0.00  0.00     0.000 O
ATOM     69  HD  BGC C   5      45.909  24.171  49.1550  0.00  0.00     0.000 HD
ENDBRANCH 58 62
ENDBRANCH 45 58
ENDBRANCH 44 48
ENDBRANCH 31 44
ENDBRANCH 30 34
ENDBRANCH 17 30
ENDBRANCH 16 20
ENDBRANCH 1 16
TORSDOF 8
ENDMDL
MODEL 100
REMARK VINA RESULT:      -0.1     46.825     54.989
ROOT
ATOM      1  C1  BGC C   1      18.408  62.624  41.8870  0.00  0.00     0.000 C
ATOM      2  C2  BGC C   1      17.093  63.169  41.3310  0.00  0.00     0.000 C
ATOM      3  C3  BGC C   1      17.202  64.673  41.1110  0.00  0.00     0.000 C
ATOM      4  C4  BGC C   1      17.732  65.396  42.3380  0.00  0.00     0.000 C
ATOM      5  C5  BGC C   1      18.953  64.669  42.8930  0.00  0.00     0.000 C
ATOM      6  O5  BGC C   1      18.775  63.296  43.0300  0.00  0.00     0.000 O
ATOM      7   O  BGC C   1      16.846  62.513  40.1100  0.00  0.00     0.000 O
ATOM      9  HD  BGC C   1      16.265  62.936  40.5930  0.00  0.00     0.000 HD
ATOM      9   O  BGC C   1      15.912  65.160  40.7160  0.00  0.00     0.000 O
ATOM     11  HD  BGC C   1      15.331  65.583  41.1990  0.00  0.00     0.000 HD
ATOM     11   O  BGC C   1      18.066  66.717  41.9250  0.00  0.00     0.000 O
ATOM     13  HD  BGC C   1      17.485  67.140  42.4080  0.00  0.00     0.000 HD
ATOM     13   O  BGC C   1      18.253  64.932  45.2550  0.00  0.00     0.000 O
ATOM     15  HD  BGC C   1      17.672  65.355  45.7380  0.00  0.00     0.000 HD
ATOM     15   C  BGC C   1      19.277  65.263  44.2760  0.00  0.00     0.000 C
ENDROOT
BRANCH 1 16
ATOM     16  O4  BGC C   2      18.221  61.275  42.2440  0.00  0.00     0.000 O
BRANCH 16 20
ATOM     17  C1  BGC C   2      20.431  57.843  42.3780  0.00  0.00     0.000 C
ATOM     18  C2  BGC C   2      20.583  58.779  43.5670  0.00  0.00     0.000 C
ATOM     19  C3  BGC C   2      19.468  59.814  43.5850  0.00  0.00     0.000 C
ATOM     20  C4  BGC C   2      19.386  60.484  42.2550  0.00  0.00     0.000 C
ATOM     21  C5  BGC C   2      19.314  59.458  41.1280  0.00  0.00     0.000 C
ATOM     22  O5  BGC C   2      20.394  58.576  41.1870  0.00  0.00     0.000 O
ATOM     23   O  BGC C   2      20.566  58.001  44.7740  0.00  0.00     0.000 O
ATOM     25  HD  BGC C   2      20.107  58.410  45.3840  0.00  0.00     0.000 HD
ATOM     25   O  BGC C   2      19.742  60.779  44.5940  0.00  0.00     0.000 O
ATOM     27  HD  BGC C   2      19.283  61.187  45.2040  0.00  0.00     0.000 HD
ATOM     27   C  BGC C   2      19.246  60.060  39.7090  0.00  0.00     0.000 C
ATOM     28   O  BGC C   2      20.334  60.970  39.4780  0.00  0.00     0.000 O
ATOM     30  HD  BGC C   2      19.875  61.378  40.0880  0.00  0.00     0.000 HD
BRANCH 17 30
ATOM     30  O4  BGC C   3      21.535  56.965  42.3320  0.00  0.00     0.000 O
BRANCH 30 34
ATOM     31  C1  BGC C   3      22.462  53.136  41.4300  0.00  0.00     0.000 C
ATOM     32  C2  BGC C   3      22.404  54.112  40.2310  0.00  0.00     0.000 C
ATOM     33  C3  BGC C   3      22.404  55.529  40.6900  0.00  0.00     0.000 C
ATOM     34  C4  BGC C   3      21.303  55.696  41.7410  0.00  0.00     0.000 C
ATOM     35  C5  BGC C   3      21.331  54.616  42.8520  0.00  0.00     0.000 C
ATOM     36  O5  BGC C   3      21.359  53.332  42.2790  0.00  0.00     0.000 O
ATOM     37   O  BGC C   3      23.405  54.013  39.2350  0.00  0.00     0.000 O
ATOM     39  HD  BGC C   3      22.902  54.543  39.7010  0.00  0.00     0.000 HD
ATOM     39   O  BGC C   3      22.192  56.425  39.5590  0.00  0.00     0.000 O
ATOM     41  HD  BGC C   3      21.689  56.955  40.0250  0.00  0.00     0.000 HD
ATOM     41   C  BGC C   3      20.130  54.644  43.8250  0.00  0.00     0.000 C
ATOM     42   O  BGC C   3      18.821  54.355  43.2140  0.00  0.00     0.000 O
ATOM     44  HD  BGC C   3      18.319  54.885  43.6790  0.00  0.00     0.000 HD
BRANCH 31 44
ATOM     44  O4  BGC C   4      22.464  51.816  40.9980  0.00  0.00     0.000 O
BRANCH 44 48
ATOM     45  C1  BGC C   4      24.013  48.085  41.6620  0.00  0.00     0.000 C
ATOM     46  C2  BGC C   4      23.004  48.490  42.7830  0.00  0.00     0.000 C
ATOM     47  C3  BGC C   4      22.340  49.734  42.1790  0.00  0.00     0.000 C
ATOM     48  C4  BGC C   4      23.227  50.845  41.6510  0.00  0.00     0.000 C
ATOM     49  C5  BGC C   4      24.126  50.203  40.5830  0.00  0.00     0.000 C
ATOM     50  O5  BGC C   4      24.827  49.128  41.1030  0.00  0.00     0.000 O
ATOM     51   O  BGC C   4      21.882  47.558  43.2770  0.00  0.00     0.000 O
ATOM     53  HD  BGC C   4      21.341  47.969  43.8130  0.00  0.00     0.000 HD
ATOM     53   O  BGC C   4      21.714  50.316  43.4170  0.00  0.00     0.000 O
ATOM     55  HD  BGC C   4      21.173  50.728  43.9530  0.00  0.00     0.000 HD
ATOM     55   C  BGC C   4      25.173  51.170  40.0930  0.00  0.00     0.000 C
ATOM     56   O  BGC C   4      26.015  51.735  41.1040  0.00  0.00     0.000 O
ATOM     58  HD  BGC C   4      25.474  52.147  41.6410  0.00  0.00     0.000 HD
BRANCH 45 58
ATOM     58  O4  BGC C   5      24.912  47.106  42.0900  0.00  0.00     0.000 O
BRANCH 58 62
ATOM     59  C1  BGC C   5      23.477  44.406  42.1780  0.00  0.00     0.000 C
ATOM     60  C2  BGC C   5      24.849  44.153  42.5620  0.00  0.00     0.000 C
ATOM     61  C3  BGC C   5      25.873  44.856  41.6760  0.00  0.00     0.000 C
ATOM     62  C4  BGC C   5      25.241  46.110  41.0900  0.00  0.00     0.000 C
ATOM     63  C5  BGC C   5      23.861  45.731  40.6040  0.00  0.00     0.000 C
ATOM     64  O5  BGC C   5      23.302  44.497  41.0500  0.00  0.00     0.000 O
ATOM     65   O  BGC C   5      24.604  44.814  38.4960  0.00  0.00     0.000 O
ATOM     67  HD  BGC C   5      24.305  45.507  38.9200  0.00  0.00     0.000 HD
ATOM     67   O  BGC C   5      24.604  44.814  38.4960  0.00  0.00     0.000 O
ATOM     69  HD  BGC C   5      24.305  45.507  38.9200  0.00  0.00     0.000 HD
ENDBRANCH 58 62
ENDBRANCH 45 58
ENDBRANCH 44 48
ENDBRANCH 31 44
ENDBRANCH 30 34
ENDBRANCH 17 30
ENDBRANCH 16 20
ENDBRANCH 1 16
TORSDOF 8
ENDMDL
