MODEL 1
REMARK VINA RESULT:      -5.2      0.000      0.000
ROOT
ATOM      1  C1  BGC B   1       3.728   2.965   3.2530  0.00  0.00     0.000 C
ATOM      2  C2  BGC B   1       2.966   2.526   2.0030  0.00  0.00     0.000 C
ATOM      3  C3  BGC B   1       1.493   2.355   2.3240  0.00  0.00     0.000 C
ATOM      4  C4  BGC B   1       1.307   1.448   3.5340  0.00  0.00     0.000 C
ATOM      5  C5  BGC B   1       2.108   2.021   4.6940  0.00  0.00     0.000 C
ATOM      6  O5  BGC B   1       3.492   2.032   4.2970  0.00  0.00     0.000 O
ATOM      7   O  BGC B   1       3.114   3.527   0.9820  0.00  0.00     0.000 O
ATOM      9  HD  BGC B   1       2.481   3.601   0.3960  0.00  0.00     0.000 HD
ATOM      9   O  BGC B   1       0.829   1.818   1.1770  0.00  0.00     0.000 O
ATOM     11  HD  BGC B   1       0.196   1.891   0.5910  0.00  0.00     0.000 HD
ATOM     11   O  BGC B   1      -0.060   1.390   3.8760  0.00  0.00     0.000 O
ATOM     13  HD  BGC B   1      -0.693   1.464   3.2900  0.00  0.00     0.000 HD
ATOM     13   C  BGC B   1       1.985   1.248   5.9990  0.00  0.00     0.000 C
ATOM     14   O  BGC B   1       2.326  -0.127   5.8490  0.00  0.00     0.000 O
ATOM     16  HD  BGC B   1       1.693  -0.053   5.2620  0.00  0.00     0.000 HD
ENDROOT
BRANCH 1 16
ATOM     16  O4  BGC B   2       5.113   2.833   2.9410  0.00  0.00     0.000 O
BRANCH 16 20
ATOM     17  C1  BGC B   2       8.764   4.298   3.9720  0.00  0.00     0.000 C
ATOM     18  C2  BGC B   2       8.180   3.335   4.9950  0.00  0.00     0.000 C
ATOM     19  C3  BGC B   2       7.018   2.586   4.3480  0.00  0.00     0.000 C
ATOM     20  C4  BGC B   2       6.015   3.563   3.7690  0.00  0.00     0.000 C
ATOM     21  C5  BGC B   2       6.678   4.629   2.8960  0.00  0.00     0.000 C
ATOM     22  O5  BGC B   2       7.730   5.246   3.6490  0.00  0.00     0.000 O
ATOM     23   O  BGC B   2       9.179   2.387   5.4080  0.00  0.00     0.000 O
ATOM     25  HD  BGC B   2       8.503   2.345   4.8680  0.00  0.00     0.000 HD
ATOM     25   O  BGC B   2       6.389   1.745   5.3090  0.00  0.00     0.000 O
ATOM     27  HD  BGC B   2       5.712   1.703   4.7690  0.00  0.00     0.000 HD
ATOM     27   C  BGC B   2       5.713   5.725   2.4620  0.00  0.00     0.000 C
ATOM     28   O  BGC B   2       5.071   6.372   3.5490  0.00  0.00     0.000 O
ATOM     30  HD  BGC B   2       4.395   6.330   3.0090  0.00  0.00     0.000 HD
BRANCH 17 30
ATOM     30  O4  BGC B   3       9.759   5.050   4.6390  0.00  0.00     0.000 O
BRANCH 30 34
ATOM     31  C1  BGC B   3      13.517   6.553   3.8980  0.00  0.00     0.000 C
ATOM     32  C2  BGC B   3      12.371   7.450   3.4300  0.00  0.00     0.000 C
ATOM     33  C3  BGC B   3      11.087   6.996   4.1010  0.00  0.00     0.000 C
ATOM     34  C4  BGC B   3      10.841   5.514   3.8240  0.00  0.00     0.000 C
ATOM     35  C5  BGC B   3      12.071   4.698   4.1780  0.00  0.00     0.000 C
ATOM     36  O5  BGC B   3      13.209   5.229   3.4900  0.00  0.00     0.000 O
ATOM     37   O  BGC B   3      12.633   8.796   3.8190  0.00  0.00     0.000 O
ATOM     39  HD  BGC B   3      11.960   9.049   3.3350  0.00  0.00     0.000 HD
ATOM     39   O  BGC B   3      10.016   7.784   3.6030  0.00  0.00     0.000 O
ATOM     41  HD  BGC B   3       9.344   8.037   3.1190  0.00  0.00     0.000 HD
ATOM     41   C  BGC B   3      11.948   3.215   3.8470  0.00  0.00     0.000 C
ATOM     42   O  BGC B   3      11.678   3.044   2.4760  0.00  0.00     0.000 O
ATOM     44  HD  BGC B   3      11.005   3.297   1.9920  0.00  0.00     0.000 HD
BRANCH 31 44
ATOM     44  O4  BGC B   4      14.663   6.935   3.1810  0.00  0.00     0.000 O
BRANCH 44 48
ATOM     45  C1  BGC B   4      18.737   7.083   3.6150  0.00  0.00     0.000 C
ATOM     46  C2  BGC B   4      18.087   5.804   4.1230  0.00  0.00     0.000 C
ATOM     47  C3  BGC B   4      16.689   5.694   3.5660  0.00  0.00     0.000 C
ATOM     48  C4  BGC B   4      15.889   6.961   3.8830  0.00  0.00     0.000 C
ATOM     49  C5  BGC B   4      16.657   8.210   3.4320  0.00  0.00     0.000 C
ATOM     50  O5  BGC B   4      17.965   8.214   4.0220  0.00  0.00     0.000 O
ATOM     51   O  BGC B   4      18.853   4.660   3.7000  0.00  0.00     0.000 O
ATOM     53  HD  BGC B   4      18.207   4.612   3.1260  0.00  0.00     0.000 HD
ATOM     53   O  BGC B   4      16.045   4.555   4.1560  0.00  0.00     0.000 O
ATOM     55  HD  BGC B   4      15.398   4.507   3.5820  0.00  0.00     0.000 HD
ATOM     55   C  BGC B   4      15.995   9.523   3.8080  0.00  0.00     0.000 C
ATOM     56   O  BGC B   4      15.784   9.515   5.2210  0.00  0.00     0.000 O
ATOM     58  HD  BGC B   4      15.138   9.467   4.6470  0.00  0.00     0.000 HD
BRANCH 45 58
ATOM     58  O4  BGC B   5      19.933   7.244   4.3770  0.00  0.00     0.000 O
BRANCH 58 62
ATOM     59  C1  BGC B   5      23.924   8.285   4.0160  0.00  0.00     0.000 C
ATOM     60  C2  BGC B   5      22.934   9.394   3.7210  0.00  0.00     0.000 C
ATOM     61  C3  BGC B   5      21.565   9.046   4.2740  0.00  0.00     0.000 C
ATOM     62  C4  BGC B   5      21.128   7.693   3.7350  0.00  0.00     0.000 C
ATOM     63  C5  BGC B   5      22.208   6.633   3.9950  0.00  0.00     0.000 C
ATOM     64  O5  BGC B   5      23.435   7.077   3.4250  0.00  0.00     0.000 O
ATOM     65   O  BGC B   5      21.695   5.521   1.9960  0.00  0.00     0.000 O
ATOM     67  HD  BGC B   5      21.057   5.431   1.4160  0.00  0.00     0.000 HD
ATOM     67   O  BGC B   5      21.695   5.521   1.9960  0.00  0.00     0.000 O
ATOM     69  HD  BGC B   5      21.057   5.431   1.4160  0.00  0.00     0.000 HD
ENDBRANCH 58 62
ENDBRANCH 45 58
ENDBRANCH 44 48
ENDBRANCH 31 44
ENDBRANCH 30 34
ENDBRANCH 17 30
ENDBRANCH 16 20
ENDBRANCH 1 16
TORSDOF 8
ENDMDL
MODEL 2
REMARK VINA RESULT:      -4.4      3.190      3.815
ROOT
ATOM      1  C1  BGC B   1       4.213   3.543   3.3130  0.00  0.00     0.000 C
ATOM      2  C2  BGC B   1       3.620   3.395   1.9130  0.00  0.00     0.000 C
ATOM      3  C3  BGC B   1       2.181   3.874   1.9030  0.00  0.00     0.000 C
ATOM      4  C4  BGC B   1       1.380   3.198   3.0080  0.00  0.00     0.000 C
ATOM      5  C5  BGC B   1       2.083   3.446   4.3350  0.00  0.00     0.000 C
ATOM      6  O5  BGC B   1       3.392   2.854   4.2450  0.00  0.00     0.000 O
ATOM      7   O  BGC B   1       4.388   4.183   0.9880  0.00  0.00     0.000 O
ATOM      9  HD  BGC B   1       3.984   4.482   0.2820  0.00  0.00     0.000 HD
ATOM      9   O  BGC B   1       1.611   3.601   0.6200  0.00  0.00     0.000 O
ATOM     11  HD  BGC B   1       1.208   3.901  -0.0850  0.00  0.00     0.000 HD
ATOM     11   O  BGC B   1       0.077   3.737   3.0460  0.00  0.00     0.000 O
ATOM     13  HD  BGC B   1      -0.327   4.036   2.3410  0.00  0.00     0.000 HD
ATOM     13   C  BGC B   1       1.374   2.870   5.5520  0.00  0.00     0.000 C
ATOM     14   O  BGC B   1       1.127   1.473   5.4240  0.00  0.00     0.000 O
ATOM     16  HD  BGC B   1       0.724   1.772   4.7190  0.00  0.00     0.000 HD
ENDROOT
BRANCH 1 16
ATOM     16  O4  BGC B   2       5.446   2.826   3.3010  0.00  0.00     0.000 O
BRANCH 16 20
ATOM     17  C1  BGC B   2       9.181   2.983   4.9010  0.00  0.00     0.000 C
ATOM     18  C2  BGC B   2       8.167   2.271   5.7840  0.00  0.00     0.000 C
ATOM     19  C3  BGC B   2       6.931   1.955   4.9450  0.00  0.00     0.000 C
ATOM     20  C4  BGC B   2       6.406   3.211   4.2820  0.00  0.00     0.000 C
ATOM     21  C5  BGC B   2       7.505   3.994   3.5630  0.00  0.00     0.000 C
ATOM     22  O5  BGC B   2       8.579   4.223   4.4850  0.00  0.00     0.000 O
ATOM     23   O  BGC B   2       8.724   1.043   6.2830  0.00  0.00     0.000 O
ATOM     25  HD  BGC B   2       8.159   1.230   5.6540  0.00  0.00     0.000 HD
ATOM     25   O  BGC B   2       5.925   1.373   5.7660  0.00  0.00     0.000 O
ATOM     27  HD  BGC B   2       5.361   1.559   5.1370  0.00  0.00     0.000 HD
ATOM     27   C  BGC B   2       7.033   5.350   3.0550  0.00  0.00     0.000 C
ATOM     28   O  BGC B   2       6.488   6.174   4.0720  0.00  0.00     0.000 O
ATOM     30  HD  BGC B   2       5.924   6.361   3.4430  0.00  0.00     0.000 HD
BRANCH 17 30
ATOM     30  O4  BGC B   3      10.260   3.359   5.7370  0.00  0.00     0.000 O
BRANCH 30 34
ATOM     31  C1  BGC B   3      14.362   3.648   5.6270  0.00  0.00     0.000 C
ATOM     32  C2  BGC B   3      13.628   4.753   4.8690  0.00  0.00     0.000 C
ATOM     33  C3  BGC B   3      12.174   4.769   5.3090  0.00  0.00     0.000 C
ATOM     34  C4  BGC B   3      11.548   3.388   5.1140  0.00  0.00     0.000 C
ATOM     35  C5  BGC B   3      12.406   2.322   5.7720  0.00  0.00     0.000 C
ATOM     36  O5  BGC B   3      13.746   2.418   5.2800  0.00  0.00     0.000 O
ATOM     37   O  BGC B   3      14.209   6.016   5.1860  0.00  0.00     0.000 O
ATOM     39  HD  BGC B   3      13.732   6.375   4.5590  0.00  0.00     0.000 HD
ATOM     39   O  BGC B   3      11.483   5.745   4.5440  0.00  0.00     0.000 O
ATOM     41  HD  BGC B   3      11.006   6.104   3.9170  0.00  0.00     0.000 HD
ATOM     41   C  BGC B   3      11.904   0.899   5.5500  0.00  0.00     0.000 C
ATOM     42   O  BGC B   3      11.824   0.622   4.1720  0.00  0.00     0.000 O
ATOM     44  HD  BGC B   3      11.346   0.981   3.5450  0.00  0.00     0.000 HD
BRANCH 31 44
ATOM     44  O4  BGC B   4      15.671   3.596   5.1210  0.00  0.00     0.000 O
BRANCH 44 48
ATOM     45  C1  BGC B   4      19.427   2.296   6.1240  0.00  0.00     0.000 C
ATOM     46  C2  BGC B   4      18.406   1.188   5.9070  0.00  0.00     0.000 C
ATOM     47  C3  BGC B   4      17.208   1.745   5.1770  0.00  0.00     0.000 C
ATOM     48  C4  BGC B   4      16.651   2.964   5.9190  0.00  0.00     0.000 C
ATOM     49  C5  BGC B   4      17.763   3.985   6.1870  0.00  0.00     0.000 C
ATOM     50  O5  BGC B   4      18.844   3.352   6.8880  0.00  0.00     0.000 O
ATOM     51   O  BGC B   4      18.985   0.129   5.1230  0.00  0.00     0.000 O
ATOM     53  HD  BGC B   4      18.513   0.514   4.5070  0.00  0.00     0.000 HD
ATOM     53   O  BGC B   4      16.202   0.725   5.0960  0.00  0.00     0.000 O
ATOM     55  HD  BGC B   4      15.730   1.110   4.4800  0.00  0.00     0.000 HD
ATOM     55   C  BGC B   4      17.331   5.178   7.0220  0.00  0.00     0.000 C
ATOM     56   O  BGC B   4      16.768   4.678   8.2360  0.00  0.00     0.000 O
ATOM     58  HD  BGC B   4      16.296   5.063   7.6200  0.00  0.00     0.000 HD
BRANCH 45 58
ATOM     58  O4  BGC B   5      20.393   1.765   7.0310  0.00  0.00     0.000 O
BRANCH 58 62
ATOM     59  C1  BGC B   5      24.286   2.375   8.3030  0.00  0.00     0.000 C
ATOM     60  C2  BGC B   5      23.238   3.233   8.9830  0.00  0.00     0.000 C
ATOM     61  C3  BGC B   5      21.853   2.656   8.7620  0.00  0.00     0.000 C
ATOM     62  C4  BGC B   5      21.608   2.479   7.2720  0.00  0.00     0.000 C
ATOM     63  C5  BGC B   5      22.744   1.670   6.6300  0.00  0.00     0.000 C
ATOM     64  O5  BGC B   5      23.982   2.316   6.9060  0.00  0.00     0.000 O
ATOM     65   O  BGC B   5      22.569   2.882   4.6310  0.00  0.00     0.000 O
ATOM     67  HD  BGC B   5      22.013   3.374   4.1840  0.00  0.00     0.000 HD
ATOM     67   O  BGC B   5      22.569   2.882   4.6310  0.00  0.00     0.000 O
ATOM     69  HD  BGC B   5      22.013   3.374   4.1840  0.00  0.00     0.000 HD
ENDBRANCH 58 62
ENDBRANCH 45 58
ENDBRANCH 44 48
ENDBRANCH 31 44
ENDBRANCH 30 34
ENDBRANCH 17 30
ENDBRANCH 16 20
ENDBRANCH 1 16
TORSDOF 8
ENDMDL
MODEL 3
REMARK VINA RESULT:      -4.3      4.077      6.406
ROOT
ATOM      1  C1  BGC B   1       4.025   2.706   3.6620  0.00  0.00     0.000 C
ATOM      2  C2  BGC B   1       3.344   2.619   5.0270  0.00  0.00     0.000 C
ATOM      3  C3  BGC B   1       2.574   1.317   5.1420  0.00  0.00     0.000 C
ATOM      4  C4  BGC B   1       1.640   1.136   3.9530  0.00  0.00     0.000 C
ATOM      5  C5  BGC B   1       2.461   1.232   2.6750  0.00  0.00     0.000 C
ATOM      6  O5  BGC B   1       3.050   2.545   2.6410  0.00  0.00     0.000 O
ATOM      7   O  BGC B   1       4.343   2.671   6.0580  0.00  0.00     0.000 O
ATOM      9  HD  BGC B   1       4.165   2.281   6.8110  0.00  0.00     0.000 HD
ATOM      9   O  BGC B   1       1.841   1.321   6.3710  0.00  0.00     0.000 O
ATOM     11  HD  BGC B   1       1.663   0.931   7.1230  0.00  0.00     0.000 HD
ATOM     11   O  BGC B   1       1.015  -0.127   4.0290  0.00  0.00     0.000 O
ATOM     13  HD  BGC B   1       0.838  -0.517   4.7820  0.00  0.00     0.000 HD
ATOM     13   C  BGC B   1       1.672   1.021   1.3910  0.00  0.00     0.000 C
ATOM     14   O  BGC B   1       0.564   1.909   1.2840  0.00  0.00     0.000 O
ATOM     16  HD  BGC B   1       0.386   1.519   2.0370  0.00  0.00     0.000 HD
ENDROOT
BRANCH 1 16
ATOM     16  O4  BGC B   2       4.482   4.051   3.5310  0.00  0.00     0.000 O
BRANCH 16 20
ATOM     17  C1  BGC B   2       7.487   6.264   1.9160  0.00  0.00     0.000 C
ATOM     18  C2  BGC B   2       6.560   5.646   0.8810  0.00  0.00     0.000 C
ATOM     19  C3  BGC B   2       5.296   5.163   1.5890  0.00  0.00     0.000 C
ATOM     20  C4  BGC B   2       5.651   4.242   2.7380  0.00  0.00     0.000 C
ATOM     21  C5  BGC B   2       6.730   4.832   3.6470  0.00  0.00     0.000 C
ATOM     22  O5  BGC B   2       7.847   5.218   2.8370  0.00  0.00     0.000 O
ATOM     23   O  BGC B   2       6.200   6.625  -0.1080  0.00  0.00     0.000 O
ATOM     25  HD  BGC B   2       5.788   6.287   0.5750  0.00  0.00     0.000 HD
ATOM     25   O  BGC B   2       4.448   4.493   0.6640  0.00  0.00     0.000 O
ATOM     27  HD  BGC B   2       4.036   4.156   1.3470  0.00  0.00     0.000 HD
ATOM     27   C  BGC B   2       7.232   3.844   4.6920  0.00  0.00     0.000 C
ATOM     28   O  BGC B   2       7.728   2.639   4.1330  0.00  0.00     0.000 O
ATOM     30  HD  BGC B   2       7.316   2.302   4.8160  0.00  0.00     0.000 HD
BRANCH 17 30
ATOM     30  O4  BGC B   3       8.688   6.595   1.2440  0.00  0.00     0.000 O
BRANCH 30 34
ATOM     31  C1  BGC B   3      11.813   9.240   1.6480  0.00  0.00     0.000 C
ATOM     32  C2  BGC B   3      11.997   7.921   2.3990  0.00  0.00     0.000 C
ATOM     33  C3  BGC B   3      11.003   6.907   1.8600  0.00  0.00     0.000 C
ATOM     34  C4  BGC B   3       9.581   7.458   1.9550  0.00  0.00     0.000 C
ATOM     35  C5  BGC B   3       9.504   8.833   1.3150  0.00  0.00     0.000 C
ATOM     36  O5  BGC B   3      10.491   9.688   1.9020  0.00  0.00     0.000 O
ATOM     37   O  BGC B   3      13.315   7.426   2.1740  0.00  0.00     0.000 O
ATOM     39  HD  BGC B   3      13.174   6.824   2.7810  0.00  0.00     0.000 HD
ATOM     39   O  BGC B   3      11.128   5.711   2.6150  0.00  0.00     0.000 O
ATOM     41  HD  BGC B   3      10.987   5.109   3.2210  0.00  0.00     0.000 HD
ATOM     41   C  BGC B   3       8.139   9.501   1.4440  0.00  0.00     0.000 C
ATOM     42   O  BGC B   3       7.783   9.618   2.8010  0.00  0.00     0.000 O
ATOM     44  HD  BGC B   3       7.642   9.016   3.4070  0.00  0.00     0.000 HD
BRANCH 31 44
ATOM     44  O4  BGC B   4      12.674  10.179   2.2410  0.00  0.00     0.000 O
BRANCH 44 48
ATOM     45  C1  BGC B   4      14.812  13.547   1.2980  0.00  0.00     0.000 C
ATOM     46  C2  BGC B   4      13.364  13.557   0.8270  0.00  0.00     0.000 C
ATOM     47  C3  BGC B   4      12.591  12.484   1.5520  0.00  0.00     0.000 C
ATOM     48  C4  BGC B   4      13.285  11.127   1.3900  0.00  0.00     0.000 C
ATOM     49  C5  BGC B   4      14.762  11.226   1.7890  0.00  0.00     0.000 C
ATOM     50  O5  BGC B   4      15.398  12.270   1.0380  0.00  0.00     0.000 O
ATOM     51   O  BGC B   4      12.765  14.837   1.1030  0.00  0.00     0.000 O
ATOM     53  HD  BGC B   4      12.419  14.380   1.7530  0.00  0.00     0.000 HD
ATOM     53   O  BGC B   4      11.266  12.419   1.0050  0.00  0.00     0.000 O
ATOM     55  HD  BGC B   4      10.921  11.962   1.6550  0.00  0.00     0.000 HD
ATOM     55   C  BGC B   4      15.562   9.958   1.5520  0.00  0.00     0.000 C
ATOM     56   O  BGC B   4      15.409   9.597   0.1780  0.00  0.00     0.000 O
ATOM     58  HD  BGC B   4      15.064   9.140   0.8280  0.00  0.00     0.000 HD
BRANCH 45 58
ATOM     58  O4  BGC B   5      15.523  14.395   0.3970  0.00  0.00     0.000 O
BRANCH 58 62
ATOM     59  C1  BGC B   5      18.388  17.384   0.4510  0.00  0.00     0.000 C
ATOM     60  C2  BGC B   5      18.922  15.974   0.2930  0.00  0.00     0.000 C
ATOM     61  C3  BGC B   5      17.813  15.029  -0.1270  0.00  0.00     0.000 C
ATOM     62  C4  BGC B   5      16.660  15.127   0.8590  0.00  0.00     0.000 C
ATOM     63  C5  BGC B   5      16.220  16.588   1.0330  0.00  0.00     0.000 C
ATOM     64  O5  BGC B   5      17.346  17.363   1.4310  0.00  0.00     0.000 O
ATOM     65   O  BGC B   5      15.684  16.229   3.2870  0.00  0.00     0.000 O
ATOM     67  HD  BGC B   5      15.487  15.595   3.8440  0.00  0.00     0.000 HD
ATOM     67   O  BGC B   5      15.684  16.229   3.2870  0.00  0.00     0.000 O
ATOM     69  HD  BGC B   5      15.487  15.595   3.8440  0.00  0.00     0.000 HD
ENDBRANCH 58 62
ENDBRANCH 45 58
ENDBRANCH 44 48
ENDBRANCH 31 44
ENDBRANCH 30 34
ENDBRANCH 17 30
ENDBRANCH 16 20
ENDBRANCH 1 16
TORSDOF 8
ENDMDL
MODEL 4
REMARK VINA RESULT:      -4.3      3.813      5.779
ROOT
ATOM      1  C1  BGC B   1       5.631   2.764   4.2180  0.00  0.00     0.000 C
ATOM      2  C2  BGC B   1       4.535   2.542   5.2590  0.00  0.00     0.000 C
ATOM      3  C3  BGC B   1       3.198   2.338   4.5730  0.00  0.00     0.000 C
ATOM      4  C4  BGC B   1       2.920   3.466   3.5880  0.00  0.00     0.000 C
ATOM      5  C5  BGC B   1       4.084   3.553   2.6120  0.00  0.00     0.000 C
ATOM      6  O5  BGC B   1       5.266   3.851   3.3780  0.00  0.00     0.000 O
ATOM      7   O  BGC B   1       4.850   1.375   6.0370  0.00  0.00     0.000 O
ATOM      9  HD  BGC B   1       4.192   0.933   6.3850  0.00  0.00     0.000 HD
ATOM      9   O  BGC B   1       2.173   2.266   5.5680  0.00  0.00     0.000 O
ATOM     11  HD  BGC B   1       1.515   1.824   5.9170  0.00  0.00     0.000 HD
ATOM     11   O  BGC B   1       1.724   3.200   2.8870  0.00  0.00     0.000 O
ATOM     13  HD  BGC B   1       1.066   2.758   3.2360  0.00  0.00     0.000 HD
ATOM     13   C  BGC B   1       3.932   4.610   1.5280  0.00  0.00     0.000 C
ATOM     14   O  BGC B   1       3.694   5.907   2.0640  0.00  0.00     0.000 O
ATOM     16  HD  BGC B   1       3.035   5.466   2.4130  0.00  0.00     0.000 HD
ENDROOT
BRANCH 1 16
ATOM     16  O4  BGC B   2       6.776   3.217   4.9360  0.00  0.00     0.000 O
BRANCH 16 20
ATOM     17  C1  BGC B   2      10.841   3.154   4.8360  0.00  0.00     0.000 C
ATOM     18  C2  BGC B   2      10.217   4.044   3.7710  0.00  0.00     0.000 C
ATOM     19  C3  BGC B   2       8.751   4.275   4.1310  0.00  0.00     0.000 C
ATOM     20  C4  BGC B   2       8.040   2.953   4.3330  0.00  0.00     0.000 C
ATOM     21  C5  BGC B   2       8.807   2.016   5.2680  0.00  0.00     0.000 C
ATOM     22  O5  BGC B   2      10.151   1.891   4.7860  0.00  0.00     0.000 O
ATOM     23   O  BGC B   2      10.896   5.310   3.7250  0.00  0.00     0.000 O
ATOM     25  HD  BGC B   2      10.140   5.049   4.0590  0.00  0.00     0.000 HD
ATOM     25   O  BGC B   2       8.113   5.025   3.1040  0.00  0.00     0.000 O
ATOM     27  HD  BGC B   2       7.358   4.765   3.4380  0.00  0.00     0.000 HD
ATOM     27   C  BGC B   2       8.206   0.618   5.3320  0.00  0.00     0.000 C
ATOM     28   O  BGC B   2       8.097  -0.006   4.0630  0.00  0.00     0.000 O
ATOM     30  HD  BGC B   2       7.341  -0.267   4.3980  0.00  0.00     0.000 HD
BRANCH 17 30
ATOM     30  O4  BGC B   3      12.161   2.871   4.4100  0.00  0.00     0.000 O
BRANCH 30 34
ATOM     31  C1  BGC B   3      15.925   2.311   5.9730  0.00  0.00     0.000 C
ATOM     32  C2  BGC B   3      14.851   1.400   6.5640  0.00  0.00     0.000 C
ATOM     33  C3  BGC B   3      13.636   1.416   5.6530  0.00  0.00     0.000 C
ATOM     34  C4  BGC B   3      13.155   2.851   5.4390  0.00  0.00     0.000 C
ATOM     35  C5  BGC B   3      14.307   3.733   4.9890  0.00  0.00     0.000 C
ATOM     36  O5  BGC B   3      15.385   3.622   5.9230  0.00  0.00     0.000 O
ATOM     37   O  BGC B   3      15.345   0.064   6.6330  0.00  0.00     0.000 O
ATOM     39  HD  BGC B   3      14.646  -0.153   7.0960  0.00  0.00     0.000 HD
ATOM     39   O  BGC B   3      12.616   0.629   6.2490  0.00  0.00     0.000 O
ATOM     41  HD  BGC B   3      11.917   0.412   6.7120  0.00  0.00     0.000 HD
ATOM     41   C  BGC B   3      13.938   5.204   4.8390  0.00  0.00     0.000 C
ATOM     42   O  BGC B   3      13.440   5.707   6.0560  0.00  0.00     0.000 O
ATOM     44  HD  BGC B   3      12.741   5.489   6.5180  0.00  0.00     0.000 HD
BRANCH 31 44
ATOM     44  O4  BGC B   4      16.988   2.351   6.8900  0.00  0.00     0.000 O
BRANCH 44 48
ATOM     45  C1  BGC B   4      21.083   2.496   7.0220  0.00  0.00     0.000 C
ATOM     46  C2  BGC B   4      20.419   3.739   6.4460  0.00  0.00     0.000 C
ATOM     47  C3  BGC B   4      18.953   3.738   6.8060  0.00  0.00     0.000 C
ATOM     48  C4  BGC B   4      18.298   2.426   6.3650  0.00  0.00     0.000 C
ATOM     49  C5  BGC B   4      19.084   1.224   6.9010  0.00  0.00     0.000 C
ATOM     50  O5  BGC B   4      20.458   1.324   6.4980  0.00  0.00     0.000 O
ATOM     51   O  BGC B   4      21.035   4.923   6.9860  0.00  0.00     0.000 O
ATOM     53  HD  BGC B   4      20.314   4.913   7.4660  0.00  0.00     0.000 HD
ATOM     53   O  BGC B   4      18.316   4.843   6.1480  0.00  0.00     0.000 O
ATOM     55  HD  BGC B   4      17.595   4.833   6.6270  0.00  0.00     0.000 HD
ATOM     55   C  BGC B   4      18.577  -0.124   6.4200  0.00  0.00     0.000 C
ATOM     56   O  BGC B   4      18.561  -0.098   4.9910  0.00  0.00     0.000 O
ATOM     58  HD  BGC B   4      17.840  -0.108   5.4710  0.00  0.00     0.000 HD
BRANCH 45 58
ATOM     58  O4  BGC B   5      22.380   2.436   6.4310  0.00  0.00     0.000 O
BRANCH 58 62
ATOM     59  C1  BGC B   5      25.862   0.350   7.2520  0.00  0.00     0.000 C
ATOM     60  C2  BGC B   5      24.666  -0.019   8.1070  0.00  0.00     0.000 C
ATOM     61  C3  BGC B   5      23.382   0.476   7.4680  0.00  0.00     0.000 C
ATOM     62  C4  BGC B   5      23.490   1.969   7.2010  0.00  0.00     0.000 C
ATOM     63  C5  BGC B   5      24.763   2.284   6.4010  0.00  0.00     0.000 C
ATOM     64  O5  BGC B   5      25.889   1.773   7.1070  0.00  0.00     0.000 O
ATOM     65   O  BGC B   5      25.023   4.341   7.4960  0.00  0.00     0.000 O
ATOM     67  HD  BGC B   5      24.573   4.931   7.9430  0.00  0.00     0.000 HD
ATOM     67   O  BGC B   5      25.023   4.341   7.4960  0.00  0.00     0.000 O
ATOM     69  HD  BGC B   5      24.573   4.931   7.9430  0.00  0.00     0.000 HD
ENDBRANCH 58 62
ENDBRANCH 45 58
ENDBRANCH 44 48
ENDBRANCH 31 44
ENDBRANCH 30 34
ENDBRANCH 17 30
ENDBRANCH 16 20
ENDBRANCH 1 16
TORSDOF 8
ENDMDL
MODEL 5
REMARK VINA RESULT:      -4.0      3.139     15.102
ROOT
ATOM      1  C1  BGC B   1      20.128   4.511   4.6470  0.00  0.00     0.000 C
ATOM      2  C2  BGC B   1      20.637   5.930   4.8970  0.00  0.00     0.000 C
ATOM      3  C3  BGC B   1      21.961   6.141   4.1890  0.00  0.00     0.000 C
ATOM      4  C4  BGC B   1      22.948   5.039   4.5510  0.00  0.00     0.000 C
ATOM      5  C5  BGC B   1      22.309   3.695   4.2330  0.00  0.00     0.000 C
ATOM      6  O5  BGC B   1      21.125   3.579   5.0440  0.00  0.00     0.000 O
ATOM      7   O  BGC B   1      19.675   6.872   4.3950  0.00  0.00     0.000 O
ATOM      9  HD  BGC B   1      19.967   7.646   4.1380  0.00  0.00     0.000 HD
ATOM      9   O  BGC B   1      22.477   7.426   4.5480  0.00  0.00     0.000 O
ATOM     11  HD  BGC B   1      22.769   8.200   4.2920  0.00  0.00     0.000 HD
ATOM     11   O  BGC B   1      24.132   5.198   3.8010  0.00  0.00     0.000 O
ATOM     13  HD  BGC B   1      24.424   5.972   3.5450  0.00  0.00     0.000 HD
ATOM     13   C  BGC B   1      23.196   2.487   4.4970  0.00  0.00     0.000 C
ATOM     14   O  BGC B   1      23.681   2.452   5.8360  0.00  0.00     0.000 O
ATOM     16  HD  BGC B   1      23.972   3.226   5.5790  0.00  0.00     0.000 HD
ENDROOT
BRANCH 1 16
ATOM     16  O4  BGC B   2      19.048   4.309   5.5560  0.00  0.00     0.000 O
BRANCH 16 20
ATOM     17  C1  BGC B   2      15.407   2.523   5.8590  0.00  0.00     0.000 C
ATOM     18  C2  BGC B   2      16.549   1.546   5.6220  0.00  0.00     0.000 C
ATOM     19  C3  BGC B   2      17.868   2.268   5.8900  0.00  0.00     0.000 C
ATOM     20  C4  BGC B   2      17.953   3.538   5.0680  0.00  0.00     0.000 C
ATOM     21  C5  BGC B   2      16.695   4.398   5.1930  0.00  0.00     0.000 C
ATOM     22  O5  BGC B   2      15.554   3.584   4.8960  0.00  0.00     0.000 O
ATOM     23   O  BGC B   2      16.436   0.427   6.5170  0.00  0.00     0.000 O
ATOM     25  HD  BGC B   2      16.936   1.134   6.5060  0.00  0.00     0.000 HD
ATOM     25   O  BGC B   2      18.961   1.409   5.5850  0.00  0.00     0.000 O
ATOM     27  HD  BGC B   2      19.461   2.116   5.5740  0.00  0.00     0.000 HD
ATOM     27   C  BGC B   2      16.685   5.579   4.2300  0.00  0.00     0.000 C
ATOM     28   O  BGC B   2      16.834   5.198   2.8720  0.00  0.00     0.000 O
ATOM     30  HD  BGC B   2      17.335   5.905   2.8610  0.00  0.00     0.000 HD
BRANCH 17 30
ATOM     30  O4  BGC B   3      14.214   1.855   5.4930  0.00  0.00     0.000 O
BRANCH 30 34
ATOM     31  C1  BGC B   3      10.147   2.157   6.0350  0.00  0.00     0.000 C
ATOM     32  C2  BGC B   3      10.741   3.201   5.0910  0.00  0.00     0.000 C
ATOM     33  C3  BGC B   3      12.127   2.749   4.6680  0.00  0.00     0.000 C
ATOM     34  C4  BGC B   3      12.997   2.489   5.8970  0.00  0.00     0.000 C
ATOM     35  C5  BGC B   3      12.284   1.556   6.8600  0.00  0.00     0.000 C
ATOM     36  O5  BGC B   3      10.993   2.089   7.1730  0.00  0.00     0.000 O
ATOM     37   O  BGC B   3       9.925   3.306   3.9260  0.00  0.00     0.000 O
ATOM     39  HD  BGC B   3      10.385   4.001   3.6870  0.00  0.00     0.000 HD
ATOM     39   O  BGC B   3      12.701   3.761   3.8530  0.00  0.00     0.000 O
ATOM     41  HD  BGC B   3      13.160   4.455   3.6150  0.00  0.00     0.000 HD
ATOM     41   C  BGC B   3      13.041   1.313   8.1610  0.00  0.00     0.000 C
ATOM     42   O  BGC B   3      13.282   2.534   8.8180  0.00  0.00     0.000 O
ATOM     44  HD  BGC B   3      13.742   3.229   8.5800  0.00  0.00     0.000 HD
BRANCH 31 44
ATOM     44  O4  BGC B   4       8.914   2.656   6.4840  0.00  0.00     0.000 O
BRANCH 44 48
ATOM     45  C1  BGC B   4       5.161   1.395   7.5480  0.00  0.00     0.000 C
ATOM     46  C2  BGC B   4       6.289   0.823   8.3930  0.00  0.00     0.000 C
ATOM     47  C3  BGC B   4       7.541   1.637   8.1800  0.00  0.00     0.000 C
ATOM     48  C4  BGC B   4       7.870   1.724   6.6860  0.00  0.00     0.000 C
ATOM     49  C5  BGC B   4       6.652   2.212   5.8930  0.00  0.00     0.000 C
ATOM     50  O5  BGC B   4       5.525   1.366   6.1670  0.00  0.00     0.000 O
ATOM     51   O  BGC B   4       5.932   0.867   9.7880  0.00  0.00     0.000 O
ATOM     53  HD  BGC B   4       6.465   1.548   9.7610  0.00  0.00     0.000 HD
ATOM     53   O  BGC B   4       8.626   1.010   8.8790  0.00  0.00     0.000 O
ATOM     55  HD  BGC B   4       9.159   1.691   8.8520  0.00  0.00     0.000 HD
ATOM     55   C  BGC B   4       6.845   2.219   4.3870  0.00  0.00     0.000 C
ATOM     56   O  BGC B   4       7.241   0.905   3.9920  0.00  0.00     0.000 O
ATOM     58  HD  BGC B   4       7.774   1.586   3.9650  0.00  0.00     0.000 HD
BRANCH 45 58
ATOM     58  O4  BGC B   5       4.105   0.436   7.6020  0.00  0.00     0.000 O
BRANCH 58 62
ATOM     59  C1  BGC B   5      -0.023   0.124   7.5240  0.00  0.00     0.000 C
ATOM     60  C2  BGC B   5       0.627   0.480   6.2020  0.00  0.00     0.000 C
ATOM     61  C3  BGC B   5       2.110   0.163   6.2360  0.00  0.00     0.000 C
ATOM     62  C4  BGC B   5       2.751   0.859   7.4260  0.00  0.00     0.000 C
ATOM     63  C5  BGC B   5       1.998   0.520   8.7210  0.00  0.00     0.000 C
ATOM     64  O5  BGC B   5       0.627   0.867   8.5600  0.00  0.00     0.000 O
ATOM     65   O  BGC B   5       2.423   2.649   9.6050  0.00  0.00     0.000 O
ATOM     67  HD  BGC B   5       2.962   3.322   9.5210  0.00  0.00     0.000 HD
ATOM     67   O  BGC B   5       2.423   2.649   9.6050  0.00  0.00     0.000 O
ATOM     69  HD  BGC B   5       2.962   3.322   9.5210  0.00  0.00     0.000 HD
ENDBRANCH 58 62
ENDBRANCH 45 58
ENDBRANCH 44 48
ENDBRANCH 31 44
ENDBRANCH 30 34
ENDBRANCH 17 30
ENDBRANCH 16 20
ENDBRANCH 1 16
TORSDOF 8
ENDMDL
MODEL 6
REMARK VINA RESULT:      -3.0      7.240     11.382
ROOT
ATOM      1  C1  BGC B   1      13.212   5.893   2.9530  0.00  0.00     0.000 C
ATOM      2  C2  BGC B   1      12.741   5.246   4.2540  0.00  0.00     0.000 C
ATOM      3  C3  BGC B   1      12.169   3.869   3.9740  0.00  0.00     0.000 C
ATOM      4  C4  BGC B   1      11.113   3.937   2.8790  0.00  0.00     0.000 C
ATOM      5  C5  BGC B   1      11.733   4.587   1.6510  0.00  0.00     0.000 C
ATOM      6  O5  BGC B   1      12.136   5.917   2.0260  0.00  0.00     0.000 O
ATOM      7   O  BGC B   1      13.856   5.121   5.1520  0.00  0.00     0.000 O
ATOM      9  HD  BGC B   1      13.835   4.480   5.7340  0.00  0.00     0.000 HD
ATOM      9   O  BGC B   1      11.616   3.343   5.1840  0.00  0.00     0.000 O
ATOM     11  HD  BGC B   1      11.595   2.702   5.7660  0.00  0.00     0.000 HD
ATOM     11   O  BGC B   1      10.673   2.634   2.5630  0.00  0.00     0.000 O
ATOM     13  HD  BGC B   1      10.652   1.993   3.1450  0.00  0.00     0.000 HD
ATOM     13   C  BGC B   1      10.810   4.684   0.4440  0.00  0.00     0.000 C
ATOM     14   O  BGC B   1       9.591   5.357   0.7460  0.00  0.00     0.000 O
ATOM     16  HD  BGC B   1       9.570   4.716   1.3290  0.00  0.00     0.000 HD
ENDROOT
BRANCH 1 16
ATOM     16  O4  BGC B   2      13.469   7.262   3.2600  0.00  0.00     0.000 O
BRANCH 16 20
ATOM     17  C1  BGC B   2      15.810  10.405   2.1730  0.00  0.00     0.000 C
ATOM     18  C2  BGC B   2      14.923   9.886   1.0510  0.00  0.00     0.000 C
ATOM     19  C3  BGC B   2      13.854   8.980   1.6580  0.00  0.00     0.000 C
ATOM     20  C4  BGC B   2      14.494   7.895   2.4980  0.00  0.00     0.000 C
ATOM     21  C5  BGC B   2      15.522   8.451   3.4840  0.00  0.00     0.000 C
ATOM     22  O5  BGC B   2      16.457   9.260   2.7600  0.00  0.00     0.000 O
ATOM     23   O  BGC B   2      14.283  10.985   0.3800  0.00  0.00     0.000 O
ATOM     25  HD  BGC B   2      14.015  10.404   0.9640  0.00  0.00     0.000 HD
ATOM     25   O  BGC B   2      13.065   8.403   0.6240  0.00  0.00     0.000 O
ATOM     27  HD  BGC B   2      12.796   7.823   1.2080  0.00  0.00     0.000 HD
ATOM     27   C  BGC B   2      16.308   7.360   4.2010  0.00  0.00     0.000 C
ATOM     28   O  BGC B   2      16.972   6.472   3.3160  0.00  0.00     0.000 O
ATOM     30  HD  BGC B   2      16.703   5.892   3.9000  0.00  0.00     0.000 HD
BRANCH 17 30
ATOM     30  O4  BGC B   3      16.851  11.144   1.5630  0.00  0.00     0.000 O
BRANCH 30 34
ATOM     31  C1  BGC B   3      19.496  14.158   2.4820  0.00  0.00     0.000 C
ATOM     32  C2  BGC B   3      19.892  12.782   3.0160  0.00  0.00     0.000 C
ATOM     33  C3  BGC B   3      19.081  11.722   2.2910  0.00  0.00     0.000 C
ATOM     34  C4  BGC B   3      17.587  12.013   2.4300  0.00  0.00     0.000 C
ATOM     35  C5  BGC B   3      17.287  13.444   2.0170  0.00  0.00     0.000 C
ATOM     36  O5  BGC B   3      18.118  14.339   2.7630  0.00  0.00     0.000 O
ATOM     37   O  BGC B   3      21.274  12.550   2.7550  0.00  0.00     0.000 O
ATOM     39  HD  BGC B   3      21.232  11.842   3.2520  0.00  0.00     0.000 HD
ATOM     39   O  BGC B   3      19.398  10.455   2.8470  0.00  0.00     0.000 O
ATOM     41  HD  BGC B   3      19.356   9.747   3.3450  0.00  0.00     0.000 HD
ATOM     41   C  BGC B   3      15.831  13.851   2.2100  0.00  0.00     0.000 C
ATOM     42   O  BGC B   3      15.455  13.686   3.5570  0.00  0.00     0.000 O
ATOM     44  HD  BGC B   3      15.413  12.978   4.0540  0.00  0.00     0.000 HD
BRANCH 31 44
ATOM     44  O4  BGC B   4      20.188  15.114   3.2430  0.00  0.00     0.000 O
BRANCH 44 48
ATOM     45  C1  BGC B   4      21.839  18.852   2.9070  0.00  0.00     0.000 C
ATOM     46  C2  BGC B   4      20.319  18.830   2.9820  0.00  0.00     0.000 C
ATOM     47  C3  BGC B   4      19.859  17.486   3.4910  0.00  0.00     0.000 C
ATOM     48  C4  BGC B   4      20.452  16.362   2.6350  0.00  0.00     0.000 C
ATOM     49  C5  BGC B   4      21.974  16.514   2.5250  0.00  0.00     0.000 C
ATOM     50  O5  BGC B   4      22.296  17.822   2.0290  0.00  0.00     0.000 O
ATOM     51   O  BGC B   4      19.855  19.856   3.8800  0.00  0.00     0.000 O
ATOM     53  HD  BGC B   4      19.765  19.169   4.3990  0.00  0.00     0.000 HD
ATOM     53   O  BGC B   4      18.426  17.435   3.4320  0.00  0.00     0.000 O
ATOM     55  HD  BGC B   4      18.337  16.748   3.9520  0.00  0.00     0.000 HD
ATOM     55   C  BGC B   4      22.640  15.512   1.6000  0.00  0.00     0.000 C
ATOM     56   O  BGC B   4      22.006  15.610   0.3230  0.00  0.00     0.000 O
ATOM     58  HD  BGC B   4      21.917  14.923   0.8420  0.00  0.00     0.000 HD
BRANCH 45 58
ATOM     58  O4  BGC B   5      22.178  20.036   2.1860  0.00  0.00     0.000 O
BRANCH 58 62
ATOM     59  C1  BGC B   5      24.700  23.282   2.6850  0.00  0.00     0.000 C
ATOM     60  C2  BGC B   5      25.145  22.265   1.6530  0.00  0.00     0.000 C
ATOM     61  C3  BGC B   5      23.988  21.369   1.2540  0.00  0.00     0.000 C
ATOM     62  C4  BGC B   5      23.385  20.736   2.4980  0.00  0.00     0.000 C
ATOM     63  C5  BGC B   5      23.029  21.812   3.5350  0.00  0.00     0.000 C
ATOM     64  O5  BGC B   5      24.196  22.576   3.8230  0.00  0.00     0.000 O
ATOM     65   O  BGC B   5      23.548  20.370   5.3090  0.00  0.00     0.000 O
ATOM     67  HD  BGC B   5      23.632  19.528   5.4940  0.00  0.00     0.000 HD
ATOM     67   O  BGC B   5      23.548  20.370   5.3090  0.00  0.00     0.000 O
ATOM     69  HD  BGC B   5      23.632  19.528   5.4940  0.00  0.00     0.000 HD
ENDBRANCH 58 62
ENDBRANCH 45 58
ENDBRANCH 44 48
ENDBRANCH 31 44
ENDBRANCH 30 34
ENDBRANCH 17 30
ENDBRANCH 16 20
ENDBRANCH 1 16
TORSDOF 8
ENDMDL
MODEL 7
REMARK VINA RESULT:      -2.6      3.522     15.558
ROOT
ATOM      1  C1  BGC B   1      23.306  10.562   7.2870  0.00  0.00     0.000 C
ATOM      2  C2  BGC B   1      23.704  12.036   7.2340  0.00  0.00     0.000 C
ATOM      3  C3  BGC B   1      25.210  12.173   7.3480  0.00  0.00     0.000 C
ATOM      4  C4  BGC B   1      25.729  11.418   8.5660  0.00  0.00     0.000 C
ATOM      5  C5  BGC B   1      25.267   9.972   8.4690  0.00  0.00     0.000 C
ATOM      6  O5  BGC B   1      23.828   9.979   8.4730  0.00  0.00     0.000 O
ATOM      7   O  BGC B   1      23.272  12.598   5.9840  0.00  0.00     0.000 O
ATOM      9  HD  BGC B   1      23.721  13.267   5.6660  0.00  0.00     0.000 HD
ATOM      9   O  BGC B   1      25.543  13.562   7.4300  0.00  0.00     0.000 O
ATOM     11  HD  BGC B   1      25.992  14.232   7.1130  0.00  0.00     0.000 HD
ATOM     11   O  BGC B   1      27.139  11.472   8.5910  0.00  0.00     0.000 O
ATOM     13  HD  BGC B   1      27.588  12.142   8.2740  0.00  0.00     0.000 HD
ATOM     13   C  BGC B   1      25.750   9.070   9.5960  0.00  0.00     0.000 C
ATOM     14   O  BGC B   1      25.398   9.573  10.8810  0.00  0.00     0.000 O
ATOM     16  HD  BGC B   1      25.846  10.242  10.5640  0.00  0.00     0.000 HD
ENDROOT
BRANCH 1 16
ATOM     16  O4  BGC B   2      21.890  10.538   7.4530  0.00  0.00     0.000 O
BRANCH 16 20
ATOM     17  C1  BGC B   2      18.701   8.092   6.8350  0.00  0.00     0.000 C
ATOM     18  C2  BGC B   2      19.391   7.870   8.1730  0.00  0.00     0.000 C
ATOM     19  C3  BGC B   2      20.312   9.057   8.4460  0.00  0.00     0.000 C
ATOM     20  C4  BGC B   2      21.259   9.271   7.2830  0.00  0.00     0.000 C
ATOM     21  C5  BGC B   2      20.534   9.297   5.9380  0.00  0.00     0.000 C
ATOM     22  O5  BGC B   2      19.731   8.115   5.8290  0.00  0.00     0.000 O
ATOM     23   O  BGC B   2      18.415   7.780   9.2240  0.00  0.00     0.000 O
ATOM     25  HD  BGC B   2      18.954   8.405   8.9620  0.00  0.00     0.000 HD
ATOM     25   O  BGC B   2      21.045   8.836   9.6450  0.00  0.00     0.000 O
ATOM     27  HD  BGC B   2      21.584   9.461   9.3830  0.00  0.00     0.000 HD
ATOM     27   C  BGC B   2      21.487   9.322   4.7490  0.00  0.00     0.000 C
ATOM     28   O  BGC B   2      22.404   8.240   4.7420  0.00  0.00     0.000 O
ATOM     30  HD  BGC B   2      22.944   8.865   4.4810  0.00  0.00     0.000 HD
BRANCH 17 30
ATOM     30  O4  BGC B   3      17.948   6.924   6.5650  0.00  0.00     0.000 O
BRANCH 30 34
ATOM     31  C1  BGC B   3      14.711   5.704   4.3370  0.00  0.00     0.000 C
ATOM     32  C2  BGC B   3      15.936   6.099   3.5130  0.00  0.00     0.000 C
ATOM     33  C3  BGC B   3      17.150   6.137   4.4250  0.00  0.00     0.000 C
ATOM     34  C4  BGC B   3      16.895   7.071   5.6070  0.00  0.00     0.000 C
ATOM     35  C5  BGC B   3      15.589   6.711   6.2930  0.00  0.00     0.000 C
ATOM     36  O5  BGC B   3      14.531   6.702   5.3290  0.00  0.00     0.000 O
ATOM     37   O  BGC B   3      16.163   5.122   2.4990  0.00  0.00     0.000 O
ATOM     39  HD  BGC B   3      16.758   5.646   2.1510  0.00  0.00     0.000 HD
ATOM     39   O  BGC B   3      18.267   6.580   3.6680  0.00  0.00     0.000 O
ATOM     41  HD  BGC B   3      18.862   7.104   3.3200  0.00  0.00     0.000 HD
ATOM     41   C  BGC B   3      15.207   7.651   7.4310  0.00  0.00     0.000 C
ATOM     42   O  BGC B   3      15.113   8.973   6.9570  0.00  0.00     0.000 O
ATOM     44  HD  BGC B   3      15.708   9.497   6.6090  0.00  0.00     0.000 HD
BRANCH 31 44
ATOM     44  O4  BGC B   4      13.596   5.780   3.4870  0.00  0.00     0.000 O
BRANCH 44 48
ATOM     45  C1  BGC B   4       9.553   5.112   3.5970  0.00  0.00     0.000 C
ATOM     46  C2  BGC B   4       9.976   6.528   3.9620  0.00  0.00     0.000 C
ATOM     47  C3  BGC B   4      11.398   6.760   3.5130  0.00  0.00     0.000 C
ATOM     48  C4  BGC B   4      12.318   5.674   4.0800  0.00  0.00     0.000 C
ATOM     49  C5  BGC B   4      11.769   4.279   3.7570  0.00  0.00     0.000 C
ATOM     50  O5  BGC B   4      10.419   4.168   4.2310  0.00  0.00     0.000 O
ATOM     51   O  BGC B   4       9.116   7.483   3.3110  0.00  0.00     0.000 O
ATOM     53  HD  BGC B   4       9.806   7.544   2.7920  0.00  0.00     0.000 HD
ATOM     53   O  BGC B   4      11.825   8.048   3.9780  0.00  0.00     0.000 O
ATOM     55  HD  BGC B   4      12.516   8.109   3.4590  0.00  0.00     0.000 HD
ATOM     55   C  BGC B   4      12.553   3.137   4.3780  0.00  0.00     0.000 C
ATOM     56   O  BGC B   4      12.615   3.367   5.7870  0.00  0.00     0.000 O
ATOM     58  HD  BGC B   4      13.305   3.428   5.2680  0.00  0.00     0.000 HD
BRANCH 45 58
ATOM     58  O4  BGC B   5       8.316   4.887   4.2730  0.00  0.00     0.000 O
BRANCH 58 62
ATOM     59  C1  BGC B   5       4.457   3.594   3.5100  0.00  0.00     0.000 C
ATOM     60  C2  BGC B   5       5.448   2.506   3.8710  0.00  0.00     0.000 C
ATOM     61  C3  BGC B   5       6.680   3.103   4.5220  0.00  0.00     0.000 C
ATOM     62  C4  BGC B   5       7.268   4.171   3.6150  0.00  0.00     0.000 C
ATOM     63  C5  BGC B   5       6.195   5.197   3.2220  0.00  0.00     0.000 C
ATOM     64  O5  BGC B   5       5.101   4.512   2.6210  0.00  0.00     0.000 O
ATOM     65   O  BGC B   5       7.158   5.496   1.1050  0.00  0.00     0.000 O
ATOM     67  HD  BGC B   5       7.906   5.392   0.6820  0.00  0.00     0.000 HD
ATOM     67   O  BGC B   5       7.158   5.496   1.1050  0.00  0.00     0.000 O
ATOM     69  HD  BGC B   5       7.906   5.392   0.6820  0.00  0.00     0.000 HD
ENDBRANCH 58 62
ENDBRANCH 45 58
ENDBRANCH 44 48
ENDBRANCH 31 44
ENDBRANCH 30 34
ENDBRANCH 17 30
ENDBRANCH 16 20
ENDBRANCH 1 16
TORSDOF 8
ENDMDL
MODEL 8
REMARK VINA RESULT:      -2.5      9.379     15.759
ROOT
ATOM      1  C1  BGC B   1      10.460   9.892  18.0280  0.00  0.00     0.000 C
ATOM      2  C2  BGC B   1      10.687   9.215  19.3780  0.00  0.00     0.000 C
ATOM      3  C3  BGC B   1      10.869  10.261  20.4610  0.00  0.00     0.000 C
ATOM      4  C4  BGC B   1      11.943  11.266  20.0660  0.00  0.00     0.000 C
ATOM      5  C5  BGC B   1      11.571  11.863  18.7160  0.00  0.00     0.000 C
ATOM      6  O5  BGC B   1      11.534  10.784  17.7640  0.00  0.00     0.000 O
ATOM      7   O  BGC B   1       9.548   8.398  19.6950  0.00  0.00     0.000 O
ATOM      9  HD  BGC B   1       9.372   8.261  20.5320  0.00  0.00     0.000 HD
ATOM      9   O  BGC B   1      11.211   9.604  21.6850  0.00  0.00     0.000 O
ATOM     11  HD  BGC B   1      11.035   9.467  22.5220  0.00  0.00     0.000 HD
ATOM     11   O  BGC B   1      12.019  12.286  21.0380  0.00  0.00     0.000 O
ATOM     13  HD  BGC B   1      11.842  12.149  21.8750  0.00  0.00     0.000 HD
ATOM     13   C  BGC B   1      12.528  12.929  18.2030  0.00  0.00     0.000 C
ATOM     14   O  BGC B   1      13.873  12.463  18.1370  0.00  0.00     0.000 O
ATOM     16  HD  BGC B   1      13.696  12.326  18.9740  0.00  0.00     0.000 HD
ENDROOT
BRANCH 1 16
ATOM     16  O4  BGC B   2      10.578   8.867  17.0430  0.00  0.00     0.000 O
BRANCH 16 20
ATOM     17  C1  BGC B   2       9.032   7.705  13.4660  0.00  0.00     0.000 C
ATOM     18  C2  BGC B   2      10.034   8.845  13.3580  0.00  0.00     0.000 C
ATOM     19  C3  BGC B   2      10.801   8.942  14.6740  0.00  0.00     0.000 C
ATOM     20  C4  BGC B   2       9.841   9.065  15.8390  0.00  0.00     0.000 C
ATOM     21  C5  BGC B   2       8.737   8.008  15.7980  0.00  0.00     0.000 C
ATOM     22  O5  BGC B   2       8.107   8.056  14.5120  0.00  0.00     0.000 O
ATOM     23   O  BGC B   2      10.961   8.588  12.2900  0.00  0.00     0.000 O
ATOM     25  HD  BGC B   2      11.011   8.524  13.1530  0.00  0.00     0.000 HD
ATOM     25   O  BGC B   2      11.681  10.061  14.6400  0.00  0.00     0.000 O
ATOM     27  HD  BGC B   2      11.731   9.996  15.5030  0.00  0.00     0.000 HD
ATOM     27   C  BGC B   2       7.660   8.233  16.8520  0.00  0.00     0.000 C
ATOM     28   O  BGC B   2       7.056   9.514  16.7740  0.00  0.00     0.000 O
ATOM     30  HD  BGC B   2       7.106   9.450  17.6360  0.00  0.00     0.000 HD
BRANCH 17 30
ATOM     30  O4  BGC B   3       8.266   7.719  12.2760  0.00  0.00     0.000 O
BRANCH 30 34
ATOM     31  C1  BGC B   3       6.289   5.132   9.7620  0.00  0.00     0.000 C
ATOM     32  C2  BGC B   3       5.745   5.169  11.1890  0.00  0.00     0.000 C
ATOM     33  C3  BGC B   3       6.272   6.412  11.8840  0.00  0.00     0.000 C
ATOM     34  C4  BGC B   3       7.799   6.445  11.8220  0.00  0.00     0.000 C
ATOM     35  C5  BGC B   3       8.274   6.259  10.3910  0.00  0.00     0.000 C
ATOM     36  O5  BGC B   3       7.703   5.063   9.8510  0.00  0.00     0.000 O
ATOM     37   O  BGC B   3       4.321   5.241  11.1540  0.00  0.00     0.000 O
ATOM     39  HD  BGC B   3       4.310   5.109  12.0100  0.00  0.00     0.000 HD
ATOM     39   O  BGC B   3       5.826   6.399  13.2310  0.00  0.00     0.000 O
ATOM     41  HD  BGC B   3       5.815   6.266  14.0870  0.00  0.00     0.000 HD
ATOM     41   C  BGC B   3       9.790   6.187  10.2460  0.00  0.00     0.000 C
ATOM     42   O  BGC B   3      10.303   5.134  11.0280  0.00  0.00     0.000 O
ATOM     44  HD  BGC B   3      10.291   5.002  11.8840  0.00  0.00     0.000 HD
BRANCH 31 44
ATOM     44  O4  BGC B   4       5.866   3.922   9.1870  0.00  0.00     0.000 O
BRANCH 44 48
ATOM     45  C1  BGC B   4       4.592   2.410   5.5960  0.00  0.00     0.000 C
ATOM     46  C2  BGC B   4       6.101   2.551   5.7290  0.00  0.00     0.000 C
ATOM     47  C3  BGC B   4       6.464   2.730   7.1830  0.00  0.00     0.000 C
ATOM     48  C4  BGC B   4       5.678   3.898   7.7870  0.00  0.00     0.000 C
ATOM     49  C5  BGC B   4       4.176   3.732   7.5220  0.00  0.00     0.000 C
ATOM     50  O5  BGC B   4       3.948   3.576   6.1130  0.00  0.00     0.000 O
ATOM     51   O  BGC B   4       6.753   1.370   5.2240  0.00  0.00     0.000 O
ATOM     53  HD  BGC B   4       6.819   1.211   6.0730  0.00  0.00     0.000 HD
ATOM     53   O  BGC B   4       7.871   2.992   7.2800  0.00  0.00     0.000 O
ATOM     55  HD  BGC B   4       7.936   2.832   8.1290  0.00  0.00     0.000 HD
ATOM     55   C  BGC B   4       3.325   4.902   7.9820  0.00  0.00     0.000 C
ATOM     56   O  BGC B   4       3.842   6.085   7.3700  0.00  0.00     0.000 O
ATOM     58  HD  BGC B   4       3.907   5.925   8.2180  0.00  0.00     0.000 HD
BRANCH 45 58
ATOM     58  O4  BGC B   5       4.312   2.505   4.2000  0.00  0.00     0.000 O
BRANCH 58 62
ATOM     59  C1  BGC B   5       1.329   1.478   1.5170  0.00  0.00     0.000 C
ATOM     60  C2  BGC B   5       1.271   2.899   2.0410  0.00  0.00     0.000 C
ATOM     61  C3  BGC B   5       2.598   3.292   2.6620  0.00  0.00     0.000 C
ATOM     62  C4  BGC B   5       2.983   2.276   3.7250  0.00  0.00     0.000 C
ATOM     63  C5  BGC B   5       2.946   0.852   3.1510  0.00  0.00     0.000 C
ATOM     64  O5  BGC B   5       1.653   0.609   2.6070  0.00  0.00     0.000 O
ATOM     65   O  BGC B   5       2.236  -0.030   5.2040  0.00  0.00     0.000 O
ATOM     67  HD  BGC B   5       2.227   0.151   6.0510  0.00  0.00     0.000 HD
ATOM     67   O  BGC B   5       2.236  -0.030   5.2040  0.00  0.00     0.000 O
ATOM     69  HD  BGC B   5       2.227   0.151   6.0510  0.00  0.00     0.000 HD
ENDBRANCH 58 62
ENDBRANCH 45 58
ENDBRANCH 44 48
ENDBRANCH 31 44
ENDBRANCH 30 34
ENDBRANCH 17 30
ENDBRANCH 16 20
ENDBRANCH 1 16
TORSDOF 8
ENDMDL
MODEL 9
REMARK VINA RESULT:      -2.2      8.331     15.877
ROOT
ATOM      1  C1  BGC B   1      19.370   5.197   4.1070  0.00  0.00     0.000 C
ATOM      2  C2  BGC B   1      18.195   5.784   3.3260  0.00  0.00     0.000 C
ATOM      3  C3  BGC B   1      16.890   5.465   4.0310  0.00  0.00     0.000 C
ATOM      4  C4  BGC B   1      16.782   3.972   4.3150  0.00  0.00     0.000 C
ATOM      5  C5  BGC B   1      18.008   3.542   5.1070  0.00  0.00     0.000 C
ATOM      6  O5  BGC B   1      19.163   3.803   4.2870  0.00  0.00     0.000 O
ATOM      7   O  BGC B   1      18.350   7.210   3.2400  0.00  0.00     0.000 O
ATOM      9  HD  BGC B   1      17.632   7.689   3.1660  0.00  0.00     0.000 HD
ATOM      9   O  BGC B   1      15.803   5.908   3.2140  0.00  0.00     0.000 O
ATOM     11  HD  BGC B   1      15.085   6.387   3.1390  0.00  0.00     0.000 HD
ATOM     11   O  BGC B   1      15.613   3.715   5.0620  0.00  0.00     0.000 O
ATOM     13  HD  BGC B   1      14.895   4.194   4.9880  0.00  0.00     0.000 HD
ATOM     13   C  BGC B   1      18.025   2.075   5.5120  0.00  0.00     0.000 C
ATOM     14   O  BGC B   1      17.877   1.202   4.3970  0.00  0.00     0.000 O
ATOM     16  HD  BGC B   1      17.159   1.681   4.3220  0.00  0.00     0.000 HD
ENDROOT
BRANCH 1 16
ATOM     16  O4  BGC B   2      20.506   5.296   3.2500  0.00  0.00     0.000 O
BRANCH 16 20
ATOM     17  C1  BGC B   2      24.526   5.905   3.3180  0.00  0.00     0.000 C
ATOM     18  C2  BGC B   2      24.087   4.640   4.0420  0.00  0.00     0.000 C
ATOM     19  C3  BGC B   2      22.646   4.330   3.6440  0.00  0.00     0.000 C
ATOM     20  C4  BGC B   2      21.757   5.531   3.8920  0.00  0.00     0.000 C
ATOM     21  C5  BGC B   2      22.338   6.818   3.3050  0.00  0.00     0.000 C
ATOM     22  O5  BGC B   2      23.680   6.972   3.7850  0.00  0.00     0.000 O
ATOM     23   O  BGC B   2      24.928   3.538   3.6640  0.00  0.00     0.000 O
ATOM     25  HD  BGC B   2      24.127   3.781   3.4420  0.00  0.00     0.000 HD
ATOM     25   O  BGC B   2      22.172   3.206   4.3770  0.00  0.00     0.000 O
ATOM     27  HD  BGC B   2      21.372   3.449   4.1550  0.00  0.00     0.000 HD
ATOM     27   C  BGC B   2      21.555   8.061   3.7070  0.00  0.00     0.000 C
ATOM     28   O  BGC B   2      21.439   8.222   5.1120  0.00  0.00     0.000 O
ATOM     30  HD  BGC B   2      20.638   8.465   4.8890  0.00  0.00     0.000 HD
BRANCH 17 30
ATOM     30  O4  BGC B   3      25.819   6.222   3.7970  0.00  0.00     0.000 O
BRANCH 30 34
ATOM     31  C1  BGC B   3      29.351   7.878   2.4900  0.00  0.00     0.000 C
ATOM     32  C2  BGC B   3      28.131   8.785   2.3380  0.00  0.00     0.000 C
ATOM     33  C3  BGC B   3      27.004   8.241   3.1990  0.00  0.00     0.000 C
ATOM     34  C4  BGC B   3      26.718   6.784   2.8360  0.00  0.00     0.000 C
ATOM     35  C5  BGC B   3      28.000   5.970   2.8680  0.00  0.00     0.000 C
ATOM     36  O5  BGC B   3      28.979   6.590   2.0270  0.00  0.00     0.000 O
ATOM     37   O  BGC B   3      28.453  10.097   2.7940  0.00  0.00     0.000 O
ATOM     39  HD  BGC B   3      27.698  10.376   2.4740  0.00  0.00     0.000 HD
ATOM     39   O  BGC B   3      25.852   9.044   2.9920  0.00  0.00     0.000 O
ATOM     41  HD  BGC B   3      25.097   9.323   2.6720  0.00  0.00     0.000 HD
ATOM     41   C  BGC B   3      27.825   4.521   2.4300  0.00  0.00     0.000 C
ATOM     42   O  BGC B   3      27.295   4.469   1.1260  0.00  0.00     0.000 O
ATOM     44  HD  BGC B   3      26.540   4.747   0.8070  0.00  0.00     0.000 HD
BRANCH 31 44
ATOM     44  O4  BGC B   4      30.334   8.352   1.6050  0.00  0.00     0.000 O
BRANCH 44 48
ATOM     45  C1  BGC B   4      34.405   8.710   1.2880  0.00  0.00     0.000 C
ATOM     46  C2  BGC B   4      33.866   7.309   1.0350  0.00  0.00     0.000 C
ATOM     47  C3  BGC B   4      32.379   7.379   0.7900  0.00  0.00     0.000 C
ATOM     48  C4  BGC B   4      31.684   8.110   1.9440  0.00  0.00     0.000 C
ATOM     49  C5  BGC B   4      32.350   9.467   2.2010  0.00  0.00     0.000 C
ATOM     50  O5  BGC B   4      33.756   9.282   2.4250  0.00  0.00     0.000 O
ATOM     51   O  BGC B   4      34.506   6.736  -0.1210  0.00  0.00     0.000 O
ATOM     53  HD  BGC B   4      33.749   6.956  -0.4790  0.00  0.00     0.000 HD
ATOM     53   O  BGC B   4      31.865   6.043   0.6840  0.00  0.00     0.000 O
ATOM     55  HD  BGC B   4      31.108   6.264   0.3260  0.00  0.00     0.000 HD
ATOM     55   C  BGC B   4      31.804  10.216   3.4030  0.00  0.00     0.000 C
ATOM     56   O  BGC B   4      31.907   9.354   4.5370  0.00  0.00     0.000 O
ATOM     58  HD  BGC B   4      31.150   9.575   4.1790  0.00  0.00     0.000 HD
BRANCH 45 58
ATOM     58  O4  BGC B   5      35.741   8.536   1.7590  0.00  0.00     0.000 O
BRANCH 58 62
ATOM     59  C1  BGC B   5      39.073  10.736   2.8570  0.00  0.00     0.000 C
ATOM     60  C2  BGC B   5      38.036  10.541   3.9450  0.00  0.00     0.000 C
ATOM     61  C3  BGC B   5      37.094   9.408   3.5850  0.00  0.00     0.000 C
ATOM     62  C4  BGC B   5      36.486   9.668   2.2160  0.00  0.00     0.000 C
ATOM     63  C5  BGC B   5      37.585   9.936   1.1780  0.00  0.00     0.000 C
ATOM     64  O5  BGC B   5      38.391  11.018   1.6310  0.00  0.00     0.000 O
ATOM     65   O  BGC B   5      36.219  11.451   0.0230  0.00  0.00     0.000 O
ATOM     67  HD  BGC B   5      35.386  11.663  -0.0880  0.00  0.00     0.000 HD
ATOM     67   O  BGC B   5      36.219  11.451   0.0230  0.00  0.00     0.000 O
ATOM     69  HD  BGC B   5      35.386  11.663  -0.0880  0.00  0.00     0.000 HD
ENDBRANCH 58 62
ENDBRANCH 45 58
ENDBRANCH 44 48
ENDBRANCH 31 44
ENDBRANCH 30 34
ENDBRANCH 17 30
ENDBRANCH 16 20
ENDBRANCH 1 16
TORSDOF 8
ENDMDL
MODEL 10
REMARK VINA RESULT:      -2.1      4.063     15.374
ROOT
ATOM      1  C1  BGC B   1      21.772  10.789   7.6500  0.00  0.00     0.000 C
ATOM      2  C2  BGC B   1      22.240  11.879   6.6880  0.00  0.00     0.000 C
ATOM      3  C3  BGC B   1      23.636  12.340   7.0620  0.00  0.00     0.000 C
ATOM      4  C4  BGC B   1      23.701  12.722   8.5350  0.00  0.00     0.000 C
ATOM      5  C5  BGC B   1      23.222  11.537   9.3610  0.00  0.00     0.000 C
ATOM      6  O5  BGC B   1      21.859  11.271   8.9830  0.00  0.00     0.000 O
ATOM      7   O  BGC B   1      22.258  11.354   5.3500  0.00  0.00     0.000 O
ATOM      9  HD  BGC B   1      22.817  11.703   4.7880  0.00  0.00     0.000 HD
ATOM      9   O  BGC B   1      23.995  13.449   6.2320  0.00  0.00     0.000 O
ATOM     11  HD  BGC B   1      24.554  13.797   5.6700  0.00  0.00     0.000 HD
ATOM     11   O  BGC B   1      25.030  13.044   8.8830  0.00  0.00     0.000 O
ATOM     13  HD  BGC B   1      25.589  13.393   8.3210  0.00  0.00     0.000 HD
ATOM     13   C  BGC B   1      23.274  11.746  10.8680  0.00  0.00     0.000 C
ATOM     14   O  BGC B   1      22.556  12.905  11.2800  0.00  0.00     0.000 O
ATOM     16  HD  BGC B   1      23.115  13.253  10.7180  0.00  0.00     0.000 HD
ENDROOT
BRANCH 1 16
ATOM     16  O4  BGC B   2      20.377  10.615   7.4070  0.00  0.00     0.000 O
BRANCH 16 20
ATOM     17  C1  BGC B   2      17.439   7.815   7.6560  0.00  0.00     0.000 C
ATOM     18  C2  BGC B   2      17.781   8.463   8.9900  0.00  0.00     0.000 C
ATOM     19  C3  BGC B   2      18.605   9.720   8.7210  0.00  0.00     0.000 C
ATOM     20  C4  BGC B   2      19.809   9.390   7.8620  0.00  0.00     0.000 C
ATOM     21  C5  BGC B   2      19.435   8.571   6.6250  0.00  0.00     0.000 C
ATOM     22  O5  BGC B   2      18.684   7.426   7.0470  0.00  0.00     0.000 O
ATOM     23   O  BGC B   2      16.576   8.830   9.6830  0.00  0.00     0.000 O
ATOM     25  HD  BGC B   2      17.163   9.277   9.2290  0.00  0.00     0.000 HD
ATOM     25   O  BGC B   2      19.022  10.298   9.9520  0.00  0.00     0.000 O
ATOM     27  HD  BGC B   2      19.609  10.745   9.4970  0.00  0.00     0.000 HD
ATOM     27   C  BGC B   2      20.651   8.071   5.8550  0.00  0.00     0.000 C
ATOM     28   O  BGC B   2      21.543   7.305   6.6470  0.00  0.00     0.000 O
ATOM     30  HD  BGC B   2      22.129   7.751   6.1920  0.00  0.00     0.000 HD
BRANCH 17 30
ATOM     30  O4  BGC B   3      16.776   6.600   7.9500  0.00  0.00     0.000 O
BRANCH 30 34
ATOM     31  C1  BGC B   3      13.748   4.272   6.4220  0.00  0.00     0.000 C
ATOM     32  C2  BGC B   3      15.114   4.039   5.7770  0.00  0.00     0.000 C
ATOM     33  C3  BGC B   3      16.186   4.637   6.6710  0.00  0.00     0.000 C
ATOM     34  C4  BGC B   3      15.891   6.113   6.9360  0.00  0.00     0.000 C
ATOM     35  C5  BGC B   3      14.469   6.285   7.4390  0.00  0.00     0.000 C
ATOM     36  O5  BGC B   3      13.560   5.675   6.5160  0.00  0.00     0.000 O
ATOM     37   O  BGC B   3      15.352   2.638   5.6610  0.00  0.00     0.000 O
ATOM     39  HD  BGC B   3      16.050   2.814   5.1800  0.00  0.00     0.000 HD
ATOM     39   O  BGC B   3      17.443   4.485   6.0280  0.00  0.00     0.000 O
ATOM     41  HD  BGC B   3      18.141   4.660   5.5470  0.00  0.00     0.000 HD
ATOM     41   C  BGC B   3      14.056   7.739   7.6440  0.00  0.00     0.000 C
ATOM     42   O  BGC B   3      14.196   8.457   6.4410  0.00  0.00     0.000 O
ATOM     44  HD  BGC B   3      14.894   8.633   5.9600  0.00  0.00     0.000 HD
BRANCH 31 44
ATOM     44  O4  BGC B   4      12.778   3.799   5.5220  0.00  0.00     0.000 O
BRANCH 44 48
ATOM     45  C1  BGC B   4       8.779   2.928   5.7540  0.00  0.00     0.000 C
ATOM     46  C2  BGC B   4       9.119   4.139   4.8970  0.00  0.00     0.000 C
ATOM     47  C3  BGC B   4      10.592   4.125   4.5680  0.00  0.00     0.000 C
ATOM     48  C4  BGC B   4      11.422   4.023   5.8520  0.00  0.00     0.000 C
ATOM     49  C5  BGC B   4      10.950   2.840   6.7060  0.00  0.00     0.000 C
ATOM     50  O5  BGC B   4       9.543   2.957   6.9610  0.00  0.00     0.000 O
ATOM     51   O  BGC B   4       8.364   4.105   3.6720  0.00  0.00     0.000 O
ATOM     53  HD  BGC B   4       9.128   3.832   3.3690  0.00  0.00     0.000 HD
ATOM     53   O  BGC B   4      10.922   5.337   3.8740  0.00  0.00     0.000 O
ATOM     55  HD  BGC B   4      11.686   5.065   3.5720  0.00  0.00     0.000 HD
ATOM     55   C  BGC B   4      11.638   2.726   8.0550  0.00  0.00     0.000 C
ATOM     56   O  BGC B   4      11.468   3.970   8.7360  0.00  0.00     0.000 O
ATOM     58  HD  BGC B   4      12.232   3.697   8.4340  0.00  0.00     0.000 HD
BRANCH 45 58
ATOM     58  O4  BGC B   5       7.452   3.147   6.2310  0.00  0.00     0.000 O
BRANCH 58 62
ATOM     59  C1  BGC B   5       4.049   1.088   7.3850  0.00  0.00     0.000 C
ATOM     60  C2  BGC B   5       5.359   0.506   7.8770  0.00  0.00     0.000 C
ATOM     61  C3  BGC B   5       6.473   1.531   7.7640  0.00  0.00     0.000 C
ATOM     62  C4  BGC B   5       6.545   2.047   6.3360  0.00  0.00     0.000 C
ATOM     63  C5  BGC B   5       5.169   2.548   5.8720  0.00  0.00     0.000 C
ATOM     64  O5  BGC B   5       4.221   1.496   6.0240  0.00  0.00     0.000 O
ATOM     65   O  BGC B   5       5.580   1.844   3.6730  0.00  0.00     0.000 O
ATOM     67  HD  BGC B   5       6.230   1.649   3.1360  0.00  0.00     0.000 HD
ATOM     67   O  BGC B   5       5.580   1.844   3.6730  0.00  0.00     0.000 O
ATOM     69  HD  BGC B   5       6.230   1.649   3.1360  0.00  0.00     0.000 HD
ENDBRANCH 58 62
ENDBRANCH 45 58
ENDBRANCH 44 48
ENDBRANCH 31 44
ENDBRANCH 30 34
ENDBRANCH 17 30
ENDBRANCH 16 20
ENDBRANCH 1 16
TORSDOF 8
ENDMDL
MODEL 11
REMARK VINA RESULT:      -2.0      7.956     10.330
ROOT
ATOM      1  C1  BGC B   1      11.451  13.818   9.4820  0.00  0.00     0.000 C
ATOM      2  C2  BGC B   1      11.465  15.339   9.3390  0.00  0.00     0.000 C
ATOM      3  C3  BGC B   1      10.499  15.964  10.3260  0.00  0.00     0.000 C
ATOM      4  C4  BGC B   1       9.119  15.328  10.2060  0.00  0.00     0.000 C
ATOM      5  C5  BGC B   1       9.266  13.824  10.3850  0.00  0.00     0.000 C
ATOM      6  O5  BGC B   1      10.119  13.346   9.3290  0.00  0.00     0.000 O
ATOM      7   O  BGC B   1      12.792  15.826   9.6020  0.00  0.00     0.000 O
ATOM      9  HD  BGC B   1      12.871  16.632   9.9100  0.00  0.00     0.000 HD
ATOM      9   O  BGC B   1      10.433  17.372  10.0810  0.00  0.00     0.000 O
ATOM     11  HD  BGC B   1      10.512  18.178  10.3880  0.00  0.00     0.000 HD
ATOM     11   O  BGC B   1       8.269  15.850  11.2040  0.00  0.00     0.000 O
ATOM     13  HD  BGC B   1       8.348  16.656  11.5110  0.00  0.00     0.000 HD
ATOM     13   C  BGC B   1       7.959  13.045  10.3410  0.00  0.00     0.000 C
ATOM     14   O  BGC B   1       7.222  13.290   9.1460  0.00  0.00     0.000 O
ATOM     16  HD  BGC B   1       7.302  14.095   9.4540  0.00  0.00     0.000 HD
ENDROOT
BRANCH 1 16
ATOM     16  O4  BGC B   2      12.158  13.305   8.3540  0.00  0.00     0.000 O
BRANCH 16 20
ATOM     17  C1  BGC B   2      14.505  10.169   7.2620  0.00  0.00     0.000 C
ATOM     18  C2  BGC B   2      13.014   9.869   7.1980  0.00  0.00     0.000 C
ATOM     19  C3  BGC B   2      12.251  11.189   7.2660  0.00  0.00     0.000 C
ATOM     20  C4  BGC B   2      12.675  11.983   8.4850  0.00  0.00     0.000 C
ATOM     21  C5  BGC B   2      14.195  12.095   8.6080  0.00  0.00     0.000 C
ATOM     22  O5  BGC B   2      14.756  10.778   8.5420  0.00  0.00     0.000 O
ATOM     23   O  BGC B   2      12.697   9.206   5.9620  0.00  0.00     0.000 O
ATOM     25  HD  BGC B   2      12.600  10.019   6.2460  0.00  0.00     0.000 HD
ATOM     25   O  BGC B   2      10.851  10.938   7.3040  0.00  0.00     0.000 O
ATOM     27  HD  BGC B   2      10.753  11.750   7.5880  0.00  0.00     0.000 HD
ATOM     27   C  BGC B   2      14.640  12.725   9.9220  0.00  0.00     0.000 C
ATOM     28   O  BGC B   2      14.147  12.046  11.0660  0.00  0.00     0.000 O
ATOM     30  HD  BGC B   2      14.049  12.858  11.3490  0.00  0.00     0.000 HD
BRANCH 17 30
ATOM     30  O4  BGC B   3      15.172   8.921   7.3100  0.00  0.00     0.000 O
BRANCH 30 34
ATOM     31  C1  BGC B   3      18.773   7.274   6.1980  0.00  0.00     0.000 C
ATOM     32  C2  BGC B   3      18.805   8.031   7.5250  0.00  0.00     0.000 C
ATOM     33  C3  BGC B   3      17.380   8.234   8.0090  0.00  0.00     0.000 C
ATOM     34  C4  BGC B   3      16.552   8.939   6.9350  0.00  0.00     0.000 C
ATOM     35  C5  BGC B   3      16.681   8.213   5.6070  0.00  0.00     0.000 C
ATOM     36  O5  BGC B   3      18.066   8.081   5.2690  0.00  0.00     0.000 O
ATOM     37   O  BGC B   3      19.506   7.259   8.4970  0.00  0.00     0.000 O
ATOM     39  HD  BGC B   3      19.487   7.941   9.0290  0.00  0.00     0.000 HD
ATOM     39   O  BGC B   3      17.415   9.005   9.2000  0.00  0.00     0.000 O
ATOM     41  HD  BGC B   3      17.395   9.687   9.7330  0.00  0.00     0.000 HD
ATOM     41   C  BGC B   3      15.960   8.900   4.4530  0.00  0.00     0.000 C
ATOM     42   O  BGC B   3      16.440  10.214   4.2930  0.00  0.00     0.000 O
ATOM     44  HD  BGC B   3      16.421  10.897   4.8260  0.00  0.00     0.000 HD
BRANCH 31 44
ATOM     44  O4  BGC B   4      20.096   7.196   5.7320  0.00  0.00     0.000 O
BRANCH 44 48
ATOM     45  C1  BGC B   4      22.515   4.853   3.3950  0.00  0.00     0.000 C
ATOM     46  C2  BGC B   4      21.466   5.648   2.6310  0.00  0.00     0.000 C
ATOM     47  C3  BGC B   4      20.919   6.740   3.5170  0.00  0.00     0.000 C
ATOM     48  C4  BGC B   4      20.409   6.150   4.8350  0.00  0.00     0.000 C
ATOM     49  C5  BGC B   4      21.489   5.281   5.4910  0.00  0.00     0.000 C
ATOM     50  O5  BGC B   4      21.932   4.278   4.5660  0.00  0.00     0.000 O
ATOM     51   O  BGC B   4      22.055   6.243   1.4590  0.00  0.00     0.000 O
ATOM     53  HD  BGC B   4      22.031   6.942   1.9710  0.00  0.00     0.000 HD
ATOM     53   O  BGC B   4      19.843   7.395   2.8310  0.00  0.00     0.000 O
ATOM     55  HD  BGC B   4      19.819   8.094   3.3420  0.00  0.00     0.000 HD
ATOM     55   C  BGC B   4      21.036   4.559   6.7470  0.00  0.00     0.000 C
ATOM     56   O  BGC B   4      19.875   3.796   6.4150  0.00  0.00     0.000 O
ATOM     58  HD  BGC B   4      19.851   4.494   6.9270  0.00  0.00     0.000 HD
BRANCH 45 58
ATOM     58  O4  BGC B   5      22.791   3.701   2.5980  0.00  0.00     0.000 O
BRANCH 58 62
ATOM     59  C1  BGC B   5      26.003   1.724   0.8910  0.00  0.00     0.000 C
ATOM     60  C2  BGC B   5      25.611   1.252   2.2760  0.00  0.00     0.000 C
ATOM     61  C3  BGC B   5      24.214   1.728   2.6260  0.00  0.00     0.000 C
ATOM     62  C4  BGC B   5      24.136   3.237   2.4620  0.00  0.00     0.000 C
ATOM     63  C5  BGC B   5      24.621   3.656   1.0670  0.00  0.00     0.000 C
ATOM     64  O5  BGC B   5      25.938   3.153   0.8670  0.00  0.00     0.000 O
ATOM     65   O  BGC B   5      25.521   5.652   1.9040  0.00  0.00     0.000 O
ATOM     67  HD  BGC B   5      25.456   6.194   2.5760  0.00  0.00     0.000 HD
ATOM     67   O  BGC B   5      25.521   5.652   1.9040  0.00  0.00     0.000 O
ATOM     69  HD  BGC B   5      25.456   6.194   2.5760  0.00  0.00     0.000 HD
ENDBRANCH 58 62
ENDBRANCH 45 58
ENDBRANCH 44 48
ENDBRANCH 31 44
ENDBRANCH 30 34
ENDBRANCH 17 30
ENDBRANCH 16 20
ENDBRANCH 1 16
TORSDOF 8
ENDMDL
MODEL 12
REMARK VINA RESULT:      -1.9     11.949     15.354
ROOT
ATOM      1  C1  BGC B   1      17.822  19.458   8.4980  0.00  0.00     0.000 C
ATOM      2  C2  BGC B   1      18.051  20.787   7.7800  0.00  0.00     0.000 C
ATOM      3  C3  BGC B   1      17.707  21.942   8.7010  0.00  0.00     0.000 C
ATOM      4  C4  BGC B   1      16.312  21.768   9.2870  0.00  0.00     0.000 C
ATOM      5  C5  BGC B   1      16.245  20.414   9.9780  0.00  0.00     0.000 C
ATOM      6  O5  BGC B   1      16.486  19.407   8.9770  0.00  0.00     0.000 O
ATOM      7   O  BGC B   1      19.431  20.884   7.3930  0.00  0.00     0.000 O
ATOM      9  HD  BGC B   1      19.774  21.676   7.3210  0.00  0.00     0.000 HD
ATOM      9   O  BGC B   1      17.802  23.164   7.9640  0.00  0.00     0.000 O
ATOM     11  HD  BGC B   1      18.144  23.956   7.8920  0.00  0.00     0.000 HD
ATOM     11   O  BGC B   1      16.058  22.796  10.2190  0.00  0.00     0.000 O
ATOM     13  HD  BGC B   1      16.401  23.588  10.1480  0.00  0.00     0.000 HD
ATOM     13   C  BGC B   1      14.920  20.110  10.6610  0.00  0.00     0.000 C
ATOM     14   O  BGC B   1      13.813  20.218   9.7710  0.00  0.00     0.000 O
ATOM     16  HD  BGC B   1      14.156  21.010   9.6990  0.00  0.00     0.000 HD
ENDROOT
BRANCH 1 16
ATOM     16  O4  BGC B   2      17.897  18.446   7.4960  0.00  0.00     0.000 O
BRANCH 16 20
ATOM     17  C1  BGC B   2      19.064  14.587   6.9630  0.00  0.00     0.000 C
ATOM     18  C2  BGC B   2      17.711  14.728   7.6430  0.00  0.00     0.000 C
ATOM     19  C3  BGC B   2      17.222  16.163   7.4590  0.00  0.00     0.000 C
ATOM     20  C4  BGC B   2      18.269  17.145   7.9440  0.00  0.00     0.000 C
ATOM     21  C5  BGC B   2      19.657  16.845   7.3770  0.00  0.00     0.000 C
ATOM     22  O5  BGC B   2      19.972  15.473   7.6450  0.00  0.00     0.000 O
ATOM     23   O  BGC B   2      16.762  13.828   7.0460  0.00  0.00     0.000 O
ATOM     25  HD  BGC B   2      16.902  14.680   6.9770  0.00  0.00     0.000 HD
ATOM     25   O  BGC B   2      16.002  16.353   8.1660  0.00  0.00     0.000 O
ATOM     27  HD  BGC B   2      16.142  17.205   8.0960  0.00  0.00     0.000 HD
ATOM     27   C  BGC B   2      20.751  17.702   8.0000  0.00  0.00     0.000 C
ATOM     28   O  BGC B   2      20.812  17.597   9.4130  0.00  0.00     0.000 O
ATOM     30  HD  BGC B   2      20.952  18.449   9.3430  0.00  0.00     0.000 HD
BRANCH 17 30
ATOM     30  O4  BGC B   3      19.534  13.284   7.2500  0.00  0.00     0.000 O
BRANCH 30 34
ATOM     31  C1  BGC B   3      21.849  10.328   5.5680  0.00  0.00     0.000 C
ATOM     32  C2  BGC B   3      22.630  11.553   6.0430  0.00  0.00     0.000 C
ATOM     33  C3  BGC B   3      21.751  12.363   6.9790  0.00  0.00     0.000 C
ATOM     34  C4  BGC B   3      20.434  12.721   6.2910  0.00  0.00     0.000 C
ATOM     35  C5  BGC B   3      19.782  11.475   5.7180  0.00  0.00     0.000 C
ATOM     36  O5  BGC B   3      20.712  10.801   4.8630  0.00  0.00     0.000 O
ATOM     37   O  BGC B   3      23.786  11.130   6.7620  0.00  0.00     0.000 O
ATOM     39  HD  BGC B   3      24.064  11.950   6.7660  0.00  0.00     0.000 HD
ATOM     39   O  BGC B   3      22.456  13.537   7.3540  0.00  0.00     0.000 O
ATOM     41  HD  BGC B   3      22.733  14.358   7.3570  0.00  0.00     0.000 HD
ATOM     41   C  BGC B   3      18.505  11.749   4.9320  0.00  0.00     0.000 C
ATOM     42   O  BGC B   3      18.768  12.643   3.8760  0.00  0.00     0.000 O
ATOM     44  HD  BGC B   3      19.046  13.463   3.8790  0.00  0.00     0.000 HD
BRANCH 31 44
ATOM     44  O4  BGC B   4      22.653   9.661   4.6290  0.00  0.00     0.000 O
BRANCH 44 48
ATOM     45  C1  BGC B   4      23.449   5.893   3.2260  0.00  0.00     0.000 C
ATOM     46  C2  BGC B   4      22.085   6.444   2.8350  0.00  0.00     0.000 C
ATOM     47  C3  BGC B   4      22.063   7.936   3.0570  0.00  0.00     0.000 C
ATOM     48  C4  BGC B   4      22.474   8.266   4.4950  0.00  0.00     0.000 C
ATOM     49  C5  BGC B   4      23.806   7.591   4.8430  0.00  0.00     0.000 C
ATOM     50  O5  BGC B   4      23.713   6.179   4.6000  0.00  0.00     0.000 O
ATOM     51   O  BGC B   4      21.823   6.172   1.4450  0.00  0.00     0.000 O
ATOM     53  HD  BGC B   4      22.040   7.008   1.3820  0.00  0.00     0.000 HD
ATOM     53   O  BGC B   4      20.736   8.421   2.8090  0.00  0.00     0.000 O
ATOM     55  HD  BGC B   4      20.953   9.257   2.7470  0.00  0.00     0.000 HD
ATOM     55   C  BGC B   4      24.239   7.764   6.2880  0.00  0.00     0.000 C
ATOM     56   O  BGC B   4      23.177   7.296   7.1200  0.00  0.00     0.000 O
ATOM     58  HD  BGC B   4      23.394   8.132   7.0580  0.00  0.00     0.000 HD
BRANCH 45 58
ATOM     58  O4  BGC B   5      23.309   4.472   3.2350  0.00  0.00     0.000 O
BRANCH 58 62
ATOM     59  C1  BGC B   5      25.198   1.006   1.9860  0.00  0.00     0.000 C
ATOM     60  C2  BGC B   5      25.837   1.704   3.1690  0.00  0.00     0.000 C
ATOM     61  C3  BGC B   5      24.867   2.689   3.7940  0.00  0.00     0.000 C
ATOM     62  C4  BGC B   5      24.364   3.651   2.7300  0.00  0.00     0.000 C
ATOM     63  C5  BGC B   5      23.803   2.881   1.5260  0.00  0.00     0.000 C
ATOM     64  O5  BGC B   5      24.808   2.001   1.0340  0.00  0.00     0.000 O
ATOM     65   O  BGC B   5      24.540   4.536   0.0380  0.00  0.00     0.000 O
ATOM     67  HD  BGC B   5      24.770   5.371   0.0140  0.00  0.00     0.000 HD
ATOM     67   O  BGC B   5      24.540   4.536   0.0380  0.00  0.00     0.000 O
ATOM     69  HD  BGC B   5      24.770   5.371   0.0140  0.00  0.00     0.000 HD
ENDBRANCH 58 62
ENDBRANCH 45 58
ENDBRANCH 44 48
ENDBRANCH 31 44
ENDBRANCH 30 34
ENDBRANCH 17 30
ENDBRANCH 16 20
ENDBRANCH 1 16
TORSDOF 8
ENDMDL
MODEL 13
REMARK VINA RESULT:      -1.7      8.010     14.462
ROOT
ATOM      1  C1  BGC B   1      17.162   7.807   4.0390  0.00  0.00     0.000 C
ATOM      2  C2  BGC B   1      16.246   7.858   5.2610  0.00  0.00     0.000 C
ATOM      3  C3  BGC B   1      14.839   8.238   4.8410  0.00  0.00     0.000 C
ATOM      4  C4  BGC B   1      14.851   9.510   4.0020  0.00  0.00     0.000 C
ATOM      5  C5  BGC B   1      15.789   9.300   2.8230  0.00  0.00     0.000 C
ATOM      6  O5  BGC B   1      17.103   9.052   3.3570  0.00  0.00     0.000 O
ATOM      7   O  BGC B   1      16.221   6.565   5.8870  0.00  0.00     0.000 O
ATOM      9  HD  BGC B   1      15.510   6.347   6.3310  0.00  0.00     0.000 HD
ATOM      9   O  BGC B   1      14.037   8.408   6.0140  0.00  0.00     0.000 O
ATOM     11  HD  BGC B   1      13.327   8.190   6.4580  0.00  0.00     0.000 HD
ATOM     11   O  BGC B   1      13.547   9.783   3.5370  0.00  0.00     0.000 O
ATOM     13  HD  BGC B   1      12.837   9.565   3.9810  0.00  0.00     0.000 HD
ATOM     13   C  BGC B   1      15.873  10.473   1.8570  0.00  0.00     0.000 C
ATOM     14   O  BGC B   1      16.230  11.688   2.5090  0.00  0.00     0.000 O
ATOM     16  HD  BGC B   1      15.519  11.470   2.9530  0.00  0.00     0.000 HD
ENDROOT
BRANCH 1 16
ATOM     16  O4  BGC B   2      18.494   7.722   4.5430  0.00  0.00     0.000 O
BRANCH 16 20
ATOM     17  C1  BGC B   2      22.156   6.187   3.6670  0.00  0.00     0.000 C
ATOM     18  C2  BGC B   2      21.715   7.295   2.7210  0.00  0.00     0.000 C
ATOM     19  C3  BGC B   2      20.532   8.026   3.3500  0.00  0.00     0.000 C
ATOM     20  C4  BGC B   2      19.436   7.046   3.7150  0.00  0.00     0.000 C
ATOM     21  C5  BGC B   2      19.965   5.849   4.5060  0.00  0.00     0.000 C
ATOM     22  O5  BGC B   2      21.054   5.267   3.7790  0.00  0.00     0.000 O
ATOM     23   O  BGC B   2      22.790   8.227   2.5180  0.00  0.00     0.000 O
ATOM     25  HD  BGC B   2      22.069   8.243   2.9970  0.00  0.00     0.000 HD
ATOM     25   O  BGC B   2      20.034   9.008   2.4480  0.00  0.00     0.000 O
ATOM     27  HD  BGC B   2      19.313   9.024   2.9260  0.00  0.00     0.000 HD
ATOM     27   C  BGC B   2      18.915   4.765   4.7160  0.00  0.00     0.000 C
ATOM     28   O  BGC B   2      18.350   4.287   3.5060  0.00  0.00     0.000 O
ATOM     30  HD  BGC B   2      17.629   4.304   3.9840  0.00  0.00     0.000 HD
BRANCH 17 30
ATOM     30  O4  BGC B   3      23.175   5.464   3.0030  0.00  0.00     0.000 O
BRANCH 30 34
ATOM     31  C1  BGC B   3      26.671   3.465   3.8470  0.00  0.00     0.000 C
ATOM     32  C2  BGC B   3      25.401   2.731   4.2750  0.00  0.00     0.000 C
ATOM     33  C3  BGC B   3      24.210   3.355   3.5690  0.00  0.00     0.000 C
ATOM     34  C4  BGC B   3      24.159   4.857   3.8480  0.00  0.00     0.000 C
ATOM     35  C5  BGC B   3      25.499   5.499   3.5340  0.00  0.00     0.000 C
ATOM     36  O5  BGC B   3      26.533   4.818   4.2530  0.00  0.00     0.000 O
ATOM     37   O  BGC B   3      25.489   1.362   3.8870  0.00  0.00     0.000 O
ATOM     39  HD  BGC B   3      24.774   1.202   4.3490  0.00  0.00     0.000 HD
ATOM     39   O  BGC B   3      23.028   2.719   4.0310  0.00  0.00     0.000 O
ATOM     41  HD  BGC B   3      22.314   2.559   4.4940  0.00  0.00     0.000 HD
ATOM     41   C  BGC B   3      25.567   6.985   3.8700  0.00  0.00     0.000 C
ATOM     42   O  BGC B   3      25.281   7.188   5.2340  0.00  0.00     0.000 O
ATOM     44  HD  BGC B   3      24.567   7.028   5.6960  0.00  0.00     0.000 HD
BRANCH 31 44
ATOM     44  O4  BGC B   4      27.732   2.930   4.5950  0.00  0.00     0.000 O
BRANCH 44 48
ATOM     45  C1  BGC B   4      31.773   2.281   4.3560  0.00  0.00     0.000 C
ATOM     46  C2  BGC B   4      31.373   3.728   4.6110  0.00  0.00     0.000 C
ATOM     47  C3  BGC B   4      29.935   3.780   5.0650  0.00  0.00     0.000 C
ATOM     48  C4  BGC B   4      29.034   3.057   4.0590  0.00  0.00     0.000 C
ATOM     49  C5  BGC B   4      29.562   1.645   3.7790  0.00  0.00     0.000 C
ATOM     50  O5  BGC B   4      30.930   1.715   3.3510  0.00  0.00     0.000 O
ATOM     51   O  BGC B   4      32.210   4.297   5.6350  0.00  0.00     0.000 O
ATOM     53  HD  BGC B   4      31.499   4.149   6.1060  0.00  0.00     0.000 HD
ATOM     53   O  BGC B   4      29.534   5.153   5.1750  0.00  0.00     0.000 O
ATOM     55  HD  BGC B   4      28.823   5.004   5.6460  0.00  0.00     0.000 HD
ATOM     55   C  BGC B   4      28.799   0.891   2.7050  0.00  0.00     0.000 C
ATOM     56   O  BGC B   4      28.797   1.697   1.5250  0.00  0.00     0.000 O
ATOM     58  HD  BGC B   4      28.086   1.548   1.9960  0.00  0.00     0.000 HD
BRANCH 45 58
ATOM     58  O4  BGC B   5      33.036   2.336   3.6930  0.00  0.00     0.000 O
BRANCH 58 62
ATOM     59  C1  BGC B   5      36.184  -0.087   2.5250  0.00  0.00     0.000 C
ATOM     60  C2  BGC B   5      34.965  -0.127   1.6260  0.00  0.00     0.000 C
ATOM     61  C3  BGC B   5      34.068   1.067   1.8910  0.00  0.00     0.000 C
ATOM     62  C4  BGC B   5      33.721   1.124   3.3700  0.00  0.00     0.000 C
ATOM     63  C5  BGC B   5      34.995   1.081   4.2270  0.00  0.00     0.000 C
ATOM     64  O5  BGC B   5      35.740  -0.083   3.8850  0.00  0.00     0.000 O
ATOM     65   O  BGC B   5      33.903  -0.126   5.9140  0.00  0.00     0.000 O
ATOM     67  HD  BGC B   5      33.110  -0.299   6.2170  0.00  0.00     0.000 HD
ATOM     67   O  BGC B   5      33.903  -0.126   5.9140  0.00  0.00     0.000 O
ATOM     69  HD  BGC B   5      33.110  -0.299   6.2170  0.00  0.00     0.000 HD
ENDBRANCH 58 62
ENDBRANCH 45 58
ENDBRANCH 44 48
ENDBRANCH 31 44
ENDBRANCH 30 34
ENDBRANCH 17 30
ENDBRANCH 16 20
ENDBRANCH 1 16
TORSDOF 8
ENDMDL
MODEL 14
REMARK VINA RESULT:      -1.6      8.771     16.330
ROOT
ATOM      1  C1  BGC B   1      19.846   3.959   4.8040  0.00  0.00     0.000 C
ATOM      2  C2  BGC B   1      18.860   4.430   3.7370  0.00  0.00     0.000 C
ATOM      3  C3  BGC B   1      17.436   4.194   4.2030  0.00  0.00     0.000 C
ATOM      4  C4  BGC B   1      17.248   2.750   4.6500  0.00  0.00     0.000 C
ATOM      5  C5  BGC B   1      18.285   2.437   5.7180  0.00  0.00     0.000 C
ATOM      6  O5  BGC B   1      19.583   2.599   5.1180  0.00  0.00     0.000 O
ATOM      7   O  BGC B   1      19.054   5.835   3.5000  0.00  0.00     0.000 O
ATOM      9  HD  BGC B   1      18.373   6.294   3.2240  0.00  0.00     0.000 HD
ATOM      9   O  BGC B   1      16.540   4.519   3.1360  0.00  0.00     0.000 O
ATOM     11  HD  BGC B   1      15.860   4.978   2.8590  0.00  0.00     0.000 HD
ATOM     11   O  BGC B   1      15.949   2.583   5.1760  0.00  0.00     0.000 O
ATOM     13  HD  BGC B   1      15.269   3.042   4.9000  0.00  0.00     0.000 HD
ATOM     13   C  BGC B   1      18.195   1.035   6.3040  0.00  0.00     0.000 C
ATOM     14   O  BGC B   1      18.256   0.023   5.3030  0.00  0.00     0.000 O
ATOM     16  HD  BGC B   1      17.576   0.483   5.0270  0.00  0.00     0.000 HD
ENDROOT
BRANCH 1 16
ATOM     16  O4  BGC B   2      21.131   3.957   4.1850  0.00  0.00     0.000 O
BRANCH 16 20
ATOM     17  C1  BGC B   2      25.068   4.602   4.9750  0.00  0.00     0.000 C
ATOM     18  C2  BGC B   2      24.489   3.394   5.6980  0.00  0.00     0.000 C
ATOM     19  C3  BGC B   2      23.150   3.041   5.0560  0.00  0.00     0.000 C
ATOM     20  C4  BGC B   2      22.238   4.251   5.0340  0.00  0.00     0.000 C
ATOM     21  C5  BGC B   2      22.930   5.493   4.4710  0.00  0.00     0.000 C
ATOM     22  O5  BGC B   2      24.155   5.695   5.1860  0.00  0.00     0.000 O
ATOM     23   O  BGC B   2      25.380   2.273   5.5750  0.00  0.00     0.000 O
ATOM     25  HD  BGC B   2      24.638   2.491   5.1850  0.00  0.00     0.000 HD
ATOM     25   O  BGC B   2      22.537   1.974   5.7700  0.00  0.00     0.000 O
ATOM     27  HD  BGC B   2      21.795   2.193   5.3800  0.00  0.00     0.000 HD
ATOM     27   C  BGC B   2      22.092   6.757   4.6180  0.00  0.00     0.000 C
ATOM     28   O  BGC B   2      21.710   7.026   5.9570  0.00  0.00     0.000 O
ATOM     30  HD  BGC B   2      20.968   7.244   5.5670  0.00  0.00     0.000 HD
BRANCH 17 30
ATOM     30  O4  BGC B   3      26.247   4.967   5.6670  0.00  0.00     0.000 O
BRANCH 30 34
ATOM     31  C1  BGC B   3      29.905   6.702   4.9340  0.00  0.00     0.000 C
ATOM     32  C2  BGC B   3      28.733   7.681   4.9640  0.00  0.00     0.000 C
ATOM     33  C3  BGC B   3      27.544   7.005   5.6230  0.00  0.00     0.000 C
ATOM     34  C4  BGC B   3      27.215   5.696   4.9050  0.00  0.00     0.000 C
ATOM     35  C5  BGC B   3      28.458   4.833   4.7850  0.00  0.00     0.000 C
ATOM     36  O5  BGC B   3      29.502   5.585   4.1580  0.00  0.00     0.000 O
ATOM     37   O  BGC B   3      29.088   8.825   5.7370  0.00  0.00     0.000 O
ATOM     39  HD  BGC B   3      28.361   9.212   5.4680  0.00  0.00     0.000 HD
ATOM     39   O  BGC B   3      26.438   7.894   5.5760  0.00  0.00     0.000 O
ATOM     41  HD  BGC B   3      25.711   8.281   5.3070  0.00  0.00     0.000 HD
ATOM     41   C  BGC B   3      28.244   3.544   4.0000  0.00  0.00     0.000 C
ATOM     42   O  BGC B   3      27.775   3.837   2.7050  0.00  0.00     0.000 O
ATOM     44  HD  BGC B   3      27.049   4.224   2.4350  0.00  0.00     0.000 HD
BRANCH 31 44
ATOM     44  O4  BGC B   4      30.948   7.323   4.2290  0.00  0.00     0.000 O
BRANCH 44 48
ATOM     45  C1  BGC B   4      35.042   7.519   4.1450  0.00  0.00     0.000 C
ATOM     46  C2  BGC B   4      34.452   6.251   3.5450  0.00  0.00     0.000 C
ATOM     47  C3  BGC B   4      32.982   6.459   3.2740  0.00  0.00     0.000 C
ATOM     48  C4  BGC B   4      32.269   6.932   4.5450  0.00  0.00     0.000 C
ATOM     49  C5  BGC B   4      32.984   8.150   5.1430  0.00  0.00     0.000 C
ATOM     50  O5  BGC B   4      34.368   7.840   5.3630  0.00  0.00     0.000 O
ATOM     51   O  BGC B   4      35.118   5.935   2.3080  0.00  0.00     0.000 O
ATOM     53  HD  BGC B   4      34.389   6.276   1.9880  0.00  0.00     0.000 HD
ATOM     53   O  BGC B   4      32.413   5.218   2.8330  0.00  0.00     0.000 O
ATOM     55  HD  BGC B   4      31.684   5.560   2.5130  0.00  0.00     0.000 HD
ATOM     55   C  BGC B   4      32.418   8.621   6.4700  0.00  0.00     0.000 C
ATOM     56   O  BGC B   4      32.429   7.509   7.3670  0.00  0.00     0.000 O
ATOM     58  HD  BGC B   4      31.701   7.850   7.0470  0.00  0.00     0.000 HD
BRANCH 45 58
ATOM     58  O4  BGC B   5      36.346   7.164   4.6060  0.00  0.00     0.000 O
BRANCH 58 62
ATOM     59  C1  BGC B   5      40.166   8.707   5.0240  0.00  0.00     0.000 C
ATOM     60  C2  BGC B   5      39.169   9.144   6.0780  0.00  0.00     0.000 C
ATOM     61  C3  BGC B   5      37.962   8.226   6.0830  0.00  0.00     0.000 C
ATOM     62  C4  BGC B   5      37.366   8.162   4.6860  0.00  0.00     0.000 C
ATOM     63  C5  BGC B   5      38.443   7.793   3.6550  0.00  0.00     0.000 C
ATOM     64  O5  BGC B   5      39.512   8.729   3.7510  0.00  0.00     0.000 O
ATOM     65   O  BGC B   5      37.431   9.130   2.0170  0.00  0.00     0.000 O
ATOM     67  HD  BGC B   5      36.671   9.493   1.8140  0.00  0.00     0.000 HD
ATOM     67   O  BGC B   5      37.431   9.130   2.0170  0.00  0.00     0.000 O
ATOM     69  HD  BGC B   5      36.671   9.493   1.8140  0.00  0.00     0.000 HD
ENDBRANCH 58 62
ENDBRANCH 45 58
ENDBRANCH 44 48
ENDBRANCH 31 44
ENDBRANCH 30 34
ENDBRANCH 17 30
ENDBRANCH 16 20
ENDBRANCH 1 16
TORSDOF 8
ENDMDL
MODEL 15
REMARK VINA RESULT:      -1.5      8.584     15.679
ROOT
ATOM      1  C1  BGC B   1      18.234   8.741   3.6290  0.00  0.00     0.000 C
ATOM      2  C2  BGC B   1      17.434   8.280   4.8460  0.00  0.00     0.000 C
ATOM      3  C3  BGC B   1      15.949   8.337   4.5450  0.00  0.00     0.000 C
ATOM      4  C4  BGC B   1      15.559   9.710   4.0110  0.00  0.00     0.000 C
ATOM      5  C5  BGC B   1      16.426  10.020   2.7990  0.00  0.00     0.000 C
ATOM      6  O5  BGC B   1      17.796  10.036   3.2430  0.00  0.00     0.000 O
ATOM      7   O  BGC B   1      17.799   6.928   5.1680  0.00  0.00     0.000 O
ATOM      9  HD  BGC B   1      17.208   6.435   5.5640  0.00  0.00     0.000 HD
ATOM      9   O  BGC B   1      15.223   8.030   5.7390  0.00  0.00     0.000 O
ATOM     11  HD  BGC B   1      14.631   7.537   6.1340  0.00  0.00     0.000 HD
ATOM     11   O  BGC B   1      14.198   9.706   3.6400  0.00  0.00     0.000 O
ATOM     13  HD  BGC B   1      13.607   9.212   4.0350  0.00  0.00     0.000 HD
ATOM     13   C  BGC B   1      16.122  11.346   2.1180  0.00  0.00     0.000 C
ATOM     14   O  BGC B   1      16.194  12.447   3.0190  0.00  0.00     0.000 O
ATOM     16  HD  BGC B   1      15.602  11.954   3.4150  0.00  0.00     0.000 HD
ENDROOT
BRANCH 1 16
ATOM     16  O4  BGC B   2      19.575   8.922   4.0790  0.00  0.00     0.000 O
BRANCH 16 20
ATOM     17  C1  BGC B   2      23.440   8.509   2.8830  0.00  0.00     0.000 C
ATOM     18  C2  BGC B   2      22.636   9.480   2.0300  0.00  0.00     0.000 C
ATOM     19  C3  BGC B   2      21.348   9.827   2.7730  0.00  0.00     0.000 C
ATOM     20  C4  BGC B   2      20.601   8.566   3.1560  0.00  0.00     0.000 C
ATOM     21  C5  BGC B   2      21.502   7.540   3.8440  0.00  0.00     0.000 C
ATOM     22  O5  BGC B   2      22.650   7.313   3.0170  0.00  0.00     0.000 O
ATOM     23   O  BGC B   2      23.389  10.683   1.8070  0.00  0.00     0.000 O
ATOM     25  HD  BGC B   2      22.732  10.480   2.3320  0.00  0.00     0.000 HD
ATOM     25   O  BGC B   2      20.529  10.658   1.9600  0.00  0.00     0.000 O
ATOM     27  HD  BGC B   2      19.871  10.455   2.4850  0.00  0.00     0.000 HD
ATOM     27   C  BGC B   2      20.815   6.198   4.0640  0.00  0.00     0.000 C
ATOM     28   O  BGC B   2      20.312   5.622   2.8700  0.00  0.00     0.000 O
ATOM     30  HD  BGC B   2      19.655   5.419   3.3950  0.00  0.00     0.000 HD
BRANCH 17 30
ATOM     30  O4  BGC B   3      24.565   8.125   2.1150  0.00  0.00     0.000 O
BRANCH 30 34
ATOM     31  C1  BGC B   3      28.425   6.810   2.6600  0.00  0.00     0.000 C
ATOM     32  C2  BGC B   3      27.354   5.741   2.8770  0.00  0.00     0.000 C
ATOM     33  C3  BGC B   3      26.048   6.224   2.2710  0.00  0.00     0.000 C
ATOM     34  C4  BGC B   3      25.666   7.585   2.8520  0.00  0.00     0.000 C
ATOM     35  C5  BGC B   3      26.827   8.556   2.7310  0.00  0.00     0.000 C
ATOM     36  O5  BGC B   3      27.993   7.982   3.3320  0.00  0.00     0.000 O
ATOM     37   O  BGC B   3      27.741   4.538   2.2170  0.00  0.00     0.000 O
ATOM     39  HD  BGC B   3      27.084   4.132   2.6080  0.00  0.00     0.000 HD
ATOM     39   O  BGC B   3      25.042   5.261   2.5450  0.00  0.00     0.000 O
ATOM     41  HD  BGC B   3      24.385   4.855   2.9360  0.00  0.00     0.000 HD
ATOM     41   C  BGC B   3      26.566   9.916   3.3700  0.00  0.00     0.000 C
ATOM     42   O  BGC B   3      26.254   9.759   4.7340  0.00  0.00     0.000 O
ATOM     44  HD  BGC B   3      25.597   9.352   5.1260  0.00  0.00     0.000 HD
BRANCH 31 44
ATOM     44  O4  BGC B   4      29.585   6.375   3.3210  0.00  0.00     0.000 O
BRANCH 44 48
ATOM     45  C1  BGC B   4      33.667   6.456   2.9530  0.00  0.00     0.000 C
ATOM     46  C2  BGC B   4      33.039   7.775   3.3820  0.00  0.00     0.000 C
ATOM     47  C3  BGC B   4      31.629   7.529   3.8580  0.00  0.00     0.000 C
ATOM     48  C4  BGC B   4      30.828   6.782   2.7860  0.00  0.00     0.000 C
ATOM     49  C5  BGC B   4      31.576   5.521   2.3350  0.00  0.00     0.000 C
ATOM     50  O5  BGC B   4      32.898   5.872   1.9000  0.00  0.00     0.000 O
ATOM     51   O  BGC B   4      33.802   8.358   4.4550  0.00  0.00     0.000 O
ATOM     53  HD  BGC B   4      33.142   8.038   4.9150  0.00  0.00     0.000 HD
ATOM     53   O  BGC B   4      31.007   8.792   4.1340  0.00  0.00     0.000 O
ATOM     55  HD  BGC B   4      30.347   8.472   4.5940  0.00  0.00     0.000 HD
ATOM     55   C  BGC B   4      30.915   4.776   1.1900  0.00  0.00     0.000 C
ATOM     56   O  BGC B   4      30.740   5.698   0.1130  0.00  0.00     0.000 O
ATOM     58  HD  BGC B   4      30.079   5.378   0.5730  0.00  0.00     0.000 HD
BRANCH 45 58
ATOM     58  O4  BGC B   5      34.881   6.800   2.2850  0.00  0.00     0.000 O
BRANCH 58 62
ATOM     59  C1  BGC B   5      38.889   5.779   2.0830  0.00  0.00     0.000 C
ATOM     60  C2  BGC B   5      37.933   4.786   1.4530  0.00  0.00     0.000 C
ATOM     61  C3  BGC B   5      36.581   5.430   1.2100  0.00  0.00     0.000 C
ATOM     62  C4  BGC B   5      36.060   6.023   2.5090  0.00  0.00     0.000 C
ATOM     63  C5  BGC B   5      37.106   6.956   3.1360  0.00  0.00     0.000 C
ATOM     64  O5  BGC B   5      38.319   6.233   3.3140  0.00  0.00     0.000 O
ATOM     65   O  BGC B   5      36.442   6.357   5.3030  0.00  0.00     0.000 O
ATOM     67  HD  BGC B   5      35.772   6.021   5.7370  0.00  0.00     0.000 HD
ATOM     67   O  BGC B   5      36.442   6.357   5.3030  0.00  0.00     0.000 O
ATOM     69  HD  BGC B   5      35.772   6.021   5.7370  0.00  0.00     0.000 HD
ENDBRANCH 58 62
ENDBRANCH 45 58
ENDBRANCH 44 48
ENDBRANCH 31 44
ENDBRANCH 30 34
ENDBRANCH 17 30
ENDBRANCH 16 20
ENDBRANCH 1 16
TORSDOF 8
ENDMDL
MODEL 16
REMARK VINA RESULT:      -1.5      7.565     15.845
ROOT
ATOM      1  C1  BGC B   1      17.792  19.533   8.5380  0.00  0.00     0.000 C
ATOM      2  C2  BGC B   1      18.458  20.371   7.4480  0.00  0.00     0.000 C
ATOM      3  C3  BGC B   1      19.276  21.484   8.0740  0.00  0.00     0.000 C
ATOM      4  C4  BGC B   1      18.433  22.281   9.0620  0.00  0.00     0.000 C
ATOM      5  C5  BGC B   1      17.853  21.318  10.0870  0.00  0.00     0.000 C
ATOM      6  O5  BGC B   1      17.021  20.383   9.3760  0.00  0.00     0.000 O
ATOM      7   O  BGC B   1      19.324  19.529   6.6680  0.00  0.00     0.000 O
ATOM      9  HD  BGC B   1      20.007  19.899   6.2850  0.00  0.00     0.000 HD
ATOM      9   O  BGC B   1      19.778  22.329   7.0340  0.00  0.00     0.000 O
ATOM     11  HD  BGC B   1      20.461  22.700   6.6520  0.00  0.00     0.000 HD
ATOM     11   O  BGC B   1      19.242  23.241   9.7070  0.00  0.00     0.000 O
ATOM     13  HD  BGC B   1      19.925  23.611   9.3240  0.00  0.00     0.000 HD
ATOM     13   C  BGC B   1      17.020  21.974  11.1790  0.00  0.00     0.000 C
ATOM     14   O  BGC B   1      15.961  22.765  10.6520  0.00  0.00     0.000 O
ATOM     16  HD  BGC B   1      16.644  23.135  10.2690  0.00  0.00     0.000 HD
ENDROOT
BRANCH 1 16
ATOM     16  O4  BGC B   2      16.840  18.703   7.8750  0.00  0.00     0.000 O
BRANCH 16 20
ATOM     17  C1  BGC B   2      15.163  15.004   8.0780  0.00  0.00     0.000 C
ATOM     18  C2  BGC B   2      14.602  15.986   9.0970  0.00  0.00     0.000 C
ATOM     19  C3  BGC B   2      15.025  17.396   8.6930  0.00  0.00     0.000 C
ATOM     20  C4  BGC B   2      16.528  17.469   8.5180  0.00  0.00     0.000 C
ATOM     21  C5  BGC B   2      17.067  16.343   7.6350  0.00  0.00     0.000 C
ATOM     22  O5  BGC B   2      16.598  15.092   8.1540  0.00  0.00     0.000 O
ATOM     23   O  BGC B   2      13.167  15.912   9.1160  0.00  0.00     0.000 O
ATOM     25  HD  BGC B   2      13.731  16.472   8.7720  0.00  0.00     0.000 HD
ATOM     25   O  BGC B   2      14.598  18.330   9.6780  0.00  0.00     0.000 O
ATOM     27  HD  BGC B   2      15.162  18.890   9.3340  0.00  0.00     0.000 HD
ATOM     27   C  BGC B   2      18.590  16.290   7.6030  0.00  0.00     0.000 C
ATOM     28   O  BGC B   2      19.175  16.170   8.8900  0.00  0.00     0.000 O
ATOM     30  HD  BGC B   2      19.739  16.730   8.5460  0.00  0.00     0.000 HD
BRANCH 17 30
ATOM     30  O4  BGC B   3      14.848  13.705   8.5450  0.00  0.00     0.000 O
BRANCH 30 34
ATOM     31  C1  BGC B   3      13.999   9.954   7.0850  0.00  0.00     0.000 C
ATOM     32  C2  BGC B   3      15.457  10.382   6.9250  0.00  0.00     0.000 C
ATOM     33  C3  BGC B   3      15.723  11.569   7.8340  0.00  0.00     0.000 C
ATOM     34  C4  BGC B   3      14.732  12.693   7.5400  0.00  0.00     0.000 C
ATOM     35  C5  BGC B   3      13.308  12.166   7.5760  0.00  0.00     0.000 C
ATOM     36  O5  BGC B   3      13.191  11.050   6.6860  0.00  0.00     0.000 O
ATOM     37   O  BGC B   3      16.313   9.311   7.3180  0.00  0.00     0.000 O
ATOM     39  HD  BGC B   3      16.986   9.757   7.0050  0.00  0.00     0.000 HD
ATOM     39   O  BGC B   3      17.057  12.008   7.6220  0.00  0.00     0.000 O
ATOM     41  HD  BGC B   3      17.730  12.454   7.3090  0.00  0.00     0.000 HD
ATOM     41   C  BGC B   3      12.254  13.202   7.2020  0.00  0.00     0.000 C
ATOM     42   O  BGC B   3      12.510  13.713   5.9150  0.00  0.00     0.000 O
ATOM     44  HD  BGC B   3      13.183  14.159   5.6030  0.00  0.00     0.000 HD
BRANCH 31 44
ATOM     44  O4  BGC B   4      13.763   8.926   6.1580  0.00  0.00     0.000 O
BRANCH 44 48
ATOM     45  C1  BGC B   4      11.508   5.537   5.6720  0.00  0.00     0.000 C
ATOM     46  C2  BGC B   4      10.730   6.841   5.5680  0.00  0.00     0.000 C
ATOM     47  C3  BGC B   4      11.692   7.986   5.3680  0.00  0.00     0.000 C
ATOM     48  C4  BGC B   4      12.755   7.987   6.4720  0.00  0.00     0.000 C
ATOM     49  C5  BGC B   4      13.420   6.609   6.5800  0.00  0.00     0.000 C
ATOM     50  O5  BGC B   4      12.417   5.600   6.7720  0.00  0.00     0.000 O
ATOM     51   O  BGC B   4       9.825   6.788   4.4490  0.00  0.00     0.000 O
ATOM     53  HD  BGC B   4      10.448   7.276   4.0980  0.00  0.00     0.000 HD
ATOM     53   O  BGC B   4      10.958   9.219   5.4030  0.00  0.00     0.000 O
ATOM     55  HD  BGC B   4      11.581   9.707   5.0520  0.00  0.00     0.000 HD
ATOM     55   C  BGC B   4      14.407   6.477   7.7250  0.00  0.00     0.000 C
ATOM     56   O  BGC B   4      13.726   6.831   8.9310  0.00  0.00     0.000 O
ATOM     58  HD  BGC B   4      14.349   7.319   8.5800  0.00  0.00     0.000 HD
BRANCH 45 58
ATOM     58  O4  BGC B   5      10.569   4.556   6.1120  0.00  0.00     0.000 O
BRANCH 58 62
ATOM     59  C1  BGC B   5       9.203   0.755   5.1980  0.00  0.00     0.000 C
ATOM     60  C2  BGC B   5      10.492   0.809   5.9940  0.00  0.00     0.000 C
ATOM     61  C3  BGC B   5      10.675   2.179   6.6200  0.00  0.00     0.000 C
ATOM     62  C4  BGC B   5      10.591   3.246   5.5410  0.00  0.00     0.000 C
ATOM     63  C5  BGC B   5       9.302   3.087   4.7210  0.00  0.00     0.000 C
ATOM     64  O5  BGC B   5       9.255   1.768   4.1880  0.00  0.00     0.000 O
ATOM     65   O  BGC B   5      10.371   3.826   2.7700  0.00  0.00     0.000 O
ATOM     67  HD  BGC B   5      11.058   4.282   2.5060  0.00  0.00     0.000 HD
ATOM     67   O  BGC B   5      10.371   3.826   2.7700  0.00  0.00     0.000 O
ATOM     69  HD  BGC B   5      11.058   4.282   2.5060  0.00  0.00     0.000 HD
ENDBRANCH 58 62
ENDBRANCH 45 58
ENDBRANCH 44 48
ENDBRANCH 31 44
ENDBRANCH 30 34
ENDBRANCH 17 30
ENDBRANCH 16 20
ENDBRANCH 1 16
TORSDOF 8
ENDMDL
MODEL 17
REMARK VINA RESULT:      -1.1      8.809     16.502
ROOT
ATOM      1  C1  BGC B   1      19.702   7.277   3.9040  0.00  0.00     0.000 C
ATOM      2  C2  BGC B   1      18.426   7.689   3.1710  0.00  0.00     0.000 C
ATOM      3  C3  BGC B   1      17.208   7.199   3.9300  0.00  0.00     0.000 C
ATOM      4  C4  BGC B   1      17.319   5.708   4.2230  0.00  0.00     0.000 C
ATOM      5  C5  BGC B   1      18.624   5.459   4.9640  0.00  0.00     0.000 C
ATOM      6  O5  BGC B   1      19.697   5.869   4.0970  0.00  0.00     0.000 O
ATOM      7   O  BGC B   1      18.378   9.122   3.0740  0.00  0.00     0.000 O
ATOM      9  HD  BGC B   1      17.599   9.497   3.0280  0.00  0.00     0.000 HD
ATOM      9   O  BGC B   1      16.037   7.481   3.1570  0.00  0.00     0.000 O
ATOM     11  HD  BGC B   1      15.258   7.855   3.1110  0.00  0.00     0.000 HD
ATOM     11   O  BGC B   1      16.228   5.299   5.0190  0.00  0.00     0.000 O
ATOM     13  HD  BGC B   1      15.448   5.674   4.9730  0.00  0.00     0.000 HD
ATOM     13   C  BGC B   1      18.860   4.012   5.3740  0.00  0.00     0.000 C
ATOM     14   O  BGC B   1      18.789   3.117   4.2680  0.00  0.00     0.000 O
ATOM     16  HD  BGC B   1      18.009   3.491   4.2220  0.00  0.00     0.000 HD
ENDROOT
BRANCH 1 16
ATOM     16  O4  BGC B   2      20.777   7.525   3.0000  0.00  0.00     0.000 O
BRANCH 16 20
ATOM     17  C1  BGC B   2      24.801   8.110   2.9190  0.00  0.00     0.000 C
ATOM     18  C2  BGC B   2      24.398   6.664   3.1700  0.00  0.00     0.000 C
ATOM     19  C3  BGC B   2      22.921   6.504   2.8180  0.00  0.00     0.000 C
ATOM     20  C4  BGC B   2      22.085   7.523   3.5670  0.00  0.00     0.000 C
ATOM     21  C5  BGC B   2      22.642   8.941   3.4380  0.00  0.00     0.000 C
ATOM     22  O5  BGC B   2      24.024   8.924   3.8170  0.00  0.00     0.000 O
ATOM     23   O  BGC B   2      25.176   5.784   2.3420  0.00  0.00     0.000 O
ATOM     25  HD  BGC B   2      24.365   6.083   2.2970  0.00  0.00     0.000 HD
ATOM     25   O  BGC B   2      22.488   5.186   3.1320  0.00  0.00     0.000 O
ATOM     27  HD  BGC B   2      21.677   5.485   3.0880  0.00  0.00     0.000 HD
ATOM     27   C  BGC B   2      21.927   9.944   4.3350  0.00  0.00     0.000 C
ATOM     28   O  BGC B   2      21.939   9.580   5.7060  0.00  0.00     0.000 O
ATOM     30  HD  BGC B   2      21.127   9.879   5.6610  0.00  0.00     0.000 HD
BRANCH 17 30
ATOM     30  O4  BGC B   3      26.138   8.245   3.3610  0.00  0.00     0.000 O
BRANCH 30 34
ATOM     31  C1  BGC B   3      29.035  11.165   3.4380  0.00  0.00     0.000 C
ATOM     32  C2  BGC B   3      28.181  11.085   4.7030  0.00  0.00     0.000 C
ATOM     33  C3  BGC B   3      27.449   9.755   4.7180  0.00  0.00     0.000 C
ATOM     34  C4  BGC B   3      26.637   9.585   3.4340  0.00  0.00     0.000 C
ATOM     35  C5  BGC B   3      27.517   9.818   2.2180  0.00  0.00     0.000 C
ATOM     36  O5  BGC B   3      28.153  11.096   2.3290  0.00  0.00     0.000 O
ATOM     37   O  BGC B   3      29.025  11.148   5.8510  0.00  0.00     0.000 O
ATOM     39  HD  BGC B   3      28.318  11.225   6.3460  0.00  0.00     0.000 HD
ATOM     39   O  BGC B   3      26.600   9.722   5.8550  0.00  0.00     0.000 O
ATOM     41  HD  BGC B   3      25.893   9.798   6.3490  0.00  0.00     0.000 HD
ATOM     41   C  BGC B   3      26.768   9.759   0.8910  0.00  0.00     0.000 C
ATOM     42   O  BGC B   3      25.726  10.705   0.8790  0.00  0.00     0.000 O
ATOM     44  HD  BGC B   3      25.019  10.781   1.3730  0.00  0.00     0.000 HD
BRANCH 31 44
ATOM     44  O4  BGC B   4      29.615  12.444   3.4090  0.00  0.00     0.000 O
BRANCH 44 48
ATOM     45  C1  BGC B   4      32.995  14.385   2.1390  0.00  0.00     0.000 C
ATOM     46  C2  BGC B   4      32.135  13.807   1.0240  0.00  0.00     0.000 C
ATOM     47  C3  BGC B   4      30.764  13.480   1.5650  0.00  0.00     0.000 C
ATOM     48  C4  BGC B   4      30.880  12.570   2.7920  0.00  0.00     0.000 C
ATOM     49  C5  BGC B   4      31.842  13.174   3.8220  0.00  0.00     0.000 C
ATOM     50  O5  BGC B   4      33.110  13.440   3.2040  0.00  0.00     0.000 O
ATOM     51   O  BGC B   4      32.003  14.764  -0.0440  0.00  0.00     0.000 O
ATOM     53  HD  BGC B   4      31.229  14.868   0.3300  0.00  0.00     0.000 HD
ATOM     53   O  BGC B   4      30.010  12.817   0.5400  0.00  0.00     0.000 O
ATOM     55  HD  BGC B   4      29.236  12.921   0.9130  0.00  0.00     0.000 HD
ATOM     55   C  BGC B   4      32.111  12.287   5.0250  0.00  0.00     0.000 C
ATOM     56   O  BGC B   4      32.579  11.027   4.5400  0.00  0.00     0.000 O
ATOM     58  HD  BGC B   4      31.805  11.131   4.9140  0.00  0.00     0.000 HD
BRANCH 45 58
ATOM     58  O4  BGC B   5      34.326  14.424   1.6260  0.00  0.00     0.000 O
BRANCH 58 62
ATOM     59  C1  BGC B   5      37.158  17.411   1.1660  0.00  0.00     0.000 C
ATOM     60  C2  BGC B   5      37.556  16.273   2.0840  0.00  0.00     0.000 C
ATOM     61  C3  BGC B   5      36.661  15.069   1.8600  0.00  0.00     0.000 C
ATOM     62  C4  BGC B   5      35.206  15.482   2.0140  0.00  0.00     0.000 C
ATOM     63  C5  BGC B   5      34.888  16.688   1.1180  0.00  0.00     0.000 C
ATOM     64  O5  BGC B   5      35.791  17.744   1.4300  0.00  0.00     0.000 O
ATOM     65   O  BGC B   5      33.367  17.539   2.6860  0.00  0.00     0.000 O
ATOM     67  HD  BGC B   5      32.878  17.292   3.3570  0.00  0.00     0.000 HD
ATOM     67   O  BGC B   5      33.367  17.539   2.6860  0.00  0.00     0.000 O
ATOM     69  HD  BGC B   5      32.878  17.292   3.3570  0.00  0.00     0.000 HD
ENDBRANCH 58 62
ENDBRANCH 45 58
ENDBRANCH 44 48
ENDBRANCH 31 44
ENDBRANCH 30 34
ENDBRANCH 17 30
ENDBRANCH 16 20
ENDBRANCH 1 16
TORSDOF 8
ENDMDL
MODEL 18
REMARK VINA RESULT:      -1.0     13.799     19.690
ROOT
ATOM      1  C1  BGC B   1      17.831  14.567   3.0240  0.00  0.00     0.000 C
ATOM      2  C2  BGC B   1      16.727  14.832   2.0020  0.00  0.00     0.000 C
ATOM      3  C3  BGC B   1      16.166  13.519   1.4890  0.00  0.00     0.000 C
ATOM      4  C4  BGC B   1      17.285  12.611   0.9950  0.00  0.00     0.000 C
ATOM      5  C5  BGC B   1      18.292  12.431   2.1210  0.00  0.00     0.000 C
ATOM      6  O5  BGC B   1      18.820  13.732   2.4390  0.00  0.00     0.000 O
ATOM      7   O  BGC B   1      15.674  15.584   2.6270  0.00  0.00     0.000 O
ATOM      9  HD  BGC B   1      14.872  15.493   2.3130  0.00  0.00     0.000 HD
ATOM      9   O  BGC B   1      15.232  13.794   0.4410  0.00  0.00     0.000 O
ATOM     11  HD  BGC B   1      14.430  13.702   0.1270  0.00  0.00     0.000 HD
ATOM     11   O  BGC B   1      16.750  11.360   0.6230  0.00  0.00     0.000 O
ATOM     13  HD  BGC B   1      15.949  11.268   0.3080  0.00  0.00     0.000 HD
ATOM     13   C  BGC B   1      19.454  11.503   1.7970  0.00  0.00     0.000 C
ATOM     14   O  BGC B   1      20.155  11.902   0.6230  0.00  0.00     0.000 O
ATOM     16  HD  BGC B   1      19.353  11.810   0.3080  0.00  0.00     0.000 HD
ENDROOT
BRANCH 1 16
ATOM     16  O4  BGC B   2      18.481  15.818   3.2400  0.00  0.00     0.000 O
BRANCH 16 20
ATOM     17  C1  BGC B   2      20.393  17.959   6.1210  0.00  0.00     0.000 C
ATOM     18  C2  BGC B   2      21.227  16.822   5.5490  0.00  0.00     0.000 C
ATOM     19  C3  BGC B   2      20.569  16.340   4.2580  0.00  0.00     0.000 C
ATOM     20  C4  BGC B   2      19.117  15.985   4.5050  0.00  0.00     0.000 C
ATOM     21  C5  BGC B   2      18.367  17.087   5.2530  0.00  0.00     0.000 C
ATOM     22  O5  BGC B   2      19.100  17.412   6.4410  0.00  0.00     0.000 O
ATOM     23   O  BGC B   2      22.556  17.284   5.2560  0.00  0.00     0.000 O
ATOM     25  HD  BGC B   2      21.860  17.121   4.7670  0.00  0.00     0.000 HD
ATOM     25   O  BGC B   2      21.273  15.213   3.7480  0.00  0.00     0.000 O
ATOM     27  HD  BGC B   2      20.576  15.050   3.2600  0.00  0.00     0.000 HD
ATOM     27   C  BGC B   2      16.963  16.669   5.6740  0.00  0.00     0.000 C
ATOM     28   O  BGC B   2      16.941  15.493   6.4670  0.00  0.00     0.000 O
ATOM     30  HD  BGC B   2      16.244  15.330   5.9790  0.00  0.00     0.000 HD
BRANCH 17 30
ATOM     30  O4  BGC B   3      20.968  18.302   7.3680  0.00  0.00     0.000 O
BRANCH 30 34
ATOM     31  C1  BGC B   3      21.480  21.576   9.8050  0.00  0.00     0.000 C
ATOM     32  C2  BGC B   3      20.045  21.054   9.7370  0.00  0.00     0.000 C
ATOM     33  C3  BGC B   3      20.059  19.652   9.1530  0.00  0.00     0.000 C
ATOM     34  C4  BGC B   3      20.764  19.652   7.7970  0.00  0.00     0.000 C
ATOM     35  C5  BGC B   3      22.126  20.313   7.9090  0.00  0.00     0.000 C
ATOM     36  O5  BGC B   3      21.976  21.619   8.4770  0.00  0.00     0.000 O
ATOM     37   O  BGC B   3      19.499  20.990  11.0520  0.00  0.00     0.000 O
ATOM     39  HD  BGC B   3      18.723  20.824  10.7040  0.00  0.00     0.000 HD
ATOM     39   O  BGC B   3      18.718  19.206   9.0210  0.00  0.00     0.000 O
ATOM     41  HD  BGC B   3      17.943  19.040   8.6730  0.00  0.00     0.000 HD
ATOM     41   C  BGC B   3      22.865  20.439   6.5810  0.00  0.00     0.000 C
ATOM     42   O  BGC B   3      22.088  21.168   5.6610  0.00  0.00     0.000 O
ATOM     44  HD  BGC B   3      21.312  21.002   5.3130  0.00  0.00     0.000 HD
BRANCH 31 44
ATOM     44  O4  BGC B   4      21.417  22.906  10.2510  0.00  0.00     0.000 O
BRANCH 44 48
ATOM     45  C1  BGC B   4      23.576  25.632  12.4230  0.00  0.00     0.000 C
ATOM     46  C2  BGC B   4      24.112  25.362  11.0250  0.00  0.00     0.000 C
ATOM     47  C3  BGC B   4      23.050  24.674  10.2020  0.00  0.00     0.000 C
ATOM     48  C4  BGC B   4      22.548  23.420  10.9250  0.00  0.00     0.000 C
ATOM     49  C5  BGC B   4      22.122  23.758  12.3590  0.00  0.00     0.000 C
ATOM     50  O5  BGC B   4      23.205  24.401  13.0470  0.00  0.00     0.000 O
ATOM     51   O  BGC B   4      24.471  26.602  10.3860  0.00  0.00     0.000 O
ATOM     53  HD  BGC B   4      23.715  26.457   9.9890  0.00  0.00     0.000 HD
ATOM     53   O  BGC B   4      23.612  24.309   8.9340  0.00  0.00     0.000 O
ATOM     55  HD  BGC B   4      22.857  24.164   8.5360  0.00  0.00     0.000 HD
ATOM     55   C  BGC B   4      21.718  22.556  13.1930  0.00  0.00     0.000 C
ATOM     56   O  BGC B   4      22.801  21.625  13.1700  0.00  0.00     0.000 O
ATOM     58  HD  BGC B   4      22.046  21.480  12.7730  0.00  0.00     0.000 HD
BRANCH 45 58
ATOM     58  O4  BGC B   5      24.700  26.038  13.2020  0.00  0.00     0.000 O
BRANCH 58 62
ATOM     59  C1  BGC B   5      25.659  27.545  16.9380  0.00  0.00     0.000 C
ATOM     60  C2  BGC B   5      25.457  26.044  16.8750  0.00  0.00     0.000 C
ATOM     61  C3  BGC B   5      25.527  25.558  15.4400  0.00  0.00     0.000 C
ATOM     62  C4  BGC B   5      24.533  26.333  14.5910  0.00  0.00     0.000 C
ATOM     63  C5  BGC B   5      24.740  27.845  14.7610  0.00  0.00     0.000 C
ATOM     64  O5  BGC B   5      24.645  28.170  16.1450  0.00  0.00     0.000 O
ATOM     65   O  BGC B   5      22.444  28.255  14.5200  0.00  0.00     0.000 O
ATOM     67  HD  BGC B   5      21.723  27.899  14.1980  0.00  0.00     0.000 HD
ATOM     67   O  BGC B   5      22.444  28.255  14.5200  0.00  0.00     0.000 O
ATOM     69  HD  BGC B   5      21.723  27.899  14.1980  0.00  0.00     0.000 HD
ENDBRANCH 58 62
ENDBRANCH 45 58
ENDBRANCH 44 48
ENDBRANCH 31 44
ENDBRANCH 30 34
ENDBRANCH 17 30
ENDBRANCH 16 20
ENDBRANCH 1 16
TORSDOF 8
ENDMDL
MODEL 19
REMARK VINA RESULT:      -0.9      9.926     18.001
ROOT
ATOM      1  C1  BGC B   1      21.383   6.924   4.0670  0.00  0.00     0.000 C
ATOM      2  C2  BGC B   1      20.185   7.557   3.3610  0.00  0.00     0.000 C
ATOM      3  C3  BGC B   1      18.914   7.276   4.1390  0.00  0.00     0.000 C
ATOM      4  C4  BGC B   1      18.772   5.785   4.4190  0.00  0.00     0.000 C
ATOM      5  C5  BGC B   1      20.027   5.307   5.1340  0.00  0.00     0.000 C
ATOM      6  O5  BGC B   1      21.140   5.536   4.2500  0.00  0.00     0.000 O
ATOM      7   O  BGC B   1      20.383   8.978   3.2750  0.00  0.00     0.000 O
ATOM      9  HD  BGC B   1      19.679   9.481   3.2470  0.00  0.00     0.000 HD
ATOM      9   O  BGC B   1      17.796   7.762   3.3900  0.00  0.00     0.000 O
ATOM     11  HD  BGC B   1      17.092   8.266   3.3620  0.00  0.00     0.000 HD
ATOM     11   O  BGC B   1      17.641   5.561   5.2320  0.00  0.00     0.000 O
ATOM     13  HD  BGC B   1      16.937   6.065   5.2040  0.00  0.00     0.000 HD
ATOM     13   C  BGC B   1      20.018   3.837   5.5280  0.00  0.00     0.000 C
ATOM     14   O  BGC B   1      19.775   2.979   4.4180  0.00  0.00     0.000 O
ATOM     16  HD  BGC B   1      19.071   3.483   4.3890  0.00  0.00     0.000 HD
ENDROOT
BRANCH 1 16
ATOM     16  O4  BGC B   2      22.470   6.993   3.1460  0.00  0.00     0.000 O
BRANCH 16 20
ATOM     17  C1  BGC B   2      26.532   6.879   2.9930  0.00  0.00     0.000 C
ATOM     18  C2  BGC B   2      25.891   5.521   3.2410  0.00  0.00     0.000 C
ATOM     19  C3  BGC B   2      24.403   5.621   2.9160  0.00  0.00     0.000 C
ATOM     20  C4  BGC B   2      23.768   6.760   3.6870  0.00  0.00     0.000 C
ATOM     21  C5  BGC B   2      24.558   8.063   3.5590  0.00  0.00     0.000 C
ATOM     22  O5  BGC B   2      25.923   7.805   3.9120  0.00  0.00     0.000 O
ATOM     23   O  BGC B   2      26.492   4.529   2.3920  0.00  0.00     0.000 O
ATOM     25  HD  BGC B   2      25.743   4.963   2.3650  0.00  0.00     0.000 HD
ATOM     25   O  BGC B   2      23.755   4.393   3.2280  0.00  0.00     0.000 O
ATOM     27  HD  BGC B   2      23.006   4.827   3.2010  0.00  0.00     0.000 HD
ATOM     27   C  BGC B   2      24.041   9.164   4.4760  0.00  0.00     0.000 C
ATOM     28   O  BGC B   2      24.014   8.790   5.8440  0.00  0.00     0.000 O
ATOM     30  HD  BGC B   2      23.265   9.224   5.8170  0.00  0.00     0.000 HD
BRANCH 17 30
ATOM     30  O4  BGC B   3      27.880   6.777   3.4110  0.00  0.00     0.000 O
BRANCH 30 34
ATOM     31  C1  BGC B   3      31.237   9.155   3.4550  0.00  0.00     0.000 C
ATOM     32  C2  BGC B   3      30.404   9.209   4.7350  0.00  0.00     0.000 C
ATOM     33  C3  BGC B   3      29.454   8.025   4.7540  0.00  0.00     0.000 C
ATOM     34  C4  BGC B   3      28.604   8.010   3.4840  0.00  0.00     0.000 C
ATOM     35  C5  BGC B   3      29.489   8.102   2.2540  0.00  0.00     0.000 C
ATOM     36  O5  BGC B   3      30.337   9.250   2.3630  0.00  0.00     0.000 O
ATOM     37   O  BGC B   3      31.265   9.115   5.8680  0.00  0.00     0.000 O
ATOM     39  HD  BGC B   3      30.591   9.306   6.3760  0.00  0.00     0.000 HD
ATOM     39   O  BGC B   3      28.631   8.126   5.9070  0.00  0.00     0.000 O
ATOM     41  HD  BGC B   3      27.957   8.318   6.4150  0.00  0.00     0.000 HD
ATOM     41   C  BGC B   3      28.719   8.185   0.9410  0.00  0.00     0.000 C
ATOM     42   O  BGC B   3      27.855   9.297   0.9550  0.00  0.00     0.000 O
ATOM     44  HD  BGC B   3      27.180   9.489   1.4630  0.00  0.00     0.000 HD
BRANCH 31 44
ATOM     44  O4  BGC B   4      32.028  10.315   3.4240  0.00  0.00     0.000 O
BRANCH 44 48
ATOM     45  C1  BGC B   4      35.669  11.659   2.1060  0.00  0.00     0.000 C
ATOM     46  C2  BGC B   4      34.703  11.250   1.0030  0.00  0.00     0.000 C
ATOM     47  C3  BGC B   4      33.306  11.157   1.5670  0.00  0.00     0.000 C
ATOM     48  C4  BGC B   4      33.285  10.228   2.7850  0.00  0.00     0.000 C
ATOM     49  C5  BGC B   4      34.354  10.647   3.8010  0.00  0.00     0.000 C
ATOM     50  O5  BGC B   4      35.638  10.697   3.1620  0.00  0.00     0.000 O
ATOM     51   O  BGC B   4      34.720  12.226  -0.0550  0.00  0.00     0.000 O
ATOM     53  HD  BGC B   4      33.981  12.458   0.3340  0.00  0.00     0.000 HD
ATOM     53   O  BGC B   4      32.432  10.645   0.5510  0.00  0.00     0.000 O
ATOM     55  HD  BGC B   4      31.693  10.877   0.9400  0.00  0.00     0.000 HD
ATOM     55   C  BGC B   4      34.487   9.715   4.9920  0.00  0.00     0.000 C
ATOM     56   O  BGC B   4      34.723   8.398   4.4900  0.00  0.00     0.000 O
ATOM     58  HD  BGC B   4      33.985   8.630   4.8790  0.00  0.00     0.000 HD
BRANCH 45 58
ATOM     58  O4  BGC B   5      36.978  11.474   1.5680  0.00  0.00     0.000 O
BRANCH 58 62
ATOM     59  C1  BGC B   5      40.273  13.935   1.0780  0.00  0.00     0.000 C
ATOM     60  C2  BGC B   5      40.485  12.736   1.9800  0.00  0.00     0.000 C
ATOM     61  C3  BGC B   5      39.393  11.706   1.7630  0.00  0.00     0.000 C
ATOM     62  C4  BGC B   5      38.033  12.361   1.9470  0.00  0.00     0.000 C
ATOM     63  C5  BGC B   5      37.912  13.613   1.0660  0.00  0.00     0.000 C
ATOM     64  O5  BGC B   5      38.988  14.495   1.3690  0.00  0.00     0.000 O
ATOM     65   O  BGC B   5      36.588  14.696   2.6690  0.00  0.00     0.000 O
ATOM     67  HD  BGC B   5      36.075  14.531   3.3470  0.00  0.00     0.000 HD
ATOM     67   O  BGC B   5      36.588  14.696   2.6690  0.00  0.00     0.000 O
ATOM     69  HD  BGC B   5      36.075  14.531   3.3470  0.00  0.00     0.000 HD
ENDBRANCH 58 62
ENDBRANCH 45 58
ENDBRANCH 44 48
ENDBRANCH 31 44
ENDBRANCH 30 34
ENDBRANCH 17 30
ENDBRANCH 16 20
ENDBRANCH 1 16
TORSDOF 8
ENDMDL
MODEL 20
REMARK VINA RESULT:      -0.8      8.357     15.888
ROOT
ATOM      1  C1  BGC B   1      19.319   3.914   4.8810  0.00  0.00     0.000 C
ATOM      2  C2  BGC B   1      18.245   4.675   4.1050  0.00  0.00     0.000 C
ATOM      3  C3  BGC B   1      16.911   4.567   4.8200  0.00  0.00     0.000 C
ATOM      4  C4  BGC B   1      16.573   3.110   5.1110  0.00  0.00     0.000 C
ATOM      5  C5  BGC B   1      17.722   2.496   5.8970  0.00  0.00     0.000 C
ATOM      6  O5  BGC B   1      18.897   2.570   5.0680  0.00  0.00     0.000 O
ATOM      7   O  BGC B   1      18.620   6.059   4.0120  0.00  0.00     0.000 O
ATOM      9  HD  BGC B   1      17.986   6.644   3.9400  0.00  0.00     0.000 HD
ATOM      9   O  BGC B   1      15.901   5.172   4.0080  0.00  0.00     0.000 O
ATOM     11  HD  BGC B   1      15.267   5.758   3.9360  0.00  0.00     0.000 HD
ATOM     11   O  BGC B   1      15.383   3.043   5.8680  0.00  0.00     0.000 O
ATOM     13  HD  BGC B   1      14.749   3.628   5.7960  0.00  0.00     0.000 HD
ATOM     13   C  BGC B   1      17.512   1.046   6.3090  0.00  0.00     0.000 C
ATOM     14   O  BGC B   1      17.221   0.203   5.1980  0.00  0.00     0.000 O
ATOM     16  HD  BGC B   1      16.586   0.789   5.1270  0.00  0.00     0.000 HD
ENDROOT
BRANCH 1 16
ATOM     16  O4  BGC B   2      20.450   3.831   4.0160  0.00  0.00     0.000 O
BRANCH 16 20
ATOM     17  C1  BGC B   2      24.514   3.974   4.0490  0.00  0.00     0.000 C
ATOM     18  C2  BGC B   2      23.942   2.712   4.6780  0.00  0.00     0.000 C
ATOM     19  C3  BGC B   2      22.470   2.600   4.2860  0.00  0.00     0.000 C
ATOM     20  C4  BGC B   2      21.727   3.869   4.6480  0.00  0.00     0.000 C
ATOM     21  C5  BGC B   2      22.445   5.126   4.1550  0.00  0.00     0.000 C
ATOM     22  O5  BGC B   2      23.801   5.088   4.6180  0.00  0.00     0.000 O
ATOM     23   O  BGC B   2      24.646   1.556   4.1950  0.00  0.00     0.000 O
ATOM     25  HD  BGC B   2      23.876   1.906   4.0100  0.00  0.00     0.000 HD
ATOM     25   O  BGC B   2      21.880   1.480   4.9360  0.00  0.00     0.000 O
ATOM     27  HD  BGC B   2      21.109   1.830   4.7500  0.00  0.00     0.000 HD
ATOM     27   C  BGC B   2      21.814   6.412   4.6730  0.00  0.00     0.000 C
ATOM     28   O  BGC B   2      21.733   6.469   6.0880  0.00  0.00     0.000 O
ATOM     30  HD  BGC B   2      20.962   6.819   5.9020  0.00  0.00     0.000 HD
BRANCH 17 30
ATOM     30  O4  BGC B   3      25.841   4.103   4.5260  0.00  0.00     0.000 O
BRANCH 30 34
ATOM     31  C1  BGC B   3      29.523   5.451   3.2830  0.00  0.00     0.000 C
ATOM     32  C2  BGC B   3      28.413   6.500   3.2300  0.00  0.00     0.000 C
ATOM     33  C3  BGC B   3      27.241   6.017   4.0670  0.00  0.00     0.000 C
ATOM     34  C4  BGC B   3      26.787   4.637   3.5940  0.00  0.00     0.000 C
ATOM     35  C5  BGC B   3      27.968   3.684   3.5340  0.00  0.00     0.000 C
ATOM     36  O5  BGC B   3      29.001   4.256   2.7260  0.00  0.00     0.000 O
ATOM     37   O  BGC B   3      28.889   7.725   3.7830  0.00  0.00     0.000 O
ATOM     39  HD  BGC B   3      28.167   8.113   3.5030  0.00  0.00     0.000 HD
ATOM     39   O  BGC B   3      26.186   6.959   3.9500  0.00  0.00     0.000 O
ATOM     41  HD  BGC B   3      25.464   7.347   3.6690  0.00  0.00     0.000 HD
ATOM     41   C  BGC B   3      27.623   2.304   2.9840  0.00  0.00     0.000 C
ATOM     42   O  BGC B   3      27.075   2.420   1.6920  0.00  0.00     0.000 O
ATOM     44  HD  BGC B   3      26.353   2.808   1.4110  0.00  0.00     0.000 HD
BRANCH 31 44
ATOM     44  O4  BGC B   4      30.543   5.883   2.4190  0.00  0.00     0.000 O
BRANCH 44 48
ATOM     45  C1  BGC B   4      34.605   5.427   2.7330  0.00  0.00     0.000 C
ATOM     46  C2  BGC B   4      34.019   5.011   1.3920  0.00  0.00     0.000 C
ATOM     47  C3  BGC B   4      32.627   5.578   1.2530  0.00  0.00     0.000 C
ATOM     48  C4  BGC B   4      31.767   5.177   2.4560  0.00  0.00     0.000 C
ATOM     49  C5  BGC B   4      32.473   5.538   3.7680  0.00  0.00     0.000 C
ATOM     50  O5  BGC B   4      33.780   4.944   3.7950  0.00  0.00     0.000 O
ATOM     51   O  BGC B   4      34.839   5.510   0.3180  0.00  0.00     0.000 O
ATOM     53  HD  BGC B   4      34.195   6.088   0.2790  0.00  0.00     0.000 HD
ATOM     53   O  BGC B   4      32.039   5.072   0.0470  0.00  0.00     0.000 O
ATOM     55  HD  BGC B   4      31.396   5.650   0.0080  0.00  0.00     0.000 HD
ATOM     55   C  BGC B   4      31.749   5.073   5.0190  0.00  0.00     0.000 C
ATOM     56   O  BGC B   4      31.539   3.665   4.9020  0.00  0.00     0.000 O
ATOM     58  HD  BGC B   4      30.896   4.243   4.8630  0.00  0.00     0.000 HD
BRANCH 45 58
ATOM     58  O4  BGC B   5      35.792   4.652   2.8980  0.00  0.00     0.000 O
BRANCH 58 62
ATOM     59  C1  BGC B   5      38.987   4.179   5.4910  0.00  0.00     0.000 C
ATOM     60  C2  BGC B   5      37.731   3.416   5.8610  0.00  0.00     0.000 C
ATOM     61  C3  BGC B   5      36.796   3.319   4.6700  0.00  0.00     0.000 C
ATOM     62  C4  BGC B   5      36.514   4.712   4.1300  0.00  0.00     0.000 C
ATOM     63  C5  BGC B   5      37.826   5.460   3.8510  0.00  0.00     0.000 C
ATOM     64  O5  BGC B   5      38.605   5.484   5.0430  0.00  0.00     0.000 O
ATOM     65   O  BGC B   5      36.865   7.512   4.4510  0.00  0.00     0.000 O
ATOM     67  HD  BGC B   5      36.095   7.900   4.5330  0.00  0.00     0.000 HD
ATOM     67   O  BGC B   5      36.865   7.512   4.4510  0.00  0.00     0.000 O
ATOM     69  HD  BGC B   5      36.095   7.900   4.5330  0.00  0.00     0.000 HD
ENDBRANCH 58 62
ENDBRANCH 45 58
ENDBRANCH 44 48
ENDBRANCH 31 44
ENDBRANCH 30 34
ENDBRANCH 17 30
ENDBRANCH 16 20
ENDBRANCH 1 16
TORSDOF 8
ENDMDL
MODEL 21
REMARK VINA RESULT:      -0.8      2.846     13.956
ROOT
ATOM      1  C1  BGC B   1      18.094   3.799   5.6140  0.00  0.00     0.000 C
ATOM      2  C2  BGC B   1      19.053   4.745   6.3340  0.00  0.00     0.000 C
ATOM      3  C3  BGC B   1      20.488   4.327   6.0750  0.00  0.00     0.000 C
ATOM      4  C4  BGC B   1      20.687   2.852   6.4010  0.00  0.00     0.000 C
ATOM      5  C5  BGC B   1      19.677   2.042   5.6020  0.00  0.00     0.000 C
ATOM      6  O5  BGC B   1      18.364   2.463   6.0160  0.00  0.00     0.000 O
ATOM      7   O  BGC B   1      18.854   6.082   5.8450  0.00  0.00     0.000 O
ATOM      9  HD  BGC B   1      19.527   6.626   5.8750  0.00  0.00     0.000 HD
ATOM      9   O  BGC B   1      21.357   5.145   6.8650  0.00  0.00     0.000 O
ATOM     11  HD  BGC B   1      22.030   5.689   6.8950  0.00  0.00     0.000 HD
ATOM     11   O  BGC B   1      21.998   2.463   6.0540  0.00  0.00     0.000 O
ATOM     13  HD  BGC B   1      22.671   3.007   6.0840  0.00  0.00     0.000 HD
ATOM     13   C  BGC B   1      19.781   0.534   5.7830  0.00  0.00     0.000 C
ATOM     14   O  BGC B   1      19.694   0.145   7.1510  0.00  0.00     0.000 O
ATOM     16  HD  BGC B   1      20.367   0.689   7.1810  0.00  0.00     0.000 HD
ENDROOT
BRANCH 1 16
ATOM     16  O4  BGC B   2      16.793   4.085   6.1260  0.00  0.00     0.000 O
BRANCH 16 20
ATOM     17  C1  BGC B   2      12.859   3.866   5.1210  0.00  0.00     0.000 C
ATOM     18  C2  BGC B   2      13.467   2.525   5.5060  0.00  0.00     0.000 C
ATOM     19  C3  BGC B   2      14.803   2.781   6.2010  0.00  0.00     0.000 C
ATOM     20  C4  BGC B   2      15.695   3.644   5.3320  0.00  0.00     0.000 C
ATOM     21  C5  BGC B   2      14.975   4.889   4.8130  0.00  0.00     0.000 C
ATOM     22  O5  BGC B   2      13.757   4.480   4.1780  0.00  0.00     0.000 O
ATOM     23   O  BGC B   2      12.594   1.828   6.4090  0.00  0.00     0.000 O
ATOM     25  HD  BGC B   2      13.326   2.278   6.5160  0.00  0.00     0.000 HD
ATOM     25   O  BGC B   2      15.443   1.543   6.4880  0.00  0.00     0.000 O
ATOM     27  HD  BGC B   2      16.176   1.993   6.5950  0.00  0.00     0.000 HD
ATOM     27   C  BGC B   2      15.794   5.665   3.7900  0.00  0.00     0.000 C
ATOM     28   O  BGC B   2      16.192   4.882   2.6760  0.00  0.00     0.000 O
ATOM     30  HD  BGC B   2      16.924   5.332   2.7830  0.00  0.00     0.000 HD
BRANCH 17 30
ATOM     30  O4  BGC B   3      11.684   3.586   4.3840  0.00  0.00     0.000 O
BRANCH 30 34
ATOM     31  C1  BGC B   3       8.126   5.381   3.3620  0.00  0.00     0.000 C
ATOM     32  C2  BGC B   3       9.334   5.864   2.5600  0.00  0.00     0.000 C
ATOM     33  C3  BGC B   3      10.471   4.873   2.7390  0.00  0.00     0.000 C
ATOM     34  C4  BGC B   3      10.774   4.679   4.2240  0.00  0.00     0.000 C
ATOM     35  C5  BGC B   3       9.504   4.340   4.9830  0.00  0.00     0.000 C
ATOM     36  O5  BGC B   3       8.514   5.342   4.7260  0.00  0.00     0.000 O
ATOM     37   O  BGC B   3       8.996   5.919   1.1760  0.00  0.00     0.000 O
ATOM     39  HD  BGC B   3       9.746   6.325   1.0260  0.00  0.00     0.000 HD
ATOM     39   O  BGC B   3      11.612   5.369   2.0550  0.00  0.00     0.000 O
ATOM     41  HD  BGC B   3      12.362   5.775   1.9040  0.00  0.00     0.000 HD
ATOM     41   C  BGC B   3       9.696   4.218   6.4910  0.00  0.00     0.000 C
ATOM     42   O  BGC B   3      10.223   5.416   7.0110  0.00  0.00     0.000 O
ATOM     44  HD  BGC B   3      10.973   5.821   6.8610  0.00  0.00     0.000 HD
BRANCH 31 44
ATOM     44  O4  BGC B   4       7.134   6.370   3.2560  0.00  0.00     0.000 O
BRANCH 44 48
ATOM     45  C1  BGC B   4       4.056   3.663   3.3040  0.00  0.00     0.000 C
ATOM     46  C2  BGC B   4       4.225   4.414   1.9900  0.00  0.00     0.000 C
ATOM     47  C3  BGC B   4       5.586   5.065   1.9550  0.00  0.00     0.000 C
ATOM     48  C4  BGC B   4       5.790   5.938   3.1970  0.00  0.00     0.000 C
ATOM     49  C5  BGC B   4       5.502   5.137   4.4720  0.00  0.00     0.000 C
ATOM     50  O5  BGC B   4       4.186   4.569   4.4010  0.00  0.00     0.000 O
ATOM     51   O  BGC B   4       4.112   3.500   0.8820  0.00  0.00     0.000 O
ATOM     53  HD  BGC B   4       4.973   3.589   0.9000  0.00  0.00     0.000 HD
ATOM     53   O  BGC B   4       5.681   5.873   0.7730  0.00  0.00     0.000 O
ATOM     55  HD  BGC B   4       6.542   5.962   0.7910  0.00  0.00     0.000 HD
ATOM     55   C  BGC B   4       5.565   5.951   5.7520  0.00  0.00     0.000 C
ATOM     56   O  BGC B   4       4.671   7.057   5.6090  0.00  0.00     0.000 O
ATOM     58  HD  BGC B   4       5.533   7.145   5.6270  0.00  0.00     0.000 HD
BRANCH 45 58
ATOM     58  O4  BGC B   5       2.677   3.302   3.3730  0.00  0.00     0.000 O
BRANCH 58 62
ATOM     59  C1  BGC B   5       0.185   0.135   4.3260  0.00  0.00     0.000 C
ATOM     60  C2  BGC B   5       0.841   0.824   5.5060  0.00  0.00     0.000 C
ATOM     61  C3  BGC B   5       1.375   2.184   5.0980  0.00  0.00     0.000 C
ATOM     62  C4  BGC B   5       2.302   2.029   3.9040  0.00  0.00     0.000 C
ATOM     63  C5  BGC B   5       1.606   1.254   2.7750  0.00  0.00     0.000 C
ATOM     64  O5  BGC B   5       1.158   0.002   3.2850  0.00  0.00     0.000 O
ATOM     65   O  BGC B   5       3.624   0.255   2.1230  0.00  0.00     0.000 O
ATOM     67  HD  BGC B   5       4.482   0.363   2.1780  0.00  0.00     0.000 HD
ATOM     67   O  BGC B   5       3.624   0.255   2.1230  0.00  0.00     0.000 O
ATOM     69  HD  BGC B   5       4.482   0.363   2.1780  0.00  0.00     0.000 HD
ENDBRANCH 58 62
ENDBRANCH 45 58
ENDBRANCH 44 48
ENDBRANCH 31 44
ENDBRANCH 30 34
ENDBRANCH 17 30
ENDBRANCH 16 20
ENDBRANCH 1 16
TORSDOF 8
ENDMDL
MODEL 22
REMARK VINA RESULT:      -0.7     12.839     20.942
ROOT
ATOM      1  C1  BGC B   1      20.987  14.693   3.0890  0.00  0.00     0.000 C
ATOM      2  C2  BGC B   1      19.965  15.627   2.4430  0.00  0.00     0.000 C
ATOM      3  C3  BGC B   1      18.652  14.897   2.2330  0.00  0.00     0.000 C
ATOM      4  C4  BGC B   1      18.877  13.587   1.4870  0.00  0.00     0.000 C
ATOM      5  C5  BGC B   1      19.901  12.765   2.2560  0.00  0.00     0.000 C
ATOM      6  O5  BGC B   1      21.123  13.524   2.2920  0.00  0.00     0.000 O
ATOM      7   O  BGC B   1      19.745  16.757   3.3030  0.00  0.00     0.000 O
ATOM      9  HD  BGC B   1      18.976  17.151   3.2610  0.00  0.00     0.000 HD
ATOM      9   O  BGC B   1      17.760  15.749   1.5080  0.00  0.00     0.000 O
ATOM     11  HD  BGC B   1      16.990  16.144   1.4660  0.00  0.00     0.000 HD
ATOM     11   O  BGC B   1      17.660  12.878   1.3980  0.00  0.00     0.000 O
ATOM     13  HD  BGC B   1      16.890  13.273   1.3560  0.00  0.00     0.000 HD
ATOM     13   C  BGC B   1      20.199  11.397   1.6600  0.00  0.00     0.000 C
ATOM     14   O  BGC B   1      20.612  11.476   0.2990  0.00  0.00     0.000 O
ATOM     16  HD  BGC B   1      19.842  11.871   0.2570  0.00  0.00     0.000 HD
ENDROOT
BRANCH 1 16
ATOM     16  O4  BGC B   2      22.246  15.356   2.9950  0.00  0.00     0.000 O
BRANCH 16 20
ATOM     17  C1  BGC B   2      25.772  15.784   4.9760  0.00  0.00     0.000 C
ATOM     18  C2  BGC B   2      25.639  14.457   4.2440  0.00  0.00     0.000 C
ATOM     19  C3  BGC B   2      24.474  14.559   3.2630  0.00  0.00     0.000 C
ATOM     20  C4  BGC B   2      23.216  15.004   3.9790  0.00  0.00     0.000 C
ATOM     21  C5  BGC B   2      23.448  16.236   4.8540  0.00  0.00     0.000 C
ATOM     22  O5  BGC B   2      24.556  15.975   5.7240  0.00  0.00     0.000 O
ATOM     23   O  BGC B   2      26.845  14.172   3.5150  0.00  0.00     0.000 O
ATOM     25  HD  BGC B   2      26.063  14.465   3.2850  0.00  0.00     0.000 HD
ATOM     25   O  BGC B   2      24.263  13.302   2.6300  0.00  0.00     0.000 O
ATOM     27  HD  BGC B   2      23.481  13.595   2.4000  0.00  0.00     0.000 HD
ATOM     27   C  BGC B   2      22.246  16.582   5.7240  0.00  0.00     0.000 C
ATOM     28   O  BGC B   2      21.829  15.513   6.5580  0.00  0.00     0.000 O
ATOM     30  HD  BGC B   2      21.048  15.806   6.3270  0.00  0.00     0.000 HD
BRANCH 17 30
ATOM     30  O4  BGC B   3      26.783  15.615   5.9510  0.00  0.00     0.000 O
BRANCH 30 34
ATOM     31  C1  BGC B   3      29.822  17.773   7.6930  0.00  0.00     0.000 C
ATOM     32  C2  BGC B   3      28.437  18.036   8.2840  0.00  0.00     0.000 C
ATOM     33  C3  BGC B   3      27.499  16.923   7.8520  0.00  0.00     0.000 C
ATOM     34  C4  BGC B   3      27.489  16.801   6.3290  0.00  0.00     0.000 C
ATOM     35  C5  BGC B   3      28.907  16.686   5.7980  0.00  0.00     0.000 C
ATOM     36  O5  BGC B   3      29.686  17.786   6.2810  0.00  0.00     0.000 O
ATOM     37   O  BGC B   3      28.519  18.031   9.7080  0.00  0.00     0.000 O
ATOM     39  HD  BGC B   3      27.704  18.324   9.7390  0.00  0.00     0.000 HD
ATOM     39   O  BGC B   3      26.199  17.215   8.3410  0.00  0.00     0.000 O
ATOM     41  HD  BGC B   3      25.384  17.508   8.3720  0.00  0.00     0.000 HD
ATOM     41   C  BGC B   3      28.998  16.653   4.2770  0.00  0.00     0.000 C
ATOM     42   O  BGC B   3      28.407  17.807   3.7290  0.00  0.00     0.000 O
ATOM     44  HD  BGC B   3      27.593  18.101   3.7600  0.00  0.00     0.000 HD
BRANCH 31 44
ATOM     44  O4  BGC B   4      30.631  18.871   8.0270  0.00  0.00     0.000 O
BRANCH 44 48
ATOM     45  C1  BGC B   4      34.531  19.798   8.8880  0.00  0.00     0.000 C
ATOM     46  C2  BGC B   4      34.253  19.508   7.4200  0.00  0.00     0.000 C
ATOM     47  C3  BGC B   4      32.767  19.573   7.1660  0.00  0.00     0.000 C
ATOM     48  C4  BGC B   4      32.022  18.645   8.1310  0.00  0.00     0.000 C
ATOM     49  C5  BGC B   4      32.433  18.932   9.5810  0.00  0.00     0.000 C
ATOM     50  O5  BGC B   4      33.859  18.839   9.7080  0.00  0.00     0.000 O
ATOM     51   O  BGC B   4      34.914  20.483   6.5910  0.00  0.00     0.000 O
ATOM     53  HD  BGC B   4      34.107  20.795   6.5530  0.00  0.00     0.000 HD
ATOM     53   O  BGC B   4      32.511  19.170   5.8130  0.00  0.00     0.000 O
ATOM     55  HD  BGC B   4      31.704  19.482   5.7750  0.00  0.00     0.000 HD
ATOM     55   C  BGC B   4      31.833  17.983  10.6030  0.00  0.00     0.000 C
ATOM     56   O  BGC B   4      32.173  16.652  10.2120  0.00  0.00     0.000 O
ATOM     58  HD  BGC B   4      31.366  16.964  10.1740  0.00  0.00     0.000 HD
BRANCH 45 58
ATOM     58  O4  BGC B   5      35.903  19.468   9.0990  0.00  0.00     0.000 O
BRANCH 58 62
ATOM     59  C1  BGC B   5      39.363  20.909  10.8580  0.00  0.00     0.000 C
ATOM     60  C2  BGC B   5      38.314  20.388  11.8200  0.00  0.00     0.000 C
ATOM     61  C3  BGC B   5      37.304  19.524  11.0880  0.00  0.00     0.000 C
ATOM     62  C4  BGC B   5      36.716  20.306   9.9240  0.00  0.00     0.000 C
ATOM     63  C5  BGC B   5      37.831  20.873   9.0350  0.00  0.00     0.000 C
ATOM     64  O5  BGC B   5      38.703  21.663   9.8370  0.00  0.00     0.000 O
ATOM     65   O  BGC B   5      36.564  22.785   8.5480  0.00  0.00     0.000 O
ATOM     67  HD  BGC B   5      35.747  23.071   8.5400  0.00  0.00     0.000 HD
ATOM     67   O  BGC B   5      36.564  22.785   8.5480  0.00  0.00     0.000 O
ATOM     69  HD  BGC B   5      35.747  23.071   8.5400  0.00  0.00     0.000 HD
ENDBRANCH 58 62
ENDBRANCH 45 58
ENDBRANCH 44 48
ENDBRANCH 31 44
ENDBRANCH 30 34
ENDBRANCH 17 30
ENDBRANCH 16 20
ENDBRANCH 1 16
TORSDOF 8
ENDMDL
MODEL 23
REMARK VINA RESULT:      -0.7     12.553     21.167
ROOT
ATOM      1  C1  BGC B   1      21.309  14.562   3.1140  0.00  0.00     0.000 C
ATOM      2  C2  BGC B   1      20.164  15.544   2.8710  0.00  0.00     0.000 C
ATOM      3  C3  BGC B   1      18.847  14.924   3.2950  0.00  0.00     0.000 C
ATOM      4  C4  BGC B   1      18.661  13.558   2.6460  0.00  0.00     0.000 C
ATOM      5  C5  BGC B   1      19.865  12.693   2.9890  0.00  0.00     0.000 C
ATOM      6  O5  BGC B   1      21.029  13.341   2.4430  0.00  0.00     0.000 O
ATOM      7   O  BGC B   1      20.394  16.737   3.6380  0.00  0.00     0.000 O
ATOM      9  HD  BGC B   1      19.702  17.196   3.8850  0.00  0.00     0.000 HD
ATOM      9   O  BGC B   1      17.782  15.808   2.9340  0.00  0.00     0.000 O
ATOM     11  HD  BGC B   1      17.090  16.267   3.1820  0.00  0.00     0.000 HD
ATOM     11   O  BGC B   1      17.482  12.957   3.1370  0.00  0.00     0.000 O
ATOM     13  HD  BGC B   1      16.791  13.416   3.3840  0.00  0.00     0.000 HD
ATOM     13   C  BGC B   1      19.805  11.271   2.4500  0.00  0.00     0.000 C
ATOM     14   O  BGC B   1      19.608  11.234   1.0400  0.00  0.00     0.000 O
ATOM     16  HD  BGC B   1      18.916  11.693   1.2870  0.00  0.00     0.000 HD
ENDROOT
BRANCH 1 16
ATOM     16  O4  BGC B   2      22.446  15.102   2.4440  0.00  0.00     0.000 O
BRANCH 16 20
ATOM     17  C1  BGC B   2      26.495  15.347   2.7350  0.00  0.00     0.000 C
ATOM     18  C2  BGC B   2      25.996  13.987   2.2670  0.00  0.00     0.000 C
ATOM     19  C3  BGC B   2      24.534  14.124   1.8500  0.00  0.00     0.000 C
ATOM     20  C4  BGC B   2      23.718  14.735   2.9710  0.00  0.00     0.000 C
ATOM     21  C5  BGC B   2      24.362  16.002   3.5370  0.00  0.00     0.000 C
ATOM     22  O5  BGC B   2      25.718  15.704   3.8930  0.00  0.00     0.000 O
ATOM     23   O  BGC B   2      26.767  13.540   1.1400  0.00  0.00     0.000 O
ATOM     25  HD  BGC B   2      25.978  13.886   1.2230  0.00  0.00     0.000 HD
ATOM     25   O  BGC B   2      24.010  12.850   1.4970  0.00  0.00     0.000 O
ATOM     27  HD  BGC B   2      23.220  13.196   1.5800  0.00  0.00     0.000 HD
ATOM     27   C  BGC B   2      23.657  16.520   4.7840  0.00  0.00     0.000 C
ATOM     28   O  BGC B   2      23.573  15.558   5.8230  0.00  0.00     0.000 O
ATOM     30  HD  BGC B   2      22.783  15.904   5.9060  0.00  0.00     0.000 HD
BRANCH 17 30
ATOM     30  O4  BGC B   3      27.811  15.156   3.2170  0.00  0.00     0.000 O
BRANCH 30 34
ATOM     31  C1  BGC B   3      31.372  17.192   3.5450  0.00  0.00     0.000 C
ATOM     32  C2  BGC B   3      30.264  17.697   4.4690  0.00  0.00     0.000 C
ATOM     33  C3  BGC B   3      29.172  16.646   4.5470  0.00  0.00     0.000 C
ATOM     34  C4  BGC B   3      28.672  16.298   3.1460  0.00  0.00     0.000 C
ATOM     35  C5  BGC B   3      29.839  15.943   2.2410  0.00  0.00     0.000 C
ATOM     36  O5  BGC B   3      30.797  17.007   2.2610  0.00  0.00     0.000 O
ATOM     37   O  BGC B   3      30.792  17.898   5.7780  0.00  0.00     0.000 O
ATOM     39  HD  BGC B   3      30.049  18.283   6.0010  0.00  0.00     0.000 HD
ATOM     39   O  BGC B   3      28.113  17.155   5.3450  0.00  0.00     0.000 O
ATOM     41  HD  BGC B   3      27.370  17.541   5.5670  0.00  0.00     0.000 HD
ATOM     41   C  BGC B   3      29.441  15.670   0.7950  0.00  0.00     0.000 C
ATOM     42   O  BGC B   3      28.779  16.789   0.2540  0.00  0.00     0.000 O
ATOM     44  HD  BGC B   3      28.036  17.174   0.4760  0.00  0.00     0.000 HD
BRANCH 31 44
ATOM     44  O4  BGC B   4      32.311  18.228   3.4160  0.00  0.00     0.000 O
BRANCH 44 48
ATOM     45  C1  BGC B   4      36.325  18.835   2.8450  0.00  0.00     0.000 C
ATOM     46  C2  BGC B   4      35.585  18.282   1.6350  0.00  0.00     0.000 C
ATOM     47  C3  BGC B   4      34.100  18.472   1.8240  0.00  0.00     0.000 C
ATOM     48  C4  BGC B   4      33.651  17.862   3.1560  0.00  0.00     0.000 C
ATOM     49  C5  BGC B   4      34.511  18.392   4.3090  0.00  0.00     0.000 C
ATOM     50  O5  BGC B   4      35.898  18.156   4.0280  0.00  0.00     0.000 O
ATOM     51   O  BGC B   4      36.000  18.976   0.4440  0.00  0.00     0.000 O
ATOM     53  HD  BGC B   4      35.239  19.369   0.5730  0.00  0.00     0.000 HD
ATOM     53   O  BGC B   4      33.411  17.831   0.7410  0.00  0.00     0.000 O
ATOM     55  HD  BGC B   4      32.650  18.223   0.8700  0.00  0.00     0.000 HD
ATOM     55   C  BGC B   4      34.217  17.756   5.6560  0.00  0.00     0.000 C
ATOM     56   O  BGC B   4      34.348  16.341   5.5070  0.00  0.00     0.000 O
ATOM     58  HD  BGC B   4      33.587  16.734   5.6360  0.00  0.00     0.000 HD
BRANCH 45 58
ATOM     58  O4  BGC B   5      37.675  18.392   2.7140  0.00  0.00     0.000 O
BRANCH 58 62
ATOM     59  C1  BGC B   5      41.591  19.640   3.2190  0.00  0.00     0.000 C
ATOM     60  C2  BGC B   5      40.730  19.682   4.4650  0.00  0.00     0.000 C
ATOM     61  C3  BGC B   5      39.484  18.836   4.2800  0.00  0.00     0.000 C
ATOM     62  C4  BGC B   5      38.748  19.283   3.0270  0.00  0.00     0.000 C
ATOM     63  C5  BGC B   5      39.695  19.296   1.8180  0.00  0.00     0.000 C
ATOM     64  O5  BGC B   5      40.814  20.123   2.1180  0.00  0.00     0.000 O
ATOM     65   O  BGC B   5      38.592  21.142   0.8860  0.00  0.00     0.000 O
ATOM     67  HD  BGC B   5      37.835  21.562   0.9110  0.00  0.00     0.000 HD
ATOM     67   O  BGC B   5      38.592  21.142   0.8860  0.00  0.00     0.000 O
ATOM     69  HD  BGC B   5      37.835  21.562   0.9110  0.00  0.00     0.000 HD
ENDBRANCH 58 62
ENDBRANCH 45 58
ENDBRANCH 44 48
ENDBRANCH 31 44
ENDBRANCH 30 34
ENDBRANCH 17 30
ENDBRANCH 16 20
ENDBRANCH 1 16
TORSDOF 8
ENDMDL
MODEL 24
REMARK VINA RESULT:      -0.5     10.459     15.716
ROOT
ATOM      1  C1  BGC B   1      19.173  19.972   8.7630  0.00  0.00     0.000 C
ATOM      2  C2  BGC B   1      19.950  21.208   8.3140  0.00  0.00     0.000 C
ATOM      3  C3  BGC B   1      19.928  22.261   9.4050  0.00  0.00     0.000 C
ATOM      4  C4  BGC B   1      18.500  22.538   9.8590  0.00  0.00     0.000 C
ATOM      5  C5  BGC B   1      17.867  21.222  10.2870  0.00  0.00     0.000 C
ATOM      6  O5  BGC B   1      17.858  20.355   9.1380  0.00  0.00     0.000 O
ATOM      7   O  BGC B   1      21.312  20.839   8.0420  0.00  0.00     0.000 O
ATOM      9  HD  BGC B   1      21.921  21.447   8.1370  0.00  0.00     0.000 HD
ATOM      9   O  BGC B   1      20.545  23.453   8.9100  0.00  0.00     0.000 O
ATOM     11  HD  BGC B   1      21.154  24.062   9.0060  0.00  0.00     0.000 HD
ATOM     11   O  BGC B   1      18.514  23.440  10.9440  0.00  0.00     0.000 O
ATOM     13  HD  BGC B   1      19.123  24.048  11.0390  0.00  0.00     0.000 HD
ATOM     13   C  BGC B   1      16.445  21.339  10.8160  0.00  0.00     0.000 C
ATOM     14   O  BGC B   1      15.573  21.981   9.8910  0.00  0.00     0.000 O
ATOM     16  HD  BGC B   1      16.182  22.589   9.9860  0.00  0.00     0.000 HD
ENDROOT
BRANCH 1 16
ATOM     16  O4  BGC B   2      19.008  19.162   7.6000  0.00  0.00     0.000 O
BRANCH 16 20
ATOM     17  C1  BGC B   2      18.234  15.340   6.4480  0.00  0.00     0.000 C
ATOM     18  C2  BGC B   2      17.045  16.036   7.0930  0.00  0.00     0.000 C
ATOM     19  C3  BGC B   2      17.330  17.536   7.1430  0.00  0.00     0.000 C
ATOM     20  C4  BGC B   2      18.655  17.800   7.8290  0.00  0.00     0.000 C
ATOM     21  C5  BGC B   2      19.784  16.934   7.2690  0.00  0.00     0.000 C
ATOM     22  O5  BGC B   2      19.369  15.563   7.3060  0.00  0.00     0.000 O
ATOM     23   O  BGC B   2      15.858  15.809   6.3160  0.00  0.00     0.000 O
ATOM     25  HD  BGC B   2      16.396  16.482   6.4000  0.00  0.00     0.000 HD
ATOM     25   O  BGC B   2      16.279  18.206   7.8280  0.00  0.00     0.000 O
ATOM     27  HD  BGC B   2      16.817  18.879   7.9130  0.00  0.00     0.000 HD
ATOM     27   C  BGC B   2      21.075  17.050   8.0700  0.00  0.00     0.000 C
ATOM     28   O  BGC B   2      20.913  16.741   9.4450  0.00  0.00     0.000 O
ATOM     30  HD  BGC B   2      21.451  17.414   9.5290  0.00  0.00     0.000 HD
BRANCH 17 30
ATOM     30  O4  BGC B   3      17.983  13.949   6.5220  0.00  0.00     0.000 O
BRANCH 30 34
ATOM     31  C1  BGC B   3      20.139  11.027   4.5880  0.00  0.00     0.000 C
ATOM     32  C2  BGC B   3      20.438  12.451   4.1200  0.00  0.00     0.000 C
ATOM     33  C3  BGC B   3      19.903  13.429   5.1510  0.00  0.00     0.000 C
ATOM     34  C4  BGC B   3      18.416  13.178   5.3970  0.00  0.00     0.000 C
ATOM     35  C5  BGC B   3      18.174  11.713   5.7170  0.00  0.00     0.000 C
ATOM     36  O5  BGC B   3      18.729  10.900   4.6780  0.00  0.00     0.000 O
ATOM     37   O  BGC B   3      21.849  12.631   4.0160  0.00  0.00     0.000 O
ATOM     39  HD  BGC B   3      21.706  13.393   3.6300  0.00  0.00     0.000 HD
ATOM     39   O  BGC B   3      20.116  14.748   4.6720  0.00  0.00     0.000 O
ATOM     41  HD  BGC B   3      19.973  15.510   4.2860  0.00  0.00     0.000 HD
ATOM     41   C  BGC B   3      16.702  11.352   5.8880  0.00  0.00     0.000 C
ATOM     42   O  BGC B   3      15.983  11.680   4.7230  0.00  0.00     0.000 O
ATOM     44  HD  BGC B   3      15.841  12.442   4.3370  0.00  0.00     0.000 HD
BRANCH 31 44
ATOM     44  O4  BGC B   4      20.554  10.158   3.5660  0.00  0.00     0.000 O
BRANCH 44 48
ATOM     45  C1  BGC B   4      22.255   6.463   3.0570  0.00  0.00     0.000 C
ATOM     46  C2  BGC B   4      20.764   6.442   3.3630  0.00  0.00     0.000 C
ATOM     47  C3  BGC B   4      20.185   7.818   3.1400  0.00  0.00     0.000 C
ATOM     48  C4  BGC B   4      20.967   8.860   3.9440  0.00  0.00     0.000 C
ATOM     49  C5  BGC B   4      22.469   8.748   3.6570  0.00  0.00     0.000 C
ATOM     50  O5  BGC B   4      22.911   7.406   3.9060  0.00  0.00     0.000 O
ATOM     51   O  BGC B   4      20.096   5.505   2.4970  0.00  0.00     0.000 O
ATOM     53  HD  BGC B   4      19.876   6.241   2.0980  0.00  0.00     0.000 HD
ATOM     53   O  BGC B   4      18.812   7.815   3.5560  0.00  0.00     0.000 O
ATOM     55  HD  BGC B   4      18.593   8.551   3.1560  0.00  0.00     0.000 HD
ATOM     55   C  BGC B   4      23.340   9.665   4.4970  0.00  0.00     0.000 C
ATOM     56   O  BGC B   4      23.045   9.407   5.8710  0.00  0.00     0.000 O
ATOM     58  HD  BGC B   4      22.825  10.144   5.4710  0.00  0.00     0.000 HD
BRANCH 45 58
ATOM     58  O4  BGC B   5      22.769   5.219   3.5330  0.00  0.00     0.000 O
BRANCH 58 62
ATOM     59  C1  BGC B   5      26.144   2.824   3.3810  0.00  0.00     0.000 C
ATOM     60  C2  BGC B   5      26.255   4.049   4.2670  0.00  0.00     0.000 C
ATOM     61  C3  BGC B   5      24.879   4.607   4.5790  0.00  0.00     0.000 C
ATOM     62  C4  BGC B   5      24.133   4.872   3.2810  0.00  0.00     0.000 C
ATOM     63  C5  BGC B   5      24.125   3.617   2.3960  0.00  0.00     0.000 C
ATOM     64  O5  BGC B   5      25.469   3.200   2.1770  0.00  0.00     0.000 O
ATOM     65   O  BGC B   5      24.219   4.911   0.4430  0.00  0.00     0.000 O
ATOM     67  HD  BGC B   5      24.052   5.709   0.1520  0.00  0.00     0.000 HD
ATOM     67   O  BGC B   5      24.219   4.911   0.4430  0.00  0.00     0.000 O
ATOM     69  HD  BGC B   5      24.052   5.709   0.1520  0.00  0.00     0.000 HD
ENDBRANCH 58 62
ENDBRANCH 45 58
ENDBRANCH 44 48
ENDBRANCH 31 44
ENDBRANCH 30 34
ENDBRANCH 17 30
ENDBRANCH 16 20
ENDBRANCH 1 16
TORSDOF 8
ENDMDL
MODEL 25
REMARK VINA RESULT:      -0.4      7.632     14.129
ROOT
ATOM      1  C1  BGC B   1      18.007   5.660   4.0900  0.00  0.00     0.000 C
ATOM      2  C2  BGC B   1      16.581   5.490   3.5670  0.00  0.00     0.000 C
ATOM      3  C3  BGC B   1      15.719   4.816   4.6160  0.00  0.00     0.000 C
ATOM      4  C4  BGC B   1      16.373   3.530   5.1060  0.00  0.00     0.000 C
ATOM      5  C5  BGC B   1      17.771   3.862   5.6070  0.00  0.00     0.000 C
ATOM      6  O5  BGC B   1      18.512   4.395   4.4940  0.00  0.00     0.000 O
ATOM      7   O  BGC B   1      16.032   6.783   3.2630  0.00  0.00     0.000 O
ATOM      9  HD  BGC B   1      15.173   6.878   3.3130  0.00  0.00     0.000 HD
ATOM      9   O  BGC B   1      14.430   4.549   4.0530  0.00  0.00     0.000 O
ATOM     11  HD  BGC B   1      13.571   4.644   4.1040  0.00  0.00     0.000 HD
ATOM     11   O  BGC B   1      15.606   2.978   6.1540  0.00  0.00     0.000 O
ATOM     13  HD  BGC B   1      14.746   3.072   6.2040  0.00  0.00     0.000 HD
ATOM     13   C  BGC B   1      18.542   2.680   6.1790  0.00  0.00     0.000 C
ATOM     14   O  BGC B   1      18.635   1.597   5.2590  0.00  0.00     0.000 O
ATOM     16  HD  BGC B   1      17.776   1.691   5.3100  0.00  0.00     0.000 HD
ENDROOT
BRANCH 1 16
ATOM     16  O4  BGC B   2      18.801   6.036   2.9660  0.00  0.00     0.000 O
BRANCH 16 20
ATOM     17  C1  BGC B   2      21.598   8.890   2.2120  0.00  0.00     0.000 C
ATOM     18  C2  BGC B   2      22.161   7.477   2.2500  0.00  0.00     0.000 C
ATOM     19  C3  BGC B   2      20.999   6.490   2.1720  0.00  0.00     0.000 C
ATOM     20  C4  BGC B   2      19.980   6.784   3.2530  0.00  0.00     0.000 C
ATOM     21  C5  BGC B   2      19.587   8.261   3.2970  0.00  0.00     0.000 C
ATOM     22  O5  BGC B   2      20.781   9.048   3.3870  0.00  0.00     0.000 O
ATOM     23   O  BGC B   2      23.036   7.263   1.1300  0.00  0.00     0.000 O
ATOM     25  HD  BGC B   2      22.222   7.026   1.3050  0.00  0.00     0.000 HD
ATOM     25   O  BGC B   2      21.485   5.159   2.3010  0.00  0.00     0.000 O
ATOM     27  HD  BGC B   2      20.671   4.921   2.4760  0.00  0.00     0.000 HD
ATOM     27   C  BGC B   2      18.711   8.607   4.4950  0.00  0.00     0.000 C
ATOM     28   O  BGC B   2      19.299   8.264   5.7390  0.00  0.00     0.000 O
ATOM     30  HD  BGC B   2      18.484   8.026   5.9140  0.00  0.00     0.000 HD
BRANCH 17 30
ATOM     30  O4  BGC B   3      22.690   9.771   2.4010  0.00  0.00     0.000 O
BRANCH 30 34
ATOM     31  C1  BGC B   3      23.427  13.790   2.8770  0.00  0.00     0.000 C
ATOM     32  C2  BGC B   3      22.879  13.093   4.1220  0.00  0.00     0.000 C
ATOM     33  C3  BGC B   3      23.030  11.592   3.9510  0.00  0.00     0.000 C
ATOM     34  C4  BGC B   3      22.350  11.136   2.6610  0.00  0.00     0.000 C
ATOM     35  C5  BGC B   3      22.835  11.967   1.4860  0.00  0.00     0.000 C
ATOM     36  O5  BGC B   3      22.646  13.356   1.7740  0.00  0.00     0.000 O
ATOM     37   O  BGC B   3      23.635  13.496   5.2630  0.00  0.00     0.000 O
ATOM     39  HD  BGC B   3      23.054  13.098   5.7670  0.00  0.00     0.000 HD
ATOM     39   O  BGC B   3      22.449  10.951   5.0770  0.00  0.00     0.000 O
ATOM     41  HD  BGC B   3      21.869  10.553   5.5810  0.00  0.00     0.000 HD
ATOM     41   C  BGC B   3      22.141  11.642   0.1680  0.00  0.00     0.000 C
ATOM     42   O  BGC B   3      20.749  11.818   0.2960  0.00  0.00     0.000 O
ATOM     44  HD  BGC B   3      20.169  11.420   0.8010  0.00  0.00     0.000 HD
BRANCH 31 44
ATOM     44  O4  BGC B   4      23.178  15.164   3.0260  0.00  0.00     0.000 O
BRANCH 44 48
ATOM     45  C1  BGC B   4      24.789  18.816   2.0930  0.00  0.00     0.000 C
ATOM     46  C2  BGC B   4      24.459  17.939   0.8940  0.00  0.00     0.000 C
ATOM     47  C3  BGC B   4      23.534  16.827   1.3230  0.00  0.00     0.000 C
ATOM     48  C4  BGC B   4      24.138  16.059   2.5030  0.00  0.00     0.000 C
ATOM     49  C5  BGC B   4      24.536  17.024   3.6270  0.00  0.00     0.000 C
ATOM     50  O5  BGC B   4      25.416  18.033   3.1100  0.00  0.00     0.000 O
ATOM     51   O  BGC B   4      23.811  18.722  -0.1270  0.00  0.00     0.000 O
ATOM     53  HD  BGC B   4      23.117  18.321   0.2000  0.00  0.00     0.000 HD
ATOM     53   O  BGC B   4      23.338  15.936   0.2150  0.00  0.00     0.000 O
ATOM     55  HD  BGC B   4      22.644  15.534   0.5420  0.00  0.00     0.000 HD
ATOM     55   C  BGC B   4      25.251  16.367   4.7940  0.00  0.00     0.000 C
ATOM     56   O  BGC B   4      26.382  15.667   4.2740  0.00  0.00     0.000 O
ATOM     58  HD  BGC B   4      25.688  15.266   4.6000  0.00  0.00     0.000 HD
BRANCH 45 58
ATOM     58  O4  BGC B   5      25.851  19.671   1.6720  0.00  0.00     0.000 O
BRANCH 58 62
ATOM     59  C1  BGC B   5      27.227  23.566   1.9650  0.00  0.00     0.000 C
ATOM     60  C2  BGC B   5      27.048  22.839   3.2830  0.00  0.00     0.000 C
ATOM     61  C3  BGC B   5      26.953  21.342   3.0560  0.00  0.00     0.000 C
ATOM     62  C4  BGC B   5      25.848  21.049   2.0550  0.00  0.00     0.000 C
ATOM     63  C5  BGC B   5      26.044  21.875   0.7750  0.00  0.00     0.000 C
ATOM     64  O5  BGC B   5      26.112  23.254   1.1240  0.00  0.00     0.000 O
ATOM     65   O  BGC B   5      23.728  22.078   0.4700  0.00  0.00     0.000 O
ATOM     67  HD  BGC B   5      22.981  21.701   0.6930  0.00  0.00     0.000 HD
ATOM     67   O  BGC B   5      23.728  22.078   0.4700  0.00  0.00     0.000 O
ATOM     69  HD  BGC B   5      22.981  21.701   0.6930  0.00  0.00     0.000 HD
ENDBRANCH 58 62
ENDBRANCH 45 58
ENDBRANCH 44 48
ENDBRANCH 31 44
ENDBRANCH 30 34
ENDBRANCH 17 30
ENDBRANCH 16 20
ENDBRANCH 1 16
TORSDOF 8
ENDMDL
MODEL 26
REMARK VINA RESULT:      -0.4      9.928     17.741
ROOT
ATOM      1  C1  BGC B   1      21.383   6.924   4.0670  0.00  0.00     0.000 C
ATOM      2  C2  BGC B   1      20.185   7.557   3.3610  0.00  0.00     0.000 C
ATOM      3  C3  BGC B   1      18.914   7.276   4.1390  0.00  0.00     0.000 C
ATOM      4  C4  BGC B   1      18.772   5.785   4.4190  0.00  0.00     0.000 C
ATOM      5  C5  BGC B   1      20.027   5.307   5.1340  0.00  0.00     0.000 C
ATOM      6  O5  BGC B   1      21.140   5.536   4.2500  0.00  0.00     0.000 O
ATOM      7   O  BGC B   1      20.383   8.978   3.2750  0.00  0.00     0.000 O
ATOM      9  HD  BGC B   1      19.679   9.481   3.2470  0.00  0.00     0.000 HD
ATOM      9   O  BGC B   1      17.796   7.762   3.3900  0.00  0.00     0.000 O
ATOM     11  HD  BGC B   1      17.092   8.266   3.3620  0.00  0.00     0.000 HD
ATOM     11   O  BGC B   1      17.641   5.561   5.2320  0.00  0.00     0.000 O
ATOM     13  HD  BGC B   1      16.937   6.065   5.2040  0.00  0.00     0.000 HD
ATOM     13   C  BGC B   1      20.018   3.837   5.5280  0.00  0.00     0.000 C
ATOM     14   O  BGC B   1      19.775   2.979   4.4180  0.00  0.00     0.000 O
ATOM     16  HD  BGC B   1      19.071   3.483   4.3890  0.00  0.00     0.000 HD
ENDROOT
BRANCH 1 16
ATOM     16  O4  BGC B   2      22.470   6.993   3.1460  0.00  0.00     0.000 O
BRANCH 16 20
ATOM     17  C1  BGC B   2      26.355   7.945   3.8750  0.00  0.00     0.000 C
ATOM     18  C2  BGC B   2      26.181   6.682   3.0450  0.00  0.00     0.000 C
ATOM     19  C3  BGC B   2      24.743   6.632   2.5350  0.00  0.00     0.000 C
ATOM     20  C4  BGC B   2      23.768   6.760   3.6870  0.00  0.00     0.000 C
ATOM     21  C5  BGC B   2      24.100   7.939   4.6030  0.00  0.00     0.000 C
ATOM     22  O5  BGC B   2      25.471   7.831   5.0050  0.00  0.00     0.000 O
ATOM     23   O  BGC B   2      27.078   6.701   1.9210  0.00  0.00     0.000 O
ATOM     25  HD  BGC B   2      26.230   6.852   2.0110  0.00  0.00     0.000 HD
ATOM     25   O  BGC B   2      24.520   5.414   1.8340  0.00  0.00     0.000 O
ATOM     27  HD  BGC B   2      23.672   5.564   1.9230  0.00  0.00     0.000 HD
ATOM     27   C  BGC B   2      23.247   7.968   5.8650  0.00  0.00     0.000 C
ATOM     28   O  BGC B   2      23.326   6.774   6.6260  0.00  0.00     0.000 O
ATOM     30  HD  BGC B   2      22.478   6.925   6.7150  0.00  0.00     0.000 HD
BRANCH 17 30
ATOM     30  O4  BGC B   3      27.660   7.900   4.4200  0.00  0.00     0.000 O
BRANCH 30 34
ATOM     31  C1  BGC B   3      30.077  10.300   6.7280  0.00  0.00     0.000 C
ATOM     32  C2  BGC B   3      29.256   9.280   7.5160  0.00  0.00     0.000 C
ATOM     33  C3  BGC B   3      28.736   8.223   6.5590  0.00  0.00     0.000 C
ATOM     34  C4  BGC B   3      27.949   8.878   5.4250  0.00  0.00     0.000 C
ATOM     35  C5  BGC B   3      28.772   9.978   4.7780  0.00  0.00     0.000 C
ATOM     36  O5  BGC B   3      29.206  10.901   5.7820  0.00  0.00     0.000 O
ATOM     37   O  BGC B   3      30.090   8.644   8.4830  0.00  0.00     0.000 O
ATOM     39  HD  BGC B   3      29.384   8.279   8.8270  0.00  0.00     0.000 HD
ATOM     39   O  BGC B   3      27.912   7.324   7.2870  0.00  0.00     0.000 O
ATOM     41  HD  BGC B   3      27.206   6.959   7.6310  0.00  0.00     0.000 HD
ATOM     41   C  BGC B   3      28.030  10.750   3.6920  0.00  0.00     0.000 C
ATOM     42   O  BGC B   3      26.855  11.320   4.2190  0.00  0.00     0.000 O
ATOM     44  HD  BGC B   3      26.149  10.955   4.5630  0.00  0.00     0.000 HD
BRANCH 31 44
ATOM     44  O4  BGC B   4      30.454  11.313   7.6240  0.00  0.00     0.000 O
BRANCH 44 48
ATOM     45  C1  BGC B   4      33.486  13.979   8.3330  0.00  0.00     0.000 C
ATOM     46  C2  BGC B   4      32.715  14.219   7.0430  0.00  0.00     0.000 C
ATOM     47  C3  BGC B   4      31.415  13.453   7.0840  0.00  0.00     0.000 C
ATOM     48  C4  BGC B   4      31.679  11.973   7.3810  0.00  0.00     0.000 C
ATOM     49  C5  BGC B   4      32.546  11.822   8.6370  0.00  0.00     0.000 C
ATOM     50  O5  BGC B   4      33.753  12.584   8.4880  0.00  0.00     0.000 O
ATOM     51   O  BGC B   4      32.429  15.622   6.8930  0.00  0.00     0.000 O
ATOM     53  HD  BGC B   4      31.651  15.352   7.1600  0.00  0.00     0.000 HD
ATOM     53   O  BGC B   4      30.762  13.582   5.8130  0.00  0.00     0.000 O
ATOM     55  HD  BGC B   4      29.984  13.312   6.0810  0.00  0.00     0.000 HD
ATOM     55   C  BGC B   4      32.958  10.394   8.9470  0.00  0.00     0.000 C
ATOM     56   O  BGC B   4      33.610   9.868   7.7890  0.00  0.00     0.000 O
ATOM     58  HD  BGC B   4      32.832   9.598   8.0570  0.00  0.00     0.000 HD
BRANCH 45 58
ATOM     58  O4  BGC B   5      34.791  14.513   8.1140  0.00  0.00     0.000 O
BRANCH 58 62
ATOM     59  C1  BGC B   5      37.128  17.319  10.0670  0.00  0.00     0.000 C
ATOM     60  C2  BGC B   5      37.704  15.919  10.0110  0.00  0.00     0.000 C
ATOM     61  C3  BGC B   5      37.002  15.096   8.9480  0.00  0.00     0.000 C
ATOM     62  C4  BGC B   5      35.502  15.118   9.1970  0.00  0.00     0.000 C
ATOM     63  C5  BGC B   5      34.996  16.562   9.3220  0.00  0.00     0.000 C
ATOM     64  O5  BGC B   5      35.729  17.220  10.3500  0.00  0.00     0.000 O
ATOM     65   O  BGC B   5      33.376  15.931  10.8950  0.00  0.00     0.000 O
ATOM     67  HD  BGC B   5      32.936  15.238  11.1720  0.00  0.00     0.000 HD
ATOM     67   O  BGC B   5      33.376  15.931  10.8950  0.00  0.00     0.000 O
ATOM     69  HD  BGC B   5      32.936  15.238  11.1720  0.00  0.00     0.000 HD
ENDBRANCH 58 62
ENDBRANCH 45 58
ENDBRANCH 44 48
ENDBRANCH 31 44
ENDBRANCH 30 34
ENDBRANCH 17 30
ENDBRANCH 16 20
ENDBRANCH 1 16
TORSDOF 8
ENDMDL
MODEL 27
REMARK VINA RESULT:      -0.3     15.110     20.142
ROOT
ATOM      1  C1  BGC B   1      22.211  15.448   4.2890  0.00  0.00     0.000 C
ATOM      2  C2  BGC B   1      21.819  16.921   4.3890  0.00  0.00     0.000 C
ATOM      3  C3  BGC B   1      20.408  17.121   3.8680  0.00  0.00     0.000 C
ATOM      4  C4  BGC B   1      20.256  16.516   2.4790  0.00  0.00     0.000 C
ATOM      5  C5  BGC B   1      20.666  15.052   2.5440  0.00  0.00     0.000 C
ATOM      6  O5  BGC B   1      22.047  15.009   2.9480  0.00  0.00     0.000 O
ATOM      7   O  BGC B   1      21.878  17.335   5.7640  0.00  0.00     0.000 O
ATOM      9  HD  BGC B   1      21.360  17.983   6.0130  0.00  0.00     0.000 HD
ATOM      9   O  BGC B   1      20.117  18.522   3.8490  0.00  0.00     0.000 O
ATOM     11  HD  BGC B   1      19.599  19.170   4.0970  0.00  0.00     0.000 HD
ATOM     11   O  BGC B   1      18.912  16.621   2.0610  0.00  0.00     0.000 O
ATOM     13  HD  BGC B   1      18.394  17.269   2.3100  0.00  0.00     0.000 HD
ATOM     13   C  BGC B   1      20.522  14.289   1.2340  0.00  0.00     0.000 C
ATOM     14   O  BGC B   1      21.228  14.911   0.1650  0.00  0.00     0.000 O
ATOM     16  HD  BGC B   1      20.710  15.559   0.4130  0.00  0.00     0.000 HD
ENDROOT
BRANCH 1 16
ATOM     16  O4  BGC B   2      23.616  15.393   4.5300  0.00  0.00     0.000 O
BRANCH 16 20
ATOM     17  C1  BGC B   2      26.473  13.015   6.1780  0.00  0.00     0.000 C
ATOM     18  C2  BGC B   2      25.978  12.527   4.8250  0.00  0.00     0.000 C
ATOM     19  C3  BGC B   2      25.205  13.660   4.1540  0.00  0.00     0.000 C
ATOM     20  C4  BGC B   2      24.112  14.171   5.0710  0.00  0.00     0.000 C
ATOM     21  C5  BGC B   2      24.625  14.469   6.4800  0.00  0.00     0.000 C
ATOM     22  O5  BGC B   2      25.308  13.309   6.9710  0.00  0.00     0.000 O
ATOM     23   O  BGC B   2      27.092  12.161   3.9940  0.00  0.00     0.000 O
ATOM     25  HD  BGC B   2      26.570  12.852   4.0220  0.00  0.00     0.000 HD
ATOM     25   O  BGC B   2      24.647  13.206   2.9270  0.00  0.00     0.000 O
ATOM     27  HD  BGC B   2      24.125  13.896   2.9550  0.00  0.00     0.000 HD
ATOM     27   C  BGC B   2      23.508  14.801   7.4610  0.00  0.00     0.000 C
ATOM     28   O  BGC B   2      22.518  13.789   7.5500  0.00  0.00     0.000 O
ATOM     30  HD  BGC B   2      21.996  14.479   7.5780  0.00  0.00     0.000 HD
BRANCH 17 30
ATOM     30  O4  BGC B   3      27.083  11.908   6.8140  0.00  0.00     0.000 O
BRANCH 30 34
ATOM     31  C1  BGC B   3      29.933  11.102   9.6710  0.00  0.00     0.000 C
ATOM     32  C2  BGC B   3      28.611  11.632  10.2250  0.00  0.00     0.000 C
ATOM     33  C3  BGC B   3      27.543  11.508   9.1520  0.00  0.00     0.000 C
ATOM     34  C4  BGC B   3      27.989  12.222   7.8770  0.00  0.00     0.000 C
ATOM     35  C5  BGC B   3      29.372  11.751   7.4630  0.00  0.00     0.000 C
ATOM     36  O5  BGC B   3      30.278  11.913   8.5590  0.00  0.00     0.000 O
ATOM     37   O  BGC B   3      28.216  10.846  11.3480  0.00  0.00     0.000 O
ATOM     39  HD  BGC B   3      27.590  11.422  11.5090  0.00  0.00     0.000 HD
ATOM     39   O  BGC B   3      26.339  12.072   9.6480  0.00  0.00     0.000 O
ATOM     41  HD  BGC B   3      25.712  12.648   9.8100  0.00  0.00     0.000 HD
ATOM     41   C  BGC B   3      29.937  12.479   6.2480  0.00  0.00     0.000 C
ATOM     42   O  BGC B   3      29.991  13.864   6.4950  0.00  0.00     0.000 O
ATOM     44  HD  BGC B   3      29.365  14.439   6.6570  0.00  0.00     0.000 HD
BRANCH 31 44
ATOM     44  O4  BGC B   4      30.914  11.328  10.6500  0.00  0.00     0.000 O
BRANCH 44 48
ATOM     45  C1  BGC B   4      34.389   9.699  12.0900  0.00  0.00     0.000 C
ATOM     46  C2  BGC B   4      34.532  10.441  10.7690  0.00  0.00     0.000 C
ATOM     47  C3  BGC B   4      33.319  11.310  10.5460  0.00  0.00     0.000 C
ATOM     48  C4  BGC B   4      32.040  10.474  10.6500  0.00  0.00     0.000 C
ATOM     49  C5  BGC B   4      32.020   9.679  11.9620  0.00  0.00     0.000 C
ATOM     50  O5  BGC B   4      33.213   8.888  12.0670  0.00  0.00     0.000 O
ATOM     51   O  BGC B   4      35.707  11.273  10.7950  0.00  0.00     0.000 O
ATOM     53  HD  BGC B   4      35.106  11.882  10.9290  0.00  0.00     0.000 HD
ATOM     53   O  BGC B   4      33.406  11.900   9.2410  0.00  0.00     0.000 O
ATOM     55  HD  BGC B   4      32.805  12.509   9.3740  0.00  0.00     0.000 HD
ATOM     55   C  BGC B   4      30.844   8.730  12.1030  0.00  0.00     0.000 C
ATOM     56   O  BGC B   4      30.841   7.868  10.9640  0.00  0.00     0.000 O
ATOM     58  HD  BGC B   4      30.240   8.476  11.0970  0.00  0.00     0.000 HD
BRANCH 45 58
ATOM     58  O4  BGC B   5      35.429   8.722  12.1050  0.00  0.00     0.000 O
BRANCH 58 62
ATOM     59  C1  BGC B   5      38.426   7.214  14.5330  0.00  0.00     0.000 C
ATOM     60  C2  BGC B   5      37.026   6.727  14.8490  0.00  0.00     0.000 C
ATOM     61  C3  BGC B   5      36.094   6.993  13.6820  0.00  0.00     0.000 C
ATOM     62  C4  BGC B   5      36.147   8.467  13.3150  0.00  0.00     0.000 C
ATOM     63  C5  BGC B   5      37.597   8.915  13.0850  0.00  0.00     0.000 C
ATOM     64  O5  BGC B   5      38.361   8.616  14.2480  0.00  0.00     0.000 O
ATOM     65   O  BGC B   5      37.145  11.049  13.9440  0.00  0.00     0.000 O
ATOM     67  HD  BGC B   5      36.489  11.594  14.0920  0.00  0.00     0.000 HD
ATOM     67   O  BGC B   5      37.145  11.049  13.9440  0.00  0.00     0.000 O
ATOM     69  HD  BGC B   5      36.489  11.594  14.0920  0.00  0.00     0.000 HD
ENDBRANCH 58 62
ENDBRANCH 45 58
ENDBRANCH 44 48
ENDBRANCH 31 44
ENDBRANCH 30 34
ENDBRANCH 17 30
ENDBRANCH 16 20
ENDBRANCH 1 16
TORSDOF 8
ENDMDL
MODEL 28
REMARK VINA RESULT:      -0.2     58.119     65.785
ROOT
ATOM      1  C1  BGC B   1      41.437  65.889  23.1650  0.00  0.00     0.000 C
ATOM      2  C2  BGC B   1      42.225  66.750  22.1800  0.00  0.00     0.000 C
ATOM      3  C3  BGC B   1      43.636  66.969  22.6910  0.00  0.00     0.000 C
ATOM      4  C4  BGC B   1      43.615  67.497  24.1200  0.00  0.00     0.000 C
ATOM      5  C5  BGC B   1      42.812  66.531  24.9790  0.00  0.00     0.000 C
ATOM      6  O5  BGC B   1      41.474  66.495  24.4500  0.00  0.00     0.000 O
ATOM      7   O  BGC B   1      42.282  66.082  20.9080  0.00  0.00     0.000 O
ATOM      9  HD  BGC B   1      42.960  66.248  20.3960  0.00  0.00     0.000 HD
ATOM      9   O  BGC B   1      44.307  67.884  21.8200  0.00  0.00     0.000 O
ATOM     11  HD  BGC B   1      44.985  68.050  21.3080  0.00  0.00     0.000 HD
ATOM     11   O  BGC B   1      44.935  67.592  24.6100  0.00  0.00     0.000 O
ATOM     13  HD  BGC B   1      45.613  67.758  24.0970  0.00  0.00     0.000 HD
ATOM     13   C  BGC B   1      42.739  66.897  26.4550  0.00  0.00     0.000 C
ATOM     14   O  BGC B   1      42.236  68.213  26.6630  0.00  0.00     0.000 O
ATOM     16  HD  BGC B   1      42.915  68.379  26.1500  0.00  0.00     0.000 HD
ENDROOT
BRANCH 1 16
ATOM     16  O4  BGC B   2      40.073  65.965  22.7570  0.00  0.00     0.000 O
BRANCH 16 20
ATOM     17  C1  BGC B   2      36.663  63.753  22.6240  0.00  0.00     0.000 C
ATOM     18  C2  BGC B   2      36.999  64.274  24.0140  0.00  0.00     0.000 C
ATOM     19  C3  BGC B   2      38.059  65.365  23.8780  0.00  0.00     0.000 C
ATOM     20  C4  BGC B   2      39.253  64.850  23.1000  0.00  0.00     0.000 C
ATOM     21  C5  BGC B   2      38.845  64.163  21.7950  0.00  0.00     0.000 C
ATOM     22  O5  BGC B   2      37.864  63.162  22.0940  0.00  0.00     0.000 O
ATOM     23   O  BGC B   2      35.827  64.832  24.6290  0.00  0.00     0.000 O
ATOM     25  HD  BGC B   2      36.522  65.179  24.2470  0.00  0.00     0.000 HD
ATOM     25   O  BGC B   2      38.466  65.808  25.1680  0.00  0.00     0.000 O
ATOM     27  HD  BGC B   2      39.161  66.154  24.7850  0.00  0.00     0.000 HD
ATOM     27   C  BGC B   2      40.011  63.476  21.0960  0.00  0.00     0.000 C
ATOM     28   O  BGC B   2      40.676  62.527  21.9140  0.00  0.00     0.000 O
ATOM     30  HD  BGC B   2      41.372  62.874  21.5310  0.00  0.00     0.000 HD
BRANCH 17 30
ATOM     30  O4  BGC B   3      35.766  62.672  22.7990  0.00  0.00     0.000 O
BRANCH 30 34
ATOM     31  C1  BGC B   3      32.626  60.843  20.8700  0.00  0.00     0.000 C
ATOM     32  C2  BGC B   3      33.990  60.614  20.2210  0.00  0.00     0.000 C
ATOM     33  C3  BGC B   3      35.076  60.983  21.2150  0.00  0.00     0.000 C
ATOM     34  C4  BGC B   3      34.878  62.417  21.7060  0.00  0.00     0.000 C
ATOM     35  C5  BGC B   3      33.458  62.613  22.2060  0.00  0.00     0.000 C
ATOM     36  O5  BGC B   3      32.535  62.224  21.1830  0.00  0.00     0.000 O
ATOM     37   O  BGC B   3      34.132  59.234  19.8880  0.00  0.00     0.000 O
ATOM     39  HD  BGC B   3      34.854  59.431  19.4530  0.00  0.00     0.000 HD
ATOM     39   O  BGC B   3      36.337  60.841  20.5780  0.00  0.00     0.000 O
ATOM     41  HD  BGC B   3      37.059  61.037  20.1430  0.00  0.00     0.000 HD
ATOM     41   C  BGC B   3      33.143  64.043  22.6310  0.00  0.00     0.000 C
ATOM     42   O  BGC B   3      33.367  64.929  21.5590  0.00  0.00     0.000 O
ATOM     44  HD  BGC B   3      34.089  65.125  21.1240  0.00  0.00     0.000 HD
BRANCH 31 44
ATOM     44  O4  BGC B   4      31.651  60.591  19.8910  0.00  0.00     0.000 O
BRANCH 44 48
ATOM     45  C1  BGC B   4      27.815  59.196  19.5150  0.00  0.00     0.000 C
ATOM     46  C2  BGC B   4      27.929  60.606  20.0780  0.00  0.00     0.000 C
ATOM     47  C3  BGC B   4      29.311  61.146  19.8040  0.00  0.00     0.000 C
ATOM     48  C4  BGC B   4      30.374  60.180  20.3360  0.00  0.00     0.000 C
ATOM     49  C5  BGC B   4      30.129  58.763  19.8040  0.00  0.00     0.000 C
ATOM     50  O5  BGC B   4      28.792  58.350  20.1230  0.00  0.00     0.000 O
ATOM     51   O  BGC B   4      26.956  61.466  19.4550  0.00  0.00     0.000 O
ATOM     53  HD  BGC B   4      27.660  61.717  19.0190  0.00  0.00     0.000 HD
ATOM     53   O  BGC B   4      29.445  62.419  20.4530  0.00  0.00     0.000 O
ATOM     55  HD  BGC B   4      30.150  62.671  20.0160  0.00  0.00     0.000 HD
ATOM     55   C  BGC B   4      31.066  57.710  20.3690  0.00  0.00     0.000 C
ATOM     56   O  BGC B   4      30.972  57.763  21.7930  0.00  0.00     0.000 O
ATOM     58  HD  BGC B   4      31.676  58.014  21.3570  0.00  0.00     0.000 HD
BRANCH 45 58
ATOM     58  O4  BGC B   5      26.594  58.666  20.0310  0.00  0.00     0.000 O
BRANCH 58 62
ATOM     59  C1  BGC B   5      23.159  56.686  18.8390  0.00  0.00     0.000 C
ATOM     60  C2  BGC B   5      24.395  55.820  18.9730  0.00  0.00     0.000 C
ATOM     61  C3  BGC B   5      25.455  56.529  19.7940  0.00  0.00     0.000 C
ATOM     62  C4  BGC B   5      25.742  57.892  19.1840  0.00  0.00     0.000 C
ATOM     63  C5  BGC B   5      24.441  58.687  19.0020  0.00  0.00     0.000 C
ATOM     64  O5  BGC B   5      23.538  57.917  18.2150  0.00  0.00     0.000 O
ATOM     65   O  BGC B   5      25.255  59.703  17.0520  0.00  0.00     0.000 O
ATOM     67  HD  BGC B   5      25.997  59.889  16.6450  0.00  0.00     0.000 HD
ATOM     67   O  BGC B   5      25.255  59.703  17.0520  0.00  0.00     0.000 O
ATOM     69  HD  BGC B   5      25.997  59.889  16.6450  0.00  0.00     0.000 HD
ENDBRANCH 58 62
ENDBRANCH 45 58
ENDBRANCH 44 48
ENDBRANCH 31 44
ENDBRANCH 30 34
ENDBRANCH 17 30
ENDBRANCH 16 20
ENDBRANCH 1 16
TORSDOF 8
ENDMDL
MODEL 29
REMARK VINA RESULT:      -0.2     50.833     55.194
ROOT
ATOM      1  C1  BGC B   1      42.100  44.565  20.4550  0.00  0.00     0.000 C
ATOM      2  C2  BGC B   1      43.301  44.073  19.6490  0.00  0.00     0.000 C
ATOM      3  C3  BGC B   1      43.352  44.777  18.3070  0.00  0.00     0.000 C
ATOM      4  C4  BGC B   1      42.014  44.663  17.5880  0.00  0.00     0.000 C
ATOM      5  C5  BGC B   1      40.926  45.203  18.5050  0.00  0.00     0.000 C
ATOM      6  O5  BGC B   1      40.917  44.385  19.6890  0.00  0.00     0.000 O
ATOM      7   O  BGC B   1      44.508  44.356  20.3780  0.00  0.00     0.000 O
ATOM      9  HD  BGC B   1      45.235  44.473  19.9220  0.00  0.00     0.000 HD
ATOM      9   O  BGC B   1      44.403  44.204  17.5230  0.00  0.00     0.000 O
ATOM     11  HD  BGC B   1      45.130  44.322  17.0680  0.00  0.00     0.000 HD
ATOM     11   O  BGC B   1      42.053  45.414  16.3930  0.00  0.00     0.000 O
ATOM     13  HD  BGC B   1      42.780  45.531  15.9380  0.00  0.00     0.000 HD
ATOM     13   C  BGC B   1      39.527  45.201  17.9050  0.00  0.00     0.000 C
ATOM     14   O  BGC B   1      39.134  43.911  17.4480  0.00  0.00     0.000 O
ATOM     16  HD  BGC B   1      39.861  44.029  16.9920  0.00  0.00     0.000 HD
ENDROOT
BRANCH 1 16
ATOM     16  O4  BGC B   2      41.968  43.670  21.5580  0.00  0.00     0.000 O
BRANCH 16 20
ATOM     17  C1  BGC B   2      40.845  43.577  25.4660  0.00  0.00     0.000 C
ATOM     18  C2  BGC B   2      39.676  43.666  24.4950  0.00  0.00     0.000 C
ATOM     19  C3  BGC B   2      40.182  43.328  23.0950  0.00  0.00     0.000 C
ATOM     20  C4  BGC B   2      41.362  44.206  22.7320  0.00  0.00     0.000 C
ATOM     21  C5  BGC B   2      42.428  44.233  23.8280  0.00  0.00     0.000 C
ATOM     22  O5  BGC B   2      41.799  44.580  25.0670  0.00  0.00     0.000 O
ATOM     23   O  BGC B   2      38.654  42.726  24.8660  0.00  0.00     0.000 O
ATOM     25  HD  BGC B   2      39.264  42.733  24.2520  0.00  0.00     0.000 HD
ATOM     25   O  BGC B   2      39.133  43.495  22.1480  0.00  0.00     0.000 O
ATOM     27  HD  BGC B   2      39.743  43.502  21.5330  0.00  0.00     0.000 HD
ATOM     27   C  BGC B   2      43.527  45.254  23.5630  0.00  0.00     0.000 C
ATOM     28   O  BGC B   2      43.037  46.573  23.3830  0.00  0.00     0.000 O
ATOM     30  HD  BGC B   2      43.648  46.579  22.7680  0.00  0.00     0.000 HD
BRANCH 17 30
ATOM     30  O4  BGC B   3      40.364  44.005  26.7260  0.00  0.00     0.000 O
BRANCH 30 34
ATOM     31  C1  BGC B   3      41.002  43.330  30.7340  0.00  0.00     0.000 C
ATOM     32  C2  BGC B   3      42.120  44.101  30.0340  0.00  0.00     0.000 C
ATOM     33  C3  BGC B   3      41.601  44.624  28.7070  0.00  0.00     0.000 C
ATOM     34  C4  BGC B   3      41.048  43.475  27.8660  0.00  0.00     0.000 C
ATOM     35  C5  BGC B   3      40.047  42.664  28.6710  0.00  0.00     0.000 C
ATOM     36  O5  BGC B   3      40.655  42.239  29.8950  0.00  0.00     0.000 O
ATOM     37   O  BGC B   3      42.505  45.214  30.8390  0.00  0.00     0.000 O
ATOM     39  HD  BGC B   3      43.177  45.344  30.3080  0.00  0.00     0.000 HD
ATOM     39   O  BGC B   3      42.667  45.272  28.0300  0.00  0.00     0.000 O
ATOM     41  HD  BGC B   3      43.339  45.403  27.4990  0.00  0.00     0.000 HD
ATOM     41   C  BGC B   3      39.511  41.439  27.9400  0.00  0.00     0.000 C
ATOM     42   O  BGC B   3      40.573  40.594  27.5640  0.00  0.00     0.000 O
ATOM     44  HD  BGC B   3      41.244  40.724  27.0330  0.00  0.00     0.000 HD
BRANCH 31 44
ATOM     44  O4  BGC B   4      41.547  42.777  31.9040  0.00  0.00     0.000 O
BRANCH 44 48
ATOM     45  C1  BGC B   4      40.483  41.753  35.7280  0.00  0.00     0.000 C
ATOM     46  C2  BGC B   4      39.964  40.814  34.6490  0.00  0.00     0.000 C
ATOM     47  C3  BGC B   4      40.724  41.051  33.3670  0.00  0.00     0.000 C
ATOM     48  C4  BGC B   4      40.664  42.532  32.9800  0.00  0.00     0.000 C
ATOM     49  C5  BGC B   4      41.105  43.415  34.1540  0.00  0.00     0.000 C
ATOM     50  O5  BGC B   4      40.316  43.110  35.3130  0.00  0.00     0.000 O
ATOM     51   O  BGC B   4      40.147  39.445  35.0570  0.00  0.00     0.000 O
ATOM     53  HD  BGC B   4      40.809  39.513  34.5040  0.00  0.00     0.000 HD
ATOM     53   O  BGC B   4      40.138  40.255  32.3280  0.00  0.00     0.000 O
ATOM     55  HD  BGC B   4      40.801  40.322  31.7750  0.00  0.00     0.000 HD
ATOM     55   C  BGC B   4      40.969  44.906  33.9030  0.00  0.00     0.000 C
ATOM     56   O  BGC B   4      39.613  45.163  33.5300  0.00  0.00     0.000 O
ATOM     58  HD  BGC B   4      40.276  45.230  32.9770  0.00  0.00     0.000 HD
BRANCH 45 58
ATOM     58  O4  BGC B   5      39.559  41.654  36.8110  0.00  0.00     0.000 O
BRANCH 58 62
ATOM     59  C1  BGC B   5      39.423  41.109  40.9140  0.00  0.00     0.000 C
ATOM     60  C2  BGC B   5      39.781  42.508  40.4560  0.00  0.00     0.000 C
ATOM     61  C3  BGC B   5      39.401  42.705  39.0000  0.00  0.00     0.000 C
ATOM     62  C4  BGC B   5      40.042  41.616  38.1560  0.00  0.00     0.000 C
ATOM     63  C5  BGC B   5      39.707  40.227  38.7190  0.00  0.00     0.000 C
ATOM     64  O5  BGC B   5      40.115  40.172  40.0820  0.00  0.00     0.000 O
ATOM     65   O  BGC B   5      41.796  39.384  38.0710  0.00  0.00     0.000 O
ATOM     67  HD  BGC B   5      42.447  39.538  37.5210  0.00  0.00     0.000 HD
ATOM     67   O  BGC B   5      41.796  39.384  38.0710  0.00  0.00     0.000 O
ATOM     69  HD  BGC B   5      42.447  39.538  37.5210  0.00  0.00     0.000 HD
ENDBRANCH 58 62
ENDBRANCH 45 58
ENDBRANCH 44 48
ENDBRANCH 31 44
ENDBRANCH 30 34
ENDBRANCH 17 30
ENDBRANCH 16 20
ENDBRANCH 1 16
TORSDOF 8
ENDMDL
MODEL 30
REMARK VINA RESULT:      -0.2     55.955     62.102
ROOT
ATOM      1  C1  BGC B   1      54.349  38.571  20.9730  0.00  0.00     0.000 C
ATOM      2  C2  BGC B   1      55.320  37.397  20.8560  0.00  0.00     0.000 C
ATOM      3  C3  BGC B   1      54.649  36.117  21.3140  0.00  0.00     0.000 C
ATOM      4  C4  BGC B   1      54.032  36.296  22.6960  0.00  0.00     0.000 C
ATOM      5  C5  BGC B   1      53.083  37.485  22.6490  0.00  0.00     0.000 C
ATOM      6  O5  BGC B   1      53.863  38.645  22.3060  0.00  0.00     0.000 O
ATOM      7   O  BGC B   1      55.726  37.254  19.4850  0.00  0.00     0.000 O
ATOM      9  HD  BGC B   1      55.958  36.465  19.2130  0.00  0.00     0.000 HD
ATOM      9   O  BGC B   1      55.617  35.064  21.3210  0.00  0.00     0.000 O
ATOM     11  HD  BGC B   1      55.848  34.275  21.0490  0.00  0.00     0.000 HD
ATOM     11   O  BGC B   1      53.325  35.129  23.0540  0.00  0.00     0.000 O
ATOM     13  HD  BGC B   1      53.556  34.340  22.7830  0.00  0.00     0.000 HD
ATOM     13   C  BGC B   1      52.346  37.765  23.9510  0.00  0.00     0.000 C
ATOM     14   O  BGC B   1      53.235  37.938  25.0510  0.00  0.00     0.000 O
ATOM     16  HD  BGC B   1      53.466  37.149  24.7800  0.00  0.00     0.000 HD
ENDROOT
BRANCH 1 16
ATOM     16  O4  BGC B   2      55.128  39.752  20.7950  0.00  0.00     0.000 O
BRANCH 16 20
ATOM     17  C1  BGC B   2      54.906  43.512  19.2630  0.00  0.00     0.000 C
ATOM     18  C2  BGC B   2      54.181  43.350  20.5910  0.00  0.00     0.000 C
ATOM     19  C3  BGC B   2      54.633  42.040  21.2320  0.00  0.00     0.000 C
ATOM     20  C4  BGC B   2      54.440  40.885  20.2710  0.00  0.00     0.000 C
ATOM     21  C5  BGC B   2      55.022  41.175  18.8870  0.00  0.00     0.000 C
ATOM     22  O5  BGC B   2      54.490  42.421  18.4200  0.00  0.00     0.000 O
ATOM     23   O  BGC B   2      54.508  44.440  21.4680  0.00  0.00     0.000 O
ATOM     25  HD  BGC B   2      54.766  43.615  21.4200  0.00  0.00     0.000 HD
ATOM     25   O  BGC B   2      53.903  41.810  22.4310  0.00  0.00     0.000 O
ATOM     27  HD  BGC B   2      54.162  40.985  22.3830  0.00  0.00     0.000 HD
ATOM     27   C  BGC B   2      54.670  40.107  17.8590  0.00  0.00     0.000 C
ATOM     28   O  BGC B   2      53.274  39.895  17.7230  0.00  0.00     0.000 O
ATOM     30  HD  BGC B   2      53.533  39.070  17.6750  0.00  0.00     0.000 HD
BRANCH 17 30
ATOM     30  O4  BGC B   3      54.379  44.674  18.6490  0.00  0.00     0.000 O
BRANCH 30 34
ATOM     31  C1  BGC B   3      55.542  47.712  16.1300  0.00  0.00     0.000 C
ATOM     32  C2  BGC B   3      55.446  46.338  15.4660  0.00  0.00     0.000 C
ATOM     33  C3  BGC B   3      54.644  45.413  16.3640  0.00  0.00     0.000 C
ATOM     34  C4  BGC B   3      55.264  45.364  17.7600  0.00  0.00     0.000 C
ATOM     35  C5  BGC B   3      55.462  46.769  18.3010  0.00  0.00     0.000 C
ATOM     36  O5  BGC B   3      56.222  47.537  17.3630  0.00  0.00     0.000 O
ATOM     37   O  BGC B   3      54.765  46.459  14.2190  0.00  0.00     0.000 O
ATOM     39  HD  BGC B   3      54.981  45.640  14.0410  0.00  0.00     0.000 HD
ATOM     39   O  BGC B   3      54.626  44.121  15.7780  0.00  0.00     0.000 O
ATOM     41  HD  BGC B   3      54.842  43.302  15.5990  0.00  0.00     0.000 HD
ATOM     41   C  BGC B   3      56.161  46.818  19.6550  0.00  0.00     0.000 C
ATOM     42   O  BGC B   3      57.418  46.188  19.5760  0.00  0.00     0.000 O
ATOM     44  HD  BGC B   3      57.634  45.368  19.3970  0.00  0.00     0.000 HD
BRANCH 31 44
ATOM     44  O4  BGC B   4      56.373  48.506  15.3240  0.00  0.00     0.000 O
BRANCH 44 48
ATOM     45  C1  BGC B   4      56.915  52.411  14.1990  0.00  0.00     0.000 C
ATOM     46  C2  BGC B   4      57.377  52.084  15.6120  0.00  0.00     0.000 C
ATOM     47  C3  BGC B   4      57.497  50.588  15.7690  0.00  0.00     0.000 C
ATOM     48  C4  BGC B   4      56.183  49.905  15.3750  0.00  0.00     0.000 C
ATOM     49  C5  BGC B   4      55.734  50.365  13.9820  0.00  0.00     0.000 C
ATOM     50  O5  BGC B   4      55.649  51.797  13.9480  0.00  0.00     0.000 O
ATOM     51   O  BGC B   4      58.661  52.687  15.8630  0.00  0.00     0.000 O
ATOM     53  HD  BGC B   4      58.917  51.871  15.7240  0.00  0.00     0.000 HD
ATOM     53   O  BGC B   4      57.805  50.290  17.1380  0.00  0.00     0.000 O
ATOM     55  HD  BGC B   4      58.062  49.474  17.0000  0.00  0.00     0.000 HD
ATOM     55   C  BGC B   4      54.380  49.830  13.5520  0.00  0.00     0.000 C
ATOM     56   O  BGC B   4      53.430  50.188  14.5580  0.00  0.00     0.000 O
ATOM     58  HD  BGC B   4      53.687  49.373  14.4190  0.00  0.00     0.000 HD
BRANCH 45 58
ATOM     58  O4  BGC B   5      56.581  53.798  14.2080  0.00  0.00     0.000 O
BRANCH 58 62
ATOM     59  C1  BGC B   5      57.237  57.298  12.0950  0.00  0.00     0.000 C
ATOM     60  C2  BGC B   5      56.195  56.368  11.5050  0.00  0.00     0.000 C
ATOM     61  C3  BGC B   5      55.739  55.356  12.5390  0.00  0.00     0.000 C
ATOM     62  C4  BGC B   5      56.948  54.624  13.1010  0.00  0.00     0.000 C
ATOM     63  C5  BGC B   5      57.998  55.623  13.6080  0.00  0.00     0.000 C
ATOM     64  O5  BGC B   5      58.341  56.508  12.5470  0.00  0.00     0.000 O
ATOM     65   O  BGC B   5      59.753  54.203  12.9770  0.00  0.00     0.000 O
ATOM     67  HD  BGC B   5      59.921  53.372  12.8020  0.00  0.00     0.000 HD
ATOM     67   O  BGC B   5      59.753  54.203  12.9770  0.00  0.00     0.000 O
ATOM     69  HD  BGC B   5      59.921  53.372  12.8020  0.00  0.00     0.000 HD
ENDBRANCH 58 62
ENDBRANCH 45 58
ENDBRANCH 44 48
ENDBRANCH 31 44
ENDBRANCH 30 34
ENDBRANCH 17 30
ENDBRANCH 16 20
ENDBRANCH 1 16
TORSDOF 8
ENDMDL
MODEL 31
REMARK VINA RESULT:      -0.2     52.566     55.632
ROOT
ATOM      1  C1  BGC B   1      46.032  45.260  15.8300  0.00  0.00     0.000 C
ATOM      2  C2  BGC B   1      45.297  45.109  17.1610  0.00  0.00     0.000 C
ATOM      3  C3  BGC B   1      43.980  45.858  17.1170  0.00  0.00     0.000 C
ATOM      4  C4  BGC B   1      44.193  47.298  16.6690  0.00  0.00     0.000 C
ATOM      5  C5  BGC B   1      44.916  47.285  15.3310  0.00  0.00     0.000 C
ATOM      6  O5  BGC B   1      46.188  46.641  15.5350  0.00  0.00     0.000 O
ATOM      7   O  BGC B   1      45.042  43.715  17.4040  0.00  0.00     0.000 O
ATOM      9  HD  BGC B   1      44.355  43.511  17.8910  0.00  0.00     0.000 HD
ATOM      9   O  BGC B   1      43.378  45.811  18.4140  0.00  0.00     0.000 O
ATOM     11  HD  BGC B   1      42.691  45.607  18.9000  0.00  0.00     0.000 HD
ATOM     11   O  BGC B   1      42.944  47.942  16.5350  0.00  0.00     0.000 O
ATOM     13  HD  BGC B   1      42.258  47.738  17.0210  0.00  0.00     0.000 HD
ATOM     13   C  BGC B   1      45.161  48.658  14.7230  0.00  0.00     0.000 C
ATOM     14   O  BGC B   1      45.863  49.525  15.6080  0.00  0.00     0.000 O
ATOM     16  HD  BGC B   1      45.176  49.321  16.0940  0.00  0.00     0.000 HD
ENDROOT
BRANCH 1 16
ATOM     16  O4  BGC B   2      47.355  44.775  16.0470  0.00  0.00     0.000 O
BRANCH 16 20
ATOM     17  C1  BGC B   2      50.385  42.831  14.1550  0.00  0.00     0.000 C
ATOM     18  C2  BGC B   2      50.238  44.287  13.7380  0.00  0.00     0.000 C
ATOM     19  C3  BGC B   2      49.341  44.993  14.7520  0.00  0.00     0.000 C
ATOM     20  C4  BGC B   2      48.028  44.253  14.9040  0.00  0.00     0.000 C
ATOM     21  C5  BGC B   2      48.228  42.754  15.1350  0.00  0.00     0.000 C
ATOM     22  O5  BGC B   2      49.072  42.242  14.0970  0.00  0.00     0.000 O
ATOM     23   O  BGC B   2      51.524  44.928  13.7210  0.00  0.00     0.000 O
ATOM     25  HD  BGC B   2      50.859  44.940  14.2750  0.00  0.00     0.000 HD
ATOM     25   O  BGC B   2      49.105  46.334  14.3380  0.00  0.00     0.000 O
ATOM     27  HD  BGC B   2      48.440  46.346  14.8930  0.00  0.00     0.000 HD
ATOM     27   C  BGC B   2      46.923  41.969  15.1010  0.00  0.00     0.000 C
ATOM     28   O  BGC B   2      46.192  42.144  13.8980  0.00  0.00     0.000 O
ATOM     30  HD  BGC B   2      45.527  42.155  14.4520  0.00  0.00     0.000 HD
BRANCH 17 30
ATOM     30  O4  BGC B   3      51.125  42.186  13.1360  0.00  0.00     0.000 O
BRANCH 30 34
ATOM     31  C1  BGC B   3      53.808  39.103  12.6650  0.00  0.00     0.000 C
ATOM     32  C2  BGC B   3      52.379  38.659  12.9770  0.00  0.00     0.000 C
ATOM     33  C3  BGC B   3      51.438  39.825  12.7320  0.00  0.00     0.000 C
ATOM     34  C4  BGC B   3      51.880  41.041  13.5460  0.00  0.00     0.000 C
ATOM     35  C5  BGC B   3      53.348  41.338  13.2960  0.00  0.00     0.000 C
ATOM     36  O5  BGC B   3      54.123  40.163  13.5540  0.00  0.00     0.000 O
ATOM     37   O  BGC B   3      52.012  37.591  12.1060  0.00  0.00     0.000 O
ATOM     39  HD  BGC B   3      51.295  37.475  12.5770  0.00  0.00     0.000 HD
ATOM     39   O  BGC B   3      50.125  39.427  13.0980  0.00  0.00     0.000 O
ATOM     41  HD  BGC B   3      49.408  39.311  13.5690  0.00  0.00     0.000 HD
ATOM     41   C  BGC B   3      53.899  42.483  14.1380  0.00  0.00     0.000 C
ATOM     42   O  BGC B   3      53.726  42.206  15.5080  0.00  0.00     0.000 O
ATOM     44  HD  BGC B   3      53.009  42.090  15.9790  0.00  0.00     0.000 HD
BRANCH 31 44
ATOM     44  O4  BGC B   4      54.657  38.035  13.0000  0.00  0.00     0.000 O
BRANCH 44 48
ATOM     45  C1  BGC B   4      58.214  36.336  11.8770  0.00  0.00     0.000 C
ATOM     46  C2  BGC B   4      58.347  37.635  12.6590  0.00  0.00     0.000 C
ATOM     47  C3  BGC B   4      57.038  37.947  13.3420  0.00  0.00     0.000 C
ATOM     48  C4  BGC B   4      55.894  37.952  12.3230  0.00  0.00     0.000 C
ATOM     49  C5  BGC B   4      55.892  36.653  11.5080  0.00  0.00     0.000 C
ATOM     50  O5  BGC B   4      57.178  36.460  10.9010  0.00  0.00     0.000 O
ATOM     51   O  BGC B   4      59.379  37.508  13.6550  0.00  0.00     0.000 O
ATOM     53  HD  BGC B   4      58.684  37.418  14.1650  0.00  0.00     0.000 HD
ATOM     53   O  BGC B   4      57.137  39.236  13.9650  0.00  0.00     0.000 O
ATOM     55  HD  BGC B   4      56.443  39.146  14.4740  0.00  0.00     0.000 HD
ATOM     55   C  BGC B   4      54.864  36.614  10.3920  0.00  0.00     0.000 C
ATOM     56   O  BGC B   4      55.079  37.757   9.5620  0.00  0.00     0.000 O
ATOM     58  HD  BGC B   4      54.384  37.667  10.0720  0.00  0.00     0.000 HD
BRANCH 45 58
ATOM     58  O4  BGC B   5      59.385  36.247  11.0650  0.00  0.00     0.000 O
BRANCH 58 62
ATOM     59  C1  BGC B   5      62.395  33.613   9.9920  0.00  0.00     0.000 C
ATOM     60  C2  BGC B   5      61.060  33.388   9.3100  0.00  0.00     0.000 C
ATOM     61  C3  BGC B   5      60.180  34.616   9.4430  0.00  0.00     0.000 C
ATOM     62  C4  BGC B   5      60.048  34.990  10.9110  0.00  0.00     0.000 C
ATOM     63  C5  BGC B   5      61.432  35.125  11.5620  0.00  0.00     0.000 C
ATOM     64  O5  BGC B   5      62.151  33.911  11.3710  0.00  0.00     0.000 O
ATOM     65   O  BGC B   5      60.625  34.313  13.6080  0.00  0.00     0.000 O
ATOM     67  HD  BGC B   5      59.889  34.213  14.0530  0.00  0.00     0.000 HD
ATOM     67   O  BGC B   5      60.625  34.313  13.6080  0.00  0.00     0.000 O
ATOM     69  HD  BGC B   5      59.889  34.213  14.0530  0.00  0.00     0.000 HD
ENDBRANCH 58 62
ENDBRANCH 45 58
ENDBRANCH 44 48
ENDBRANCH 31 44
ENDBRANCH 30 34
ENDBRANCH 17 30
ENDBRANCH 16 20
ENDBRANCH 1 16
TORSDOF 8
ENDMDL
MODEL 32
REMARK VINA RESULT:      -0.2     22.640     25.556
ROOT
ATOM      1  C1  BGC B   1      10.596  18.434  18.9440  0.00  0.00     0.000 C
ATOM      2  C2  BGC B   1      10.023  19.845  19.0630  0.00  0.00     0.000 C
ATOM      3  C3  BGC B   1       9.613  20.358  17.6960  0.00  0.00     0.000 C
ATOM      4  C4  BGC B   1      10.759  20.218  16.7020  0.00  0.00     0.000 C
ATOM      5  C5  BGC B   1      11.208  18.764  16.6840  0.00  0.00     0.000 C
ATOM      6  O5  BGC B   1      11.666  18.439  18.0100  0.00  0.00     0.000 O
ATOM      7   O  BGC B   1       8.872  19.818  19.9230  0.00  0.00     0.000 O
ATOM      9  HD  BGC B   1       8.261  20.418  19.7960  0.00  0.00     0.000 HD
ATOM      9   O  BGC B   1       9.206  21.724  17.8170  0.00  0.00     0.000 O
ATOM     11  HD  BGC B   1       8.595  22.324  17.6900  0.00  0.00     0.000 HD
ATOM     11   O  BGC B   1      10.321  20.602  15.4160  0.00  0.00     0.000 O
ATOM     13  HD  BGC B   1       9.710  21.202  15.2900  0.00  0.00     0.000 HD
ATOM     13   C  BGC B   1      12.323  18.451  15.6970  0.00  0.00     0.000 C
ATOM     14   O  BGC B   1      13.467  19.276  15.8930  0.00  0.00     0.000 O
ATOM     16  HD  BGC B   1      12.856  19.877  15.7660  0.00  0.00     0.000 HD
ENDROOT
BRANCH 1 16
ATOM     16  O4  BGC B   2      11.202  18.143  20.2020  0.00  0.00     0.000 O
BRANCH 16 20
ATOM     17  C1  BGC B   2      11.909  15.059  22.7560  0.00  0.00     0.000 C
ATOM     18  C2  BGC B   2      12.826  15.070  21.5420  0.00  0.00     0.000 C
ATOM     19  C3  BGC B   2      12.722  16.436  20.8680  0.00  0.00     0.000 C
ATOM     20  C4  BGC B   2      11.276  16.766  20.5600  0.00  0.00     0.000 C
ATOM     21  C5  BGC B   2      10.360  16.556  21.7670  0.00  0.00     0.000 C
ATOM     22  O5  BGC B   2      10.565  15.230  22.2690  0.00  0.00     0.000 O
ATOM     23   O  BGC B   2      14.187  14.849  21.9490  0.00  0.00     0.000 O
ATOM     25  HD  BGC B   2      13.741  15.553  21.7150  0.00  0.00     0.000 HD
ATOM     25   O  BGC B   2      13.495  16.447  19.6740  0.00  0.00     0.000 O
ATOM     27  HD  BGC B   2      13.050  17.152  19.4400  0.00  0.00     0.000 HD
ATOM     27   C  BGC B   2       8.883  16.700  21.4240  0.00  0.00     0.000 C
ATOM     28   O  BGC B   2       8.460  15.832  20.3850  0.00  0.00     0.000 O
ATOM     30  HD  BGC B   2       8.014  16.536  20.1500  0.00  0.00     0.000 HD
BRANCH 17 30
ATOM     30  O4  BGC B   3      11.946  13.747  23.2860  0.00  0.00     0.000 O
BRANCH 30 34
ATOM     31  C1  BGC B   3      11.628  11.798  26.8950  0.00  0.00     0.000 C
ATOM     32  C2  BGC B   3      10.316  12.378  26.3690  0.00  0.00     0.000 C
ATOM     33  C3  BGC B   3      10.477  12.702  24.8950  0.00  0.00     0.000 C
ATOM     34  C4  BGC B   3      11.671  13.633  24.6860  0.00  0.00     0.000 C
ATOM     35  C5  BGC B   3      12.909  13.063  25.3560  0.00  0.00     0.000 C
ATOM     36  O5  BGC B   3      12.624  12.796  26.7330  0.00  0.00     0.000 O
ATOM     37   O  BGC B   3       9.278  11.410  26.5080  0.00  0.00     0.000 O
ATOM     39  HD  BGC B   3       8.703  12.020  26.2910  0.00  0.00     0.000 HD
ATOM     39   O  BGC B   3       9.281  13.311  24.4340  0.00  0.00     0.000 O
ATOM     41  HD  BGC B   3       8.705  13.921  24.2170  0.00  0.00     0.000 HD
ATOM     41   C  BGC B   3      14.131  13.972  25.2770  0.00  0.00     0.000 C
ATOM     42   O  BGC B   3      13.843  15.223  25.8560  0.00  0.00     0.000 O
ATOM     44  HD  BGC B   3      13.268  15.833  25.6390  0.00  0.00     0.000 HD
BRANCH 31 44
ATOM     44  O4  BGC B   4      11.474  11.608  28.2780  0.00  0.00     0.000 O
BRANCH 44 48
ATOM     45  C1  BGC B   4      12.711   9.134  31.3030  0.00  0.00     0.000 C
ATOM     46  C2  BGC B   4      13.770  10.104  30.8000  0.00  0.00     0.000 C
ATOM     47  C3  BGC B   4      13.109  11.197  29.9960  0.00  0.00     0.000 C
ATOM     48  C4  BGC B   4      12.246  10.592  28.8840  0.00  0.00     0.000 C
ATOM     49  C5  BGC B   4      11.277   9.552  29.4600  0.00  0.00     0.000 C
ATOM     50  O5  BGC B   4      12.010   8.563  30.1970  0.00  0.00     0.000 O
ATOM     51   O  BGC B   4      14.466  10.695  31.9130  0.00  0.00     0.000 O
ATOM     53  HD  BGC B   4      13.944  11.356  31.7120  0.00  0.00     0.000 HD
ATOM     53   O  BGC B   4      14.128  12.028  29.4200  0.00  0.00     0.000 O
ATOM     55  HD  BGC B   4      13.606  12.688  29.2190  0.00  0.00     0.000 HD
ATOM     55   C  BGC B   4      10.459   8.812  28.4170  0.00  0.00     0.000 C
ATOM     56   O  BGC B   4      11.369   8.227  27.4840  0.00  0.00     0.000 O
ATOM     58  HD  BGC B   4      10.846   8.887  27.2830  0.00  0.00     0.000 HD
BRANCH 45 58
ATOM     58  O4  BGC B   5      13.424   8.011  31.8210  0.00  0.00     0.000 O
BRANCH 58 62
ATOM     59  C1  BGC B   5      13.622   5.554  35.1490  0.00  0.00     0.000 C
ATOM     60  C2  BGC B   5      12.491   5.255  34.1870  0.00  0.00     0.000 C
ATOM     61  C3  BGC B   5      12.749   5.907  32.8420  0.00  0.00     0.000 C
ATOM     62  C4  BGC B   5      12.992   7.395  33.0370  0.00  0.00     0.000 C
ATOM     63  C5  BGC B   5      14.093   7.631  34.0810  0.00  0.00     0.000 C
ATOM     64  O5  BGC B   5      13.728   6.975  35.2910  0.00  0.00     0.000 O
ATOM     65   O  BGC B   5      13.048   9.588  34.8410  0.00  0.00     0.000 O
ATOM     67  HD  BGC B   5      12.480  10.193  34.5910  0.00  0.00     0.000 HD
ATOM     67   O  BGC B   5      13.048   9.588  34.8410  0.00  0.00     0.000 O
ATOM     69  HD  BGC B   5      12.480  10.193  34.5910  0.00  0.00     0.000 HD
ENDBRANCH 58 62
ENDBRANCH 45 58
ENDBRANCH 44 48
ENDBRANCH 31 44
ENDBRANCH 30 34
ENDBRANCH 17 30
ENDBRANCH 16 20
ENDBRANCH 1 16
TORSDOF 8
ENDMDL
MODEL 33
REMARK VINA RESULT:      -0.2     75.395     77.880
ROOT
ATOM      1  C1  BGC B   1      56.710  41.797  55.7310  0.00  0.00     0.000 C
ATOM      2  C2  BGC B   1      55.639  42.123  56.7710  0.00  0.00     0.000 C
ATOM      3  C3  BGC B   1      55.801  41.226  57.9840  0.00  0.00     0.000 C
ATOM      4  C4  BGC B   1      55.858  39.762  57.5680  0.00  0.00     0.000 C
ATOM      5  C5  BGC B   1      56.974  39.594  56.5470  0.00  0.00     0.000 C
ATOM      6  O5  BGC B   1      56.646  40.414  55.4110  0.00  0.00     0.000 O
ATOM      7   O  BGC B   1      55.775  43.495  57.1760  0.00  0.00     0.000 O
ATOM      9  HD  BGC B   1      55.509  43.708  57.9720  0.00  0.00     0.000 HD
ATOM      9   O  BGC B   1      54.711  41.460  58.8800  0.00  0.00     0.000 O
ATOM     11  HD  BGC B   1      54.445  41.673  59.6760  0.00  0.00     0.000 HD
ATOM     11   O  BGC B   1      56.114  38.958  58.6980  0.00  0.00     0.000 O
ATOM     13  HD  BGC B   1      55.848  39.171  59.4940  0.00  0.00     0.000 HD
ATOM     13   C  BGC B   1      57.191  38.166  56.0670  0.00  0.00     0.000 C
ATOM     14   O  BGC B   1      56.003  37.586  55.5370  0.00  0.00     0.000 O
ATOM     16  HD  BGC B   1      55.737  37.799  56.3330  0.00  0.00     0.000 HD
ENDROOT
BRANCH 1 16
ATOM     16  O4  BGC B   2      56.322  42.473  54.5360  0.00  0.00     0.000 O
BRANCH 16 20
ATOM     17  C1  BGC B   2      57.894  44.348  51.2880  0.00  0.00     0.000 C
ATOM     18  C2  BGC B   2      57.990  42.831  51.2240  0.00  0.00     0.000 C
ATOM     19  C3  BGC B   2      57.065  42.241  52.2860  0.00  0.00     0.000 C
ATOM     20  C4  BGC B   2      57.378  42.829  53.6470  0.00  0.00     0.000 C
ATOM     21  C5  BGC B   2      57.457  44.356  53.6170  0.00  0.00     0.000 C
ATOM     22  O5  BGC B   2      58.372  44.746  52.5860  0.00  0.00     0.000 O
ATOM     23   O  BGC B   2      57.578  42.363  49.9290  0.00  0.00     0.000 O
ATOM     25  HD  BGC B   2      57.196  42.383  50.7060  0.00  0.00     0.000 HD
ATOM     25   O  BGC B   2      57.204  40.826  52.3170  0.00  0.00     0.000 O
ATOM     27  HD  BGC B   2      56.821  40.845  53.0940  0.00  0.00     0.000 HD
ATOM     27   C  BGC B   2      57.955  44.951  54.9290  0.00  0.00     0.000 C
ATOM     28   O  BGC B   2      59.217  44.444  55.3320  0.00  0.00     0.000 O
ATOM     30  HD  BGC B   2      58.834  44.464  56.1090  0.00  0.00     0.000 HD
BRANCH 17 30
ATOM     30  O4  BGC B   3      58.845  44.857  50.3720  0.00  0.00     0.000 O
BRANCH 30 34
ATOM     31  C1  BGC B   3      59.411  48.091  47.8920  0.00  0.00     0.000 C
ATOM     32  C2  BGC B   3      59.521  48.408  49.3830  0.00  0.00     0.000 C
ATOM     33  C3  BGC B   3      59.693  47.108  50.1500  0.00  0.00     0.000 C
ATOM     34  C4  BGC B   3      58.552  46.146  49.8230  0.00  0.00     0.000 C
ATOM     35  C5  BGC B   3      58.407  45.989  48.3200  0.00  0.00     0.000 C
ATOM     36  O5  BGC B   3      58.260  47.279  47.7180  0.00  0.00     0.000 O
ATOM     37   O  BGC B   3      60.668  49.223  49.6130  0.00  0.00     0.000 O
ATOM     39  HD  BGC B   3      60.399  49.342  50.4280  0.00  0.00     0.000 HD
ATOM     39   O  BGC B   3      59.716  47.405  51.5380  0.00  0.00     0.000 O
ATOM     41  HD  BGC B   3      59.448  47.524  52.3530  0.00  0.00     0.000 HD
ATOM     41   C  BGC B   3      57.231  45.116  47.8980  0.00  0.00     0.000 C
ATOM     42   O  BGC B   3      56.029  45.640  48.4110  0.00  0.00     0.000 O
ATOM     44  HD  BGC B   3      55.761  45.759  49.2250  0.00  0.00     0.000 HD
BRANCH 31 44
ATOM     44  O4  BGC B   4      59.151  49.301  47.2290  0.00  0.00     0.000 O
BRANCH 44 48
ATOM     45  C1  BGC B   4      59.844  51.172  43.6470  0.00  0.00     0.000 C
ATOM     46  C2  BGC B   4      58.788  50.077  43.6010  0.00  0.00     0.000 C
ATOM     47  C3  BGC B   4      58.344  49.746  45.0050  0.00  0.00     0.000 C
ATOM     48  C4  BGC B   4      59.554  49.401  45.8780  0.00  0.00     0.000 C
ATOM     49  C5  BGC B   4      60.615  50.506  45.7900  0.00  0.00     0.000 C
ATOM     50  O5  BGC B   4      60.965  50.733  44.4170  0.00  0.00     0.000 O
ATOM     51   O  BGC B   4      57.649  50.522  42.8400  0.00  0.00     0.000 O
ATOM     53  HD  BGC B   4      57.329  50.624  43.6380  0.00  0.00     0.000 HD
ATOM     53   O  BGC B   4      57.448  48.626  44.9540  0.00  0.00     0.000 O
ATOM     55  HD  BGC B   4      57.128  48.728  45.7530  0.00  0.00     0.000 HD
ATOM     55   C  BGC B   4      61.903  50.199  46.5320  0.00  0.00     0.000 C
ATOM     56   O  BGC B   4      62.399  48.951  46.0460  0.00  0.00     0.000 O
ATOM     58  HD  BGC B   4      62.079  49.053  46.8440  0.00  0.00     0.000 HD
BRANCH 45 58
ATOM     58  O4  BGC B   5      60.392  51.243  42.3310  0.00  0.00     0.000 O
BRANCH 58 62
ATOM     59  C1  BGC B   5      61.381  53.965  39.3710  0.00  0.00     0.000 C
ATOM     60  C2  BGC B   5      62.350  53.887  40.5330  0.00  0.00     0.000 C
ATOM     61  C3  BGC B   5      62.134  52.610  41.3230  0.00  0.00     0.000 C
ATOM     62  C4  BGC B   5      60.678  52.517  41.7500  0.00  0.00     0.000 C
ATOM     63  C5  BGC B   5      59.748  52.683  40.5390  0.00  0.00     0.000 C
ATOM     64  O5  BGC B   5      60.049  53.915  39.8920  0.00  0.00     0.000 O
ATOM     65   O  BGC B   5      58.133  53.774  41.8430  0.00  0.00     0.000 O
ATOM     67  HD  BGC B   5      57.879  53.868  42.6650  0.00  0.00     0.000 HD
ATOM     67   O  BGC B   5      58.133  53.774  41.8430  0.00  0.00     0.000 O
ATOM     69  HD  BGC B   5      57.879  53.868  42.6650  0.00  0.00     0.000 HD
ENDBRANCH 58 62
ENDBRANCH 45 58
ENDBRANCH 44 48
ENDBRANCH 31 44
ENDBRANCH 30 34
ENDBRANCH 17 30
ENDBRANCH 16 20
ENDBRANCH 1 16
TORSDOF 8
ENDMDL
MODEL 34
REMARK VINA RESULT:      -0.2     73.782     76.309
ROOT
ATOM      1  C1  BGC B   1      55.467  40.172  55.7090  0.00  0.00     0.000 C
ATOM      2  C2  BGC B   1      54.373  40.370  56.7560  0.00  0.00     0.000 C
ATOM      3  C3  BGC B   1      54.613  39.454  57.9410  0.00  0.00     0.000 C
ATOM      4  C4  BGC B   1      54.798  38.013  57.4790  0.00  0.00     0.000 C
ATOM      5  C5  BGC B   1      55.924  37.975  56.4570  0.00  0.00     0.000 C
ATOM      6  O5  BGC B   1      55.525  38.799  55.3460  0.00  0.00     0.000 O
ATOM      7   O  BGC B   1      54.389  41.736  57.2040  0.00  0.00     0.000 O
ATOM      9  HD  BGC B   1      54.105  41.900  58.0060  0.00  0.00     0.000 HD
ATOM      9   O  BGC B   1      53.507  39.562  58.8410  0.00  0.00     0.000 O
ATOM     11  HD  BGC B   1      53.224  39.726  59.6430  0.00  0.00     0.000 HD
ATOM     11   O  BGC B   1      55.124  37.200  58.5850  0.00  0.00     0.000 O
ATOM     13  HD  BGC B   1      54.841  37.364  59.3870  0.00  0.00     0.000 HD
ATOM     13   C  BGC B   1      56.265  36.588  55.9330  0.00  0.00     0.000 C
ATOM     14   O  BGC B   1      55.132  35.923  55.3820  0.00  0.00     0.000 O
ATOM     16  HD  BGC B   1      54.848  36.087  56.1840  0.00  0.00     0.000 HD
ENDROOT
BRANCH 1 16
ATOM     16  O4  BGC B   2      55.022  40.848  54.5350  0.00  0.00     0.000 O
BRANCH 16 20
ATOM     17  C1  BGC B   2      56.422  42.954  51.3500  0.00  0.00     0.000 C
ATOM     18  C2  BGC B   2      56.651  41.453  51.2390  0.00  0.00     0.000 C
ATOM     19  C3  BGC B   2      55.781  40.752  52.2800  0.00  0.00     0.000 C
ATOM     20  C4  BGC B   2      56.042  41.323  53.6590  0.00  0.00     0.000 C
ATOM     21  C5  BGC B   2      55.987  42.851  53.6780  0.00  0.00     0.000 C
ATOM     22  O5  BGC B   2      56.864  43.351  52.6610  0.00  0.00     0.000 O
ATOM     23   O  BGC B   2      56.281  40.992  49.9290  0.00  0.00     0.000 O
ATOM     25  HD  BGC B   2      55.898  40.955  50.7060  0.00  0.00     0.000 HD
ATOM     25   O  BGC B   2      56.043  39.354  52.2680  0.00  0.00     0.000 O
ATOM     27  HD  BGC B   2      55.661  39.316  53.0440  0.00  0.00     0.000 HD
ATOM     27   C  BGC B   2      56.431  43.445  55.0080  0.00  0.00     0.000 C
ATOM     28   O  BGC B   2      57.733  43.039  55.3990  0.00  0.00     0.000 O
ATOM     30  HD  BGC B   2      57.351  43.001  56.1750  0.00  0.00     0.000 HD
BRANCH 17 30
ATOM     30  O4  BGC B   3      57.324  43.572  50.4520  0.00  0.00     0.000 O
BRANCH 30 34
ATOM     31  C1  BGC B   3      57.604  46.919  48.0760  0.00  0.00     0.000 C
ATOM     32  C2  BGC B   3      57.687  47.198  49.5770  0.00  0.00     0.000 C
ATOM     33  C3  BGC B   3      57.972  45.895  50.3030  0.00  0.00     0.000 C
ATOM     34  C4  BGC B   3      56.919  44.848  49.9440  0.00  0.00     0.000 C
ATOM     35  C5  BGC B   3      56.789  44.725  48.4360  0.00  0.00     0.000 C
ATOM     36  O5  BGC B   3      56.529  46.016  47.8740  0.00  0.00     0.000 O
ATOM     37   O  BGC B   3      58.758  48.103  49.8340  0.00  0.00     0.000 O
ATOM     39  HD  BGC B   3      58.481  48.172  50.6520  0.00  0.00     0.000 HD
ATOM     39   O  BGC B   3      57.970  46.149  51.7000  0.00  0.00     0.000 O
ATOM     41  HD  BGC B   3      57.693  46.219  52.5170  0.00  0.00     0.000 HD
ATOM     41   C  BGC B   3      55.693  43.766  47.9840  0.00  0.00     0.000 C
ATOM     42   O  BGC B   3      54.450  44.167  48.5100  0.00  0.00     0.000 O
ATOM     44  HD  BGC B   3      54.173  44.236  49.3280  0.00  0.00     0.000 HD
BRANCH 31 44
ATOM     44  O4  BGC B   4      57.239  48.122  47.4500  0.00  0.00     0.000 O
BRANCH 44 48
ATOM     45  C1  BGC B   4      57.765  50.157  43.9300  0.00  0.00     0.000 C
ATOM     46  C2  BGC B   4      56.808  48.976  43.8470  0.00  0.00     0.000 C
ATOM     47  C3  BGC B   4      56.395  48.564  45.2390  0.00  0.00     0.000 C
ATOM     48  C4  BGC B   4      57.632  48.299  46.1040  0.00  0.00     0.000 C
ATOM     49  C5  BGC B   4      58.591  49.495  46.0530  0.00  0.00     0.000 C
ATOM     50  O5  BGC B   4      58.920  49.794  44.6890  0.00  0.00     0.000 O
ATOM     51   O  BGC B   4      55.635  49.343  43.0980  0.00  0.00     0.000 O
ATOM     53  HD  BGC B   4      55.307  49.392  43.8980  0.00  0.00     0.000 HD
ATOM     53   O  BGC B   4      55.601  47.372  45.1520  0.00  0.00     0.000 O
ATOM     55  HD  BGC B   4      55.274  47.421  45.9520  0.00  0.00     0.000 HD
ATOM     55   C  BGC B   4      59.902  49.279  46.7880  0.00  0.00     0.000 C
ATOM     56   O  BGC B   4      60.505  48.095  46.2640  0.00  0.00     0.000 O
ATOM     58  HD  BGC B   4      60.178  48.143  47.0640  0.00  0.00     0.000 HD
BRANCH 45 58
ATOM     58  O4  BGC B   5      58.303  50.317  42.6180  0.00  0.00     0.000 O
BRANCH 58 62
ATOM     59  C1  BGC B   5      59.049  53.206  39.7470  0.00  0.00     0.000 C
ATOM     60  C2  BGC B   5      60.022  53.177  40.9080  0.00  0.00     0.000 C
ATOM     61  C3  BGC B   5      59.919  51.862  41.6570  0.00  0.00     0.000 C
ATOM     62  C4  BGC B   5      58.477  51.629  42.0770  0.00  0.00     0.000 C
ATOM     63  C5  BGC B   5      57.535  51.750  40.8710  0.00  0.00     0.000 C
ATOM     64  O5  BGC B   5      57.727  53.024  40.2630  0.00  0.00     0.000 O
ATOM     65   O  BGC B   5      55.832  52.655  42.2040  0.00  0.00     0.000 O
ATOM     67  HD  BGC B   5      55.570  52.701  43.0280  0.00  0.00     0.000 HD
ATOM     67   O  BGC B   5      55.832  52.655  42.2040  0.00  0.00     0.000 O
ATOM     69  HD  BGC B   5      55.570  52.701  43.0280  0.00  0.00     0.000 HD
ENDBRANCH 58 62
ENDBRANCH 45 58
ENDBRANCH 44 48
ENDBRANCH 31 44
ENDBRANCH 30 34
ENDBRANCH 17 30
ENDBRANCH 16 20
ENDBRANCH 1 16
TORSDOF 8
ENDMDL
MODEL 35
REMARK VINA RESULT:      -0.2     46.630     48.836
ROOT
ATOM      1  C1  BGC B   1      40.634   9.674  42.8620  0.00  0.00     0.000 C
ATOM      2  C2  BGC B   1      39.484  10.385  43.5740  0.00  0.00     0.000 C
ATOM      3  C3  BGC B   1      39.006   9.554  44.7500  0.00  0.00     0.000 C
ATOM      4  C4  BGC B   1      38.698   8.128  44.3130  0.00  0.00     0.000 C
ATOM      5  C5  BGC B   1      39.936   7.552  43.6390  0.00  0.00     0.000 C
ATOM      6  O5  BGC B   1      40.217   8.368  42.4870  0.00  0.00     0.000 O
ATOM      7   O  BGC B   1      39.939  11.662  44.0500  0.00  0.00     0.000 O
ATOM      9  HD  BGC B   1      39.548  11.994  44.7480  0.00  0.00     0.000 HD
ATOM      9   O  BGC B   1      37.848  10.176  45.3140  0.00  0.00     0.000 O
ATOM     11  HD  BGC B   1      37.457  10.508  46.0120  0.00  0.00     0.000 HD
ATOM     11   O  BGC B   1      38.359   7.350  45.4400  0.00  0.00     0.000 O
ATOM     13  HD  BGC B   1      37.968   7.682  46.1370  0.00  0.00     0.000 HD
ATOM     13   C  BGC B   1      39.802   6.106  43.1860  0.00  0.00     0.000 C
ATOM     14   O  BGC B   1      38.685   5.908  42.3250  0.00  0.00     0.000 O
ATOM     16  HD  BGC B   1      38.293   6.240  43.0230  0.00  0.00     0.000 HD
ENDROOT
BRANCH 1 16
ATOM     16  O4  BGC B   2      40.831  10.369  41.6320  0.00  0.00     0.000 O
BRANCH 16 20
ATOM     17  C1  BGC B   2      43.752  11.471  39.0260  0.00  0.00     0.000 C
ATOM     18  C2  BGC B   2      43.403   9.991  38.9640  0.00  0.00     0.000 C
ATOM     19  C3  BGC B   2      42.081   9.773  39.6950  0.00  0.00     0.000 C
ATOM     20  C4  BGC B   2      42.152  10.338  41.0990  0.00  0.00     0.000 C
ATOM     21  C5  BGC B   2      42.690  11.769  41.1250  0.00  0.00     0.000 C
ATOM     22  O5  BGC B   2      43.935  11.802  40.4160  0.00  0.00     0.000 O
ATOM     23   O  BGC B   2      43.258   9.575  37.5960  0.00  0.00     0.000 O
ATOM     25  HD  BGC B   2      42.694   9.760  38.2260  0.00  0.00     0.000 HD
ATOM     25   O  BGC B   2      41.774   8.384  39.7380  0.00  0.00     0.000 O
ATOM     27  HD  BGC B   2      41.210   8.569  40.3680  0.00  0.00     0.000 HD
ATOM     27   C  BGC B   2      42.946  12.283  42.5360  0.00  0.00     0.000 C
ATOM     28   O  BGC B   2      43.828  11.460  43.2820  0.00  0.00     0.000 O
ATOM     30  HD  BGC B   2      43.264  11.645  43.9120  0.00  0.00     0.000 HD
BRANCH 17 30
ATOM     30  O4  BGC B   3      45.032  11.615  38.4400  0.00  0.00     0.000 O
BRANCH 30 34
ATOM     31  C1  BGC B   3      47.219  14.358  36.2910  0.00  0.00     0.000 C
ATOM     32  C2  BGC B   3      47.000  14.730  37.7570  0.00  0.00     0.000 C
ATOM     33  C3  BGC B   3      46.549  13.494  38.5160  0.00  0.00     0.000 C
ATOM     34  C4  BGC B   3      45.309  12.892  37.8560  0.00  0.00     0.000 C
ATOM     35  C5  BGC B   3      45.549  12.681  36.3720  0.00  0.00     0.000 C
ATOM     36  O5  BGC B   3      45.974  13.912  35.7780  0.00  0.00     0.000 O
ATOM     37   O  BGC B   3      48.228  15.183  38.3220  0.00  0.00     0.000 O
ATOM     39  HD  BGC B   3      47.792  15.432  39.0280  0.00  0.00     0.000 HD
ATOM     39   O  BGC B   3      46.273  13.865  39.8580  0.00  0.00     0.000 O
ATOM     41  HD  BGC B   3      45.837  14.114  40.5640  0.00  0.00     0.000 HD
ATOM     41   C  BGC B   3      44.330  12.168  35.6140  0.00  0.00     0.000 C
ATOM     42   O  BGC B   3      43.250  13.058  35.7700  0.00  0.00     0.000 O
ATOM     44  HD  BGC B   3      42.814  13.307  36.4760  0.00  0.00     0.000 HD
BRANCH 31 44
ATOM     44  O4  BGC B   4      47.534  15.542  35.6050  0.00  0.00     0.000 O
BRANCH 44 48
ATOM     45  C1  BGC B   4      49.735  16.872  32.4130  0.00  0.00     0.000 C
ATOM     46  C2  BGC B   4      48.454  16.138  32.0430  0.00  0.00     0.000 C
ATOM     47  C3  BGC B   4      47.557  16.051  33.2520  0.00  0.00     0.000 C
ATOM     48  C4  BGC B   4      48.310  15.425  34.4300  0.00  0.00     0.000 C
ATOM     49  C5  BGC B   4      49.635  16.157  34.6730  0.00  0.00     0.000 C
ATOM     50  O5  BGC B   4      50.408  16.176  33.4630  0.00  0.00     0.000 O
ATOM     51   O  BGC B   4      47.765  16.847  30.9950  0.00  0.00     0.000 O
ATOM     53  HD  BGC B   4      47.281  17.093  31.6700  0.00  0.00     0.000 HD
ATOM     53   O  BGC B   4      46.415  15.246  32.9240  0.00  0.00     0.000 O
ATOM     55  HD  BGC B   4      45.931  15.493  33.5990  0.00  0.00     0.000 HD
ATOM     55   C  BGC B   4      50.509  15.535  35.7480  0.00  0.00     0.000 C
ATOM     56   O  BGC B   4      50.719  14.166  35.3990  0.00  0.00     0.000 O
ATOM     58  HD  BGC B   4      50.234  14.412  36.0740  0.00  0.00     0.000 HD
BRANCH 45 58
ATOM     58  O4  BGC B   5      50.624  16.688  31.3110  0.00  0.00     0.000 O
BRANCH 58 62
ATOM     59  C1  BGC B   5      53.164  18.790  28.8060  0.00  0.00     0.000 C
ATOM     60  C2  BGC B   5      53.706  18.507  30.1920  0.00  0.00     0.000 C
ATOM     61  C3  BGC B   5      52.905  17.407  30.8630  0.00  0.00     0.000 C
ATOM     62  C4  BGC B   5      51.431  17.778  30.8600  0.00  0.00     0.000 C
ATOM     63  C5  BGC B   5      50.965  18.130  29.4400  0.00  0.00     0.000 C
ATOM     64  O5  BGC B   5      51.790  19.171  28.9290  0.00  0.00     0.000 O
ATOM     65   O  BGC B   5      49.463  19.735  30.2560  0.00  0.00     0.000 O
ATOM     67  HD  BGC B   5      49.033  19.955  30.9750  0.00  0.00     0.000 HD
ATOM     67   O  BGC B   5      49.463  19.735  30.2560  0.00  0.00     0.000 O
ATOM     69  HD  BGC B   5      49.033  19.955  30.9750  0.00  0.00     0.000 HD
ENDBRANCH 58 62
ENDBRANCH 45 58
ENDBRANCH 44 48
ENDBRANCH 31 44
ENDBRANCH 30 34
ENDBRANCH 17 30
ENDBRANCH 16 20
ENDBRANCH 1 16
TORSDOF 8
ENDMDL
MODEL 36
REMARK VINA RESULT:      -0.2     41.815     44.222
ROOT
ATOM      1  C1  BGC B   1      51.272   8.904  23.3600  0.00  0.00     0.000 C
ATOM      2  C2  BGC B   1      50.585   7.632  22.8670  0.00  0.00     0.000 C
ATOM      3  C3  BGC B   1      51.082   6.433  23.6510  0.00  0.00     0.000 C
ATOM      4  C4  BGC B   1      52.605   6.377  23.6440  0.00  0.00     0.000 C
ATOM      5  C5  BGC B   1      53.138   7.700  24.1730  0.00  0.00     0.000 C
ATOM      6  O5  BGC B   1      52.681   8.736  23.2830  0.00  0.00     0.000 O
ATOM      7   O  BGC B   1      49.165   7.760  23.0480  0.00  0.00     0.000 O
ATOM      9  HD  BGC B   1      48.707   7.034  23.1610  0.00  0.00     0.000 HD
ATOM      9   O  BGC B   1      50.526   5.244  23.0820  0.00  0.00     0.000 O
ATOM     11  HD  BGC B   1      50.067   4.519  23.1960  0.00  0.00     0.000 HD
ATOM     11   O  BGC B   1      53.044   5.318  24.4660  0.00  0.00     0.000 O
ATOM     13  HD  BGC B   1      52.586   4.592  24.5790  0.00  0.00     0.000 HD
ATOM     13   C  BGC B   1      54.655   7.784  24.2730  0.00  0.00     0.000 C
ATOM     14   O  BGC B   1      55.296   7.500  23.0330  0.00  0.00     0.000 O
ATOM     16  HD  BGC B   1      54.838   6.774  23.1460  0.00  0.00     0.000 HD
ENDROOT
BRANCH 1 16
ATOM     16  O4  BGC B   2      50.966   9.918  22.4050  0.00  0.00     0.000 O
BRANCH 16 20
ATOM     17  C1  BGC B   2      50.259  13.912  22.1160  0.00  0.00     0.000 C
ATOM     18  C2  BGC B   2      51.727  13.564  22.3190  0.00  0.00     0.000 C
ATOM     19  C3  BGC B   2      51.913  12.073  22.0480  0.00  0.00     0.000 C
ATOM     20  C4  BGC B   2      50.956  11.257  22.8930  0.00  0.00     0.000 C
ATOM     21  C5  BGC B   2      49.518  11.767  22.8010  0.00  0.00     0.000 C
ATOM     22  O5  BGC B   2      49.511  13.169  23.0970  0.00  0.00     0.000 O
ATOM     23   O  BGC B   2      52.543  14.314  21.4050  0.00  0.00     0.000 O
ATOM     25  HD  BGC B   2      52.267  13.494  21.4230  0.00  0.00     0.000 HD
ATOM     25   O  BGC B   2      53.257  11.696  22.3220  0.00  0.00     0.000 O
ATOM     27  HD  BGC B   2      52.981  10.875  22.3390  0.00  0.00     0.000 HD
ATOM     27   C  BGC B   2      48.580  11.081  23.7870  0.00  0.00     0.000 C
ATOM     28   O  BGC B   2      49.007  11.185  25.1350  0.00  0.00     0.000 O
ATOM     30  HD  BGC B   2      48.731  10.364  25.1530  0.00  0.00     0.000 HD
BRANCH 17 30
ATOM     30  O4  BGC B   3      50.106  15.270  22.4850  0.00  0.00     0.000 O
BRANCH 30 34
ATOM     31  C1  BGC B   3      47.820  18.554  21.5260  0.00  0.00     0.000 C
ATOM     32  C2  BGC B   3      47.072  17.460  22.2880  0.00  0.00     0.000 C
ATOM     33  C3  BGC B   3      48.084  16.520  22.9180  0.00  0.00     0.000 C
ATOM     34  C4  BGC B   3      49.030  15.969  21.8520  0.00  0.00     0.000 C
ATOM     35  C5  BGC B   3      49.628  17.103  21.0390  0.00  0.00     0.000 C
ATOM     36  O5  BGC B   3      48.576  17.916  20.5090  0.00  0.00     0.000 O
ATOM     37   O  BGC B   3      46.296  18.051  23.3280  0.00  0.00     0.000 O
ATOM     39  HD  BGC B   3      45.919  17.283  23.4610  0.00  0.00     0.000 HD
ATOM     39   O  BGC B   3      47.381  15.465  23.5580  0.00  0.00     0.000 O
ATOM     41  HD  BGC B   3      47.004  14.697  23.6910  0.00  0.00     0.000 HD
ATOM     41   C  BGC B   3      50.516  16.641  19.8890  0.00  0.00     0.000 C
ATOM     42   O  BGC B   3      49.789  15.803  19.0210  0.00  0.00     0.000 O
ATOM     44  HD  BGC B   3      49.412  15.035  19.1530  0.00  0.00     0.000 HD
BRANCH 31 44
ATOM     44  O4  BGC B   4      46.856  19.340  20.8750  0.00  0.00     0.000 O
BRANCH 44 48
ATOM     45  C1  BGC B   4      46.209  23.196  19.6430  0.00  0.00     0.000 C
ATOM     46  C2  BGC B   4      47.203  22.415  18.7960  0.00  0.00     0.000 C
ATOM     47  C3  BGC B   4      47.064  20.941  19.0890  0.00  0.00     0.000 C
ATOM     48  C4  BGC B   4      47.196  20.683  20.5930  0.00  0.00     0.000 C
ATOM     49  C5  BGC B   4      46.234  21.581  21.3810  0.00  0.00     0.000 C
ATOM     50  O5  BGC B   4      46.456  22.954  21.0300  0.00  0.00     0.000 O
ATOM     51   O  BGC B   4      46.946  22.642  17.3980  0.00  0.00     0.000 O
ATOM     53  HD  BGC B   4      46.587  21.858  17.4770  0.00  0.00     0.000 HD
ATOM     53   O  BGC B   4      48.092  20.231  18.3840  0.00  0.00     0.000 O
ATOM     55  HD  BGC B   4      47.734  19.446  18.4640  0.00  0.00     0.000 HD
ATOM     55   C  BGC B   4      46.374  21.480  22.8890  0.00  0.00     0.000 C
ATOM     56   O  BGC B   4      47.737  21.750  23.2190  0.00  0.00     0.000 O
ATOM     58  HD  BGC B   4      47.379  20.966  23.2980  0.00  0.00     0.000 HD
BRANCH 45 58
ATOM     58  O4  BGC B   5      46.573  24.569  19.5070  0.00  0.00     0.000 O
BRANCH 58 62
ATOM     59  C1  BGC B   5      44.951  28.308  18.7760  0.00  0.00     0.000 C
ATOM     60  C2  BGC B   5      44.694  27.748  20.1600  0.00  0.00     0.000 C
ATOM     61  C3  BGC B   5      45.651  26.610  20.4600  0.00  0.00     0.000 C
ATOM     62  C4  BGC B   5      45.556  25.563  19.3620  0.00  0.00     0.000 C
ATOM     63  C5  BGC B   5      45.746  26.208  17.9810  0.00  0.00     0.000 C
ATOM     64  O5  BGC B   5      44.789  27.251  17.8250  0.00  0.00     0.000 O
ATOM     65   O  BGC B   5      44.246  24.700  16.9950  0.00  0.00     0.000 O
ATOM     67  HD  BGC B   5      43.891  23.920  17.1190  0.00  0.00     0.000 HD
ATOM     67   O  BGC B   5      44.246  24.700  16.9950  0.00  0.00     0.000 O
ATOM     69  HD  BGC B   5      43.891  23.920  17.1190  0.00  0.00     0.000 HD
ENDBRANCH 58 62
ENDBRANCH 45 58
ENDBRANCH 44 48
ENDBRANCH 31 44
ENDBRANCH 30 34
ENDBRANCH 17 30
ENDBRANCH 16 20
ENDBRANCH 1 16
TORSDOF 8
ENDMDL
MODEL 37
REMARK VINA RESULT:      -0.2     29.133     31.999
ROOT
ATOM      1  C1  BGC B   1      15.457  10.697  31.5740  0.00  0.00     0.000 C
ATOM      2  C2  BGC B   1      16.063   9.301  31.4450  0.00  0.00     0.000 C
ATOM      3  C3  BGC B   1      14.972   8.282  31.1780  0.00  0.00     0.000 C
ATOM      4  C4  BGC B   1      13.860   8.399  32.2140  0.00  0.00     0.000 C
ATOM      5  C5  BGC B   1      13.351   9.833  32.2140  0.00  0.00     0.000 C
ATOM      6  O5  BGC B   1      14.455  10.682  32.5810  0.00  0.00     0.000 O
ATOM      7   O  BGC B   1      16.997   9.289  30.3520  0.00  0.00     0.000 O
ATOM      9  HD  BGC B   1      17.129   8.538  29.9430  0.00  0.00     0.000 HD
ATOM      9   O  BGC B   1      15.547   6.972  31.1950  0.00  0.00     0.000 O
ATOM     11  HD  BGC B   1      15.679   6.221  30.7850  0.00  0.00     0.000 HD
ATOM     11   O  BGC B   1      12.810   7.516  31.8850  0.00  0.00     0.000 O
ATOM     13  HD  BGC B   1      12.942   6.764  31.4750  0.00  0.00     0.000 HD
ATOM     13   C  BGC B   1      12.197  10.101  33.1690  0.00  0.00     0.000 C
ATOM     14   O  BGC B   1      12.505   9.730  34.5100  0.00  0.00     0.000 O
ATOM     16  HD  BGC B   1      12.637   8.978  34.1000  0.00  0.00     0.000 HD
ENDROOT
BRANCH 1 16
ATOM     16  O4  BGC B   2      16.491  11.533  32.0910  0.00  0.00     0.000 O
BRANCH 16 20
ATOM     17  C1  BGC B   2      17.886  15.349  31.9210  0.00  0.00     0.000 C
ATOM     18  C2  BGC B   2      16.619  15.198  32.7480  0.00  0.00     0.000 C
ATOM     19  C3  BGC B   2      16.404  13.715  33.0410  0.00  0.00     0.000 C
ATOM     20  C4  BGC B   2      16.407  12.916  31.7540  0.00  0.00     0.000 C
ATOM     21  C5  BGC B   2      17.608  13.244  30.8660  0.00  0.00     0.000 C
ATOM     22  O5  BGC B   2      17.659  14.663  30.6750  0.00  0.00     0.000 O
ATOM     23   O  BGC B   2      16.753  15.908  33.9910  0.00  0.00     0.000 O
ATOM     25  HD  BGC B   2      16.802  15.071  33.7730  0.00  0.00     0.000 HD
ATOM     25   O  BGC B   2      15.174  13.530  33.7320  0.00  0.00     0.000 O
ATOM     27  HD  BGC B   2      15.224  12.694  33.5150  0.00  0.00     0.000 HD
ATOM     27   C  BGC B   2      17.527  12.593  29.4910  0.00  0.00     0.000 C
ATOM     28   O  BGC B   2      16.343  12.922  28.7830  0.00  0.00     0.000 O
ATOM     30  HD  BGC B   2      16.393  12.085  28.5650  0.00  0.00     0.000 HD
BRANCH 17 30
ATOM     30  O4  BGC B   3      17.989  16.718  31.5760  0.00  0.00     0.000 O
BRANCH 30 34
ATOM     31  C1  BGC B   3      20.863  19.562  30.8160  0.00  0.00     0.000 C
ATOM     32  C2  BGC B   3      20.697  18.517  29.7130  0.00  0.00     0.000 C
ATOM     33  C3  BGC B   3      19.378  17.793  29.9170  0.00  0.00     0.000 C
ATOM     34  C4  BGC B   3      19.314  17.197  31.3230  0.00  0.00     0.000 C
ATOM     35  C5  BGC B   3      19.629  18.259  32.3610  0.00  0.00     0.000 C
ATOM     36  O5  BGC B   3      20.887  18.869  32.0530  0.00  0.00     0.000 O
ATOM     37   O  BGC B   3      20.664  19.166  28.4440  0.00  0.00     0.000 O
ATOM     39  HD  BGC B   3      20.711  18.389  28.0640  0.00  0.00     0.000 HD
ATOM     39   O  BGC B   3      19.269  16.773  28.9350  0.00  0.00     0.000 O
ATOM     41  HD  BGC B   3      19.315  15.996  28.5550  0.00  0.00     0.000 HD
ATOM     41   C  BGC B   3      19.677  17.733  33.7910  0.00  0.00     0.000 C
ATOM     42   O  BGC B   3      20.634  16.705  33.8980  0.00  0.00     0.000 O
ATOM     44  HD  BGC B   3      20.680  15.928  33.5180  0.00  0.00     0.000 HD
BRANCH 31 44
ATOM     44  O4  BGC B   4      22.134  20.138  30.6550  0.00  0.00     0.000 O
BRANCH 44 48
ATOM     45  C1  BGC B   4      24.111  23.683  31.2260  0.00  0.00     0.000 C
ATOM     46  C2  BGC B   4      23.806  22.911  32.5020  0.00  0.00     0.000 C
ATOM     47  C3  BGC B   4      23.449  21.486  32.1540  0.00  0.00     0.000 C
ATOM     48  C4  BGC B   4      22.313  21.458  31.1270  0.00  0.00     0.000 C
ATOM     49  C5  BGC B   4      22.656  22.340  29.9200  0.00  0.00     0.000 C
ATOM     50  O5  BGC B   4      22.972  23.667  30.3640  0.00  0.00     0.000 O
ATOM     51   O  BGC B   4      24.958  22.909  33.3660  0.00  0.00     0.000 O
ATOM     53  HD  BGC B   4      25.026  22.108  33.0450  0.00  0.00     0.000 HD
ATOM     53   O  BGC B   4      23.037  20.808  33.3500  0.00  0.00     0.000 O
ATOM     55  HD  BGC B   4      23.106  20.006  33.0290  0.00  0.00     0.000 HD
ATOM     55   C  BGC B   4      21.540  22.468  28.8990  0.00  0.00     0.000 C
ATOM     56   O  BGC B   4      20.376  22.937  29.5820  0.00  0.00     0.000 O
ATOM     58  HD  BGC B   4      20.444  22.136  29.2620  0.00  0.00     0.000 HD
BRANCH 45 58
ATOM     58  O4  BGC B   5      24.182  25.056  31.6080  0.00  0.00     0.000 O
BRANCH 58 62
ATOM     59  C1  BGC B   5      26.571  28.414  31.1980  0.00  0.00     0.000 C
ATOM     60  C2  BGC B   5      25.701  28.085  30.0020  0.00  0.00     0.000 C
ATOM     61  C3  BGC B   5      24.594  27.126  30.3960  0.00  0.00     0.000 C
ATOM     62  C4  BGC B   5      25.198  25.896  31.0540  0.00  0.00     0.000 C
ATOM     63  C5  BGC B   5      26.130  26.300  32.2050  0.00  0.00     0.000 C
ATOM     64  O5  BGC B   5      27.120  27.193  31.7030  0.00  0.00     0.000 O
ATOM     65   O  BGC B   5      27.558  24.491  31.7750  0.00  0.00     0.000 O
ATOM     67  HD  BGC B   5      27.569  23.713  31.3940  0.00  0.00     0.000 HD
ATOM     67   O  BGC B   5      27.558  24.491  31.7750  0.00  0.00     0.000 O
ATOM     69  HD  BGC B   5      27.569  23.713  31.3940  0.00  0.00     0.000 HD
ENDBRANCH 58 62
ENDBRANCH 45 58
ENDBRANCH 44 48
ENDBRANCH 31 44
ENDBRANCH 30 34
ENDBRANCH 17 30
ENDBRANCH 16 20
ENDBRANCH 1 16
TORSDOF 8
ENDMDL
MODEL 38
REMARK VINA RESULT:      -0.2     61.734     71.610
ROOT
ATOM      1  C1  BGC B   1      59.832  41.135  25.4080  0.00  0.00     0.000 C
ATOM      2  C2  BGC B   1      60.026  40.245  24.1820  0.00  0.00     0.000 C
ATOM      3  C3  BGC B   1      58.942  39.186  24.1310  0.00  0.00     0.000 C
ATOM      4  C4  BGC B   1      58.860  38.435  25.4540  0.00  0.00     0.000 C
ATOM      5  C5  BGC B   1      58.652  39.448  26.5710  0.00  0.00     0.000 C
ATOM      6  O5  BGC B   1      59.794  40.324  26.5740  0.00  0.00     0.000 O
ATOM      7   O  BGC B   1      59.953  41.053  22.9950  0.00  0.00     0.000 O
ATOM      9  HD  BGC B   1      59.685  40.673  22.2650  0.00  0.00     0.000 HD
ATOM      9   O  BGC B   1      59.223  38.288  23.0530  0.00  0.00     0.000 O
ATOM     11  HD  BGC B   1      58.954  37.908  22.3220  0.00  0.00     0.000 HD
ATOM     11   O  BGC B   1      57.778  37.530  25.4190  0.00  0.00     0.000 O
ATOM     13  HD  BGC B   1      57.510  37.149  24.6880  0.00  0.00     0.000 HD
ATOM     13   C  BGC B   1      58.501  38.845  27.9600  0.00  0.00     0.000 C
ATOM     14   O  BGC B   1      59.596  38.005  28.3090  0.00  0.00     0.000 O
ATOM     16  HD  BGC B   1      59.328  37.624  27.5790  0.00  0.00     0.000 HD
ENDROOT
BRANCH 1 16
ATOM     16  O4  BGC B   2      61.025  41.908  25.5320  0.00  0.00     0.000 O
BRANCH 16 20
ATOM     17  C1  BGC B   2      62.339  45.571  26.7100  0.00  0.00     0.000 C
ATOM     18  C2  BGC B   2      61.977  44.651  27.8660  0.00  0.00     0.000 C
ATOM     19  C3  BGC B   2      61.857  43.226  27.3320  0.00  0.00     0.000 C
ATOM     20  C4  BGC B   2      60.888  43.176  26.1680  0.00  0.00     0.000 C
ATOM     21  C5  BGC B   2      61.182  44.249  25.1190  0.00  0.00     0.000 C
ATOM     22  O5  BGC B   2      61.246  45.522  25.7740  0.00  0.00     0.000 O
ATOM     23   O  BGC B   2      63.004  44.692  28.8710  0.00  0.00     0.000 O
ATOM     25  HD  BGC B   2      62.797  44.122  28.2520  0.00  0.00     0.000 HD
ATOM     25   O  BGC B   2      61.425  42.354  28.3700  0.00  0.00     0.000 O
ATOM     27  HD  BGC B   2      61.218  41.785  27.7510  0.00  0.00     0.000 HD
ATOM     27   C  BGC B   2      60.109  44.336  24.0410  0.00  0.00     0.000 C
ATOM     28   O  BGC B   2      58.808  44.560  24.5600  0.00  0.00     0.000 O
ATOM     30  HD  BGC B   2      58.601  43.991  23.9410  0.00  0.00     0.000 HD
BRANCH 17 30
ATOM     30  O4  BGC B   3      62.330  46.891  27.2200  0.00  0.00     0.000 O
BRANCH 30 34
ATOM     31  C1  BGC B   3      64.206  50.505  26.6330  0.00  0.00     0.000 C
ATOM     32  C2  BGC B   3      63.238  50.105  25.5200  0.00  0.00     0.000 C
ATOM     33  C3  BGC B   3      62.337  48.994  26.0290  0.00  0.00     0.000 C
ATOM     34  C4  BGC B   3      63.178  47.826  26.5430  0.00  0.00     0.000 C
ATOM     35  C5  BGC B   3      64.214  48.317  27.5380  0.00  0.00     0.000 C
ATOM     36  O5  BGC B   3      64.988  49.363  26.9420  0.00  0.00     0.000 O
ATOM     37   O  BGC B   3      62.424  51.223  25.1730  0.00  0.00     0.000 O
ATOM     39  HD  BGC B   3      62.125  50.774  24.4950  0.00  0.00     0.000 HD
ATOM     39   O  BGC B   3      61.494  48.575  24.9660  0.00  0.00     0.000 O
ATOM     41  HD  BGC B   3      61.195  48.126  24.2890  0.00  0.00     0.000 HD
ATOM     41   C  BGC B   3      65.160  47.230  28.0360  0.00  0.00     0.000 C
ATOM     42   O  BGC B   3      65.830  46.635  26.9500  0.00  0.00     0.000 O
ATOM     44  HD  BGC B   3      65.531  46.186  26.2720  0.00  0.00     0.000 HD
BRANCH 31 44
ATOM     44  O4  BGC B   4      65.087  51.458  26.0940  0.00  0.00     0.000 O
BRANCH 44 48
ATOM     45  C1  BGC B   4      67.298  54.726  27.2080  0.00  0.00     0.000 C
ATOM     46  C2  BGC B   4      67.863  53.388  27.6630  0.00  0.00     0.000 C
ATOM     47  C3  BGC B   4      67.210  52.274  26.8830  0.00  0.00     0.000 C
ATOM     48  C4  BGC B   4      65.685  52.371  26.9930  0.00  0.00     0.000 C
ATOM     49  C5  BGC B   4      65.205  53.778  26.6150  0.00  0.00     0.000 C
ATOM     50  O5  BGC B   4      65.885  54.753  27.4190  0.00  0.00     0.000 O
ATOM     51   O  BGC B   4      69.285  53.350  27.4360  0.00  0.00     0.000 O
ATOM     53  HD  BGC B   4      69.026  52.870  26.7640  0.00  0.00     0.000 HD
ATOM     53   O  BGC B   4      67.655  51.016  27.4110  0.00  0.00     0.000 O
ATOM     55  HD  BGC B   4      67.396  50.536  26.7390  0.00  0.00     0.000 HD
ATOM     55   C  BGC B   4      63.717  54.005  26.8050  0.00  0.00     0.000 C
ATOM     56   O  BGC B   4      63.396  53.684  28.1600  0.00  0.00     0.000 O
ATOM     58  HD  BGC B   4      63.137  53.204  27.4870  0.00  0.00     0.000 HD
BRANCH 45 58
ATOM     58  O4  BGC B   5      67.762  55.689  28.1540  0.00  0.00     0.000 O
BRANCH 58 62
ATOM     59  C1  BGC B   5      69.586  59.400  28.3640  0.00  0.00     0.000 C
ATOM     60  C2  BGC B   5      68.102  59.422  28.0580  0.00  0.00     0.000 C
ATOM     61  C3  BGC B   5      67.466  58.090  28.4100  0.00  0.00     0.000 C
ATOM     62  C4  BGC B   5      68.209  56.969  27.7020  0.00  0.00     0.000 C
ATOM     63  C5  BGC B   5      69.715  57.052  27.9890  0.00  0.00     0.000 C
ATOM     64  O5  BGC B   5      70.186  58.341  27.6120  0.00  0.00     0.000 O
ATOM     65   O  BGC B   5      70.237  56.247  25.8490  0.00  0.00     0.000 O
ATOM     67  HD  BGC B   5      69.894  55.798  25.1930  0.00  0.00     0.000 HD
ATOM     67   O  BGC B   5      70.237  56.247  25.8490  0.00  0.00     0.000 O
ATOM     69  HD  BGC B   5      69.894  55.798  25.1930  0.00  0.00     0.000 HD
ENDBRANCH 58 62
ENDBRANCH 45 58
ENDBRANCH 44 48
ENDBRANCH 31 44
ENDBRANCH 30 34
ENDBRANCH 17 30
ENDBRANCH 16 20
ENDBRANCH 1 16
TORSDOF 8
ENDMDL
MODEL 39
REMARK VINA RESULT:      -0.2     51.339     55.158
ROOT
ATOM      1  C1  BGC B   1      37.794  37.525  36.5210  0.00  0.00     0.000 C
ATOM      2  C2  BGC B   1      38.481  38.742  35.9040  0.00  0.00     0.000 C
ATOM      3  C3  BGC B   1      39.501  38.296  34.8740  0.00  0.00     0.000 C
ATOM      4  C4  BGC B   1      40.451  37.263  35.4660  0.00  0.00     0.000 C
ATOM      5  C5  BGC B   1      39.624  36.113  36.0230  0.00  0.00     0.000 C
ATOM      6  O5  BGC B   1      38.779  36.652  37.0560  0.00  0.00     0.000 O
ATOM      7   O  BGC B   1      37.495  39.569  35.2660  0.00  0.00     0.000 O
ATOM      9  HD  BGC B   1      37.750  40.058  34.5980  0.00  0.00     0.000 HD
ATOM      9   O  BGC B   1      40.221  39.443  34.4100  0.00  0.00     0.000 O
ATOM     11  HD  BGC B   1      40.476  39.931  33.7420  0.00  0.00     0.000 HD
ATOM     11   O  BGC B   1      41.320  36.787  34.4620  0.00  0.00     0.000 O
ATOM     13  HD  BGC B   1      41.576  37.276  33.7940  0.00  0.00     0.000 HD
ATOM     13   C  BGC B   1      40.437  34.968  36.6110  0.00  0.00     0.000 C
ATOM     14   O  BGC B   1      41.340  35.407  37.6210  0.00  0.00     0.000 O
ATOM     16  HD  BGC B   1      41.595  35.896  36.9530  0.00  0.00     0.000 HD
ENDROOT
BRANCH 1 16
ATOM     16  O4  BGC B   2      37.071  38.007  37.6520  0.00  0.00     0.000 O
BRANCH 16 20
ATOM     17  C1  BGC B   2      33.671  37.338  39.7800  0.00  0.00     0.000 C
ATOM     18  C2  BGC B   2      34.766  36.315  40.0410  0.00  0.00     0.000 C
ATOM     19  C3  BGC B   2      36.081  36.862  39.4900  0.00  0.00     0.000 C
ATOM     20  C4  BGC B   2      35.925  37.251  38.0340  0.00  0.00     0.000 C
ATOM     21  C5  BGC B   2      34.696  38.128  37.7940  0.00  0.00     0.000 C
ATOM     22  O5  BGC B   2      33.551  37.470  38.3510  0.00  0.00     0.000 O
ATOM     23   O  BGC B   2      34.906  36.090  41.4530  0.00  0.00     0.000 O
ATOM     25  HD  BGC B   2      35.361  36.544  40.8740  0.00  0.00     0.000 HD
ATOM     25   O  BGC B   2      37.109  35.888  39.6330  0.00  0.00     0.000 O
ATOM     27  HD  BGC B   2      37.564  36.342  39.0530  0.00  0.00     0.000 HD
ATOM     27   C  BGC B   2      34.418  38.369  36.3150  0.00  0.00     0.000 C
ATOM     28   O  BGC B   2      34.268  37.173  35.5690  0.00  0.00     0.000 O
ATOM     30  HD  BGC B   2      34.724  37.627  34.9890  0.00  0.00     0.000 HD
BRANCH 17 30
ATOM     30  O4  BGC B   3      32.454  36.750  40.2000  0.00  0.00     0.000 O
BRANCH 30 34
ATOM     31  C1  BGC B   3      28.814  37.836  41.7810  0.00  0.00     0.000 C
ATOM     32  C2  BGC B   3      29.012  38.226  40.3170  0.00  0.00     0.000 C
ATOM     33  C3  BGC B   3      30.182  37.440  39.7520  0.00  0.00     0.000 C
ATOM     34  C4  BGC B   3      31.429  37.663  40.6060  0.00  0.00     0.000 C
ATOM     35  C5  BGC B   3      31.123  37.395  42.0690  0.00  0.00     0.000 C
ATOM     36  O5  BGC B   3      30.002  38.187  42.4740  0.00  0.00     0.000 O
ATOM     37   O  BGC B   3      27.842  37.890  39.5730  0.00  0.00     0.000 O
ATOM     39  HD  BGC B   3      28.168  38.321  38.8970  0.00  0.00     0.000 HD
ATOM     39   O  BGC B   3      30.407  37.864  38.4160  0.00  0.00     0.000 O
ATOM     41  HD  BGC B   3      30.733  38.296  37.7400  0.00  0.00     0.000 HD
ATOM     41   C  BGC B   3      32.289  37.682  43.0090  0.00  0.00     0.000 C
ATOM     42   O  BGC B   3      32.702  39.022  42.8760  0.00  0.00     0.000 O
ATOM     44  HD  BGC B   3      33.028  39.453  42.2000  0.00  0.00     0.000 HD
BRANCH 31 44
ATOM     44  O4  BGC B   4      27.795  38.654  42.2950  0.00  0.00     0.000 O
BRANCH 44 48
ATOM     45  C1  BGC B   4      24.767  38.595  45.0580  0.00  0.00     0.000 C
ATOM     46  C2  BGC B   4      26.165  38.726  45.6460  0.00  0.00     0.000 C
ATOM     47  C3  BGC B   4      27.132  39.128  44.5600  0.00  0.00     0.000 C
ATOM     48  C4  BGC B   4      27.045  38.152  43.3830  0.00  0.00     0.000 C
ATOM     49  C5  BGC B   4      25.593  37.999  42.9150  0.00  0.00     0.000 C
ATOM     50  O5  BGC B   4      24.766  37.611  44.0220  0.00  0.00     0.000 O
ATOM     51   O  BGC B   4      26.173  39.730  46.6790  0.00  0.00     0.000 O
ATOM     53  HD  BGC B   4      26.535  40.188  46.0390  0.00  0.00     0.000 HD
ATOM     53   O  BGC B   4      28.462  39.119  45.0990  0.00  0.00     0.000 O
ATOM     55  HD  BGC B   4      28.824  39.577  44.4600  0.00  0.00     0.000 HD
ATOM     55   C  BGC B   4      25.390  36.961  41.8250  0.00  0.00     0.000 C
ATOM     56   O  BGC B   4      25.926  35.724  42.2970  0.00  0.00     0.000 O
ATOM     58  HD  BGC B   4      26.288  36.182  41.6570  0.00  0.00     0.000 HD
BRANCH 45 58
ATOM     58  O4  BGC B   5      23.974  37.972  46.0670  0.00  0.00     0.000 O
BRANCH 58 62
ATOM     59  C1  BGC B   5      20.348  38.346  48.0330  0.00  0.00     0.000 C
ATOM     60  C2  BGC B   5      20.275  37.751  46.6410  0.00  0.00     0.000 C
ATOM     61  C3  BGC B   5      21.644  37.279  46.1900  0.00  0.00     0.000 C
ATOM     62  C4  BGC B   5      22.638  38.424  46.3020  0.00  0.00     0.000 C
ATOM     63  C5  BGC B   5      22.606  39.033  47.7110  0.00  0.00     0.000 C
ATOM     64  O5  BGC B   5      21.273  39.437  48.0070  0.00  0.00     0.000 O
ATOM     65   O  BGC B   5      23.057  41.175  46.8700  0.00  0.00     0.000 O
ATOM     67  HD  BGC B   5      23.393  41.573  46.1780  0.00  0.00     0.000 HD
ATOM     67   O  BGC B   5      23.057  41.175  46.8700  0.00  0.00     0.000 O
ATOM     69  HD  BGC B   5      23.393  41.573  46.1780  0.00  0.00     0.000 HD
ENDBRANCH 58 62
ENDBRANCH 45 58
ENDBRANCH 44 48
ENDBRANCH 31 44
ENDBRANCH 30 34
ENDBRANCH 17 30
ENDBRANCH 16 20
ENDBRANCH 1 16
TORSDOF 8
ENDMDL
MODEL 40
REMARK VINA RESULT:      -0.2     53.008     56.727
ROOT
ATOM      1  C1  BGC B   1      39.297  38.141  36.5510  0.00  0.00     0.000 C
ATOM      2  C2  BGC B   1      40.220  39.190  35.9320  0.00  0.00     0.000 C
ATOM      3  C3  BGC B   1      41.167  38.534  34.9460  0.00  0.00     0.000 C
ATOM      4  C4  BGC B   1      41.886  37.355  35.5910  0.00  0.00     0.000 C
ATOM      5  C5  BGC B   1      40.841  36.397  36.1430  0.00  0.00     0.000 C
ATOM      6  O5  BGC B   1      40.083  37.112  37.1360  0.00  0.00     0.000 O
ATOM      7   O  BGC B   1      39.428  40.172  35.2450  0.00  0.00     0.000 O
ATOM      9  HD  BGC B   1      39.790  40.586  34.5770  0.00  0.00     0.000 HD
ATOM      9   O  BGC B   1      42.104  39.511  34.4840  0.00  0.00     0.000 O
ATOM     11  HD  BGC B   1      42.467  39.925  33.8160  0.00  0.00     0.000 HD
ATOM     11   O  BGC B   1      42.679  36.699  34.6270  0.00  0.00     0.000 O
ATOM     13  HD  BGC B   1      43.042  37.113  33.9580  0.00  0.00     0.000 HD
ATOM     13   C  BGC B   1      41.405  35.135  36.7810  0.00  0.00     0.000 C
ATOM     14   O  BGC B   1      42.345  35.422  37.8120  0.00  0.00     0.000 O
ATOM     16  HD  BGC B   1      42.708  35.836  37.1430  0.00  0.00     0.000 HD
ENDROOT
BRANCH 1 16
ATOM     16  O4  BGC B   2      38.646  38.781  37.6460  0.00  0.00     0.000 O
BRANCH 16 20
ATOM     17  C1  BGC B   2      35.119  38.820  39.6710  0.00  0.00     0.000 C
ATOM     18  C2  BGC B   2      35.994  37.616  39.9890  0.00  0.00     0.000 C
ATOM     19  C3  BGC B   2      37.404  37.891  39.4730  0.00  0.00     0.000 C
ATOM     20  C4  BGC B   2      37.367  38.264  38.0050  0.00  0.00     0.000 C
ATOM     21  C5  BGC B   2      36.333  39.350  37.7050  0.00  0.00     0.000 C
ATOM     22  O5  BGC B   2      35.069  38.935  38.2370  0.00  0.00     0.000 O
ATOM     23   O  BGC B   2      36.046  37.405  41.4100  0.00  0.00     0.000 O
ATOM     25  HD  BGC B   2      36.597  37.750  40.8370  0.00  0.00     0.000 HD
ATOM     25   O  BGC B   2      38.224  36.744  39.6690  0.00  0.00     0.000 O
ATOM     27  HD  BGC B   2      38.774  37.089  39.0960  0.00  0.00     0.000 HD
ATOM     27   C  BGC B   2      36.150  39.601  36.2140  0.00  0.00     0.000 C
ATOM     28   O  BGC B   2      35.798  38.435  35.4870  0.00  0.00     0.000 O
ATOM     30  HD  BGC B   2      36.348  38.780  34.9140  0.00  0.00     0.000 HD
BRANCH 17 30
ATOM     30  O4  BGC B   3      33.801  38.483  40.0610  0.00  0.00     0.000 O
BRANCH 30 34
ATOM     31  C1  BGC B   3      30.389  40.276  41.4970  0.00  0.00     0.000 C
ATOM     32  C2  BGC B   3      30.699  40.584  40.0330  0.00  0.00     0.000 C
ATOM     33  C3  BGC B   3      31.715  39.577  39.5240  0.00  0.00     0.000 C
ATOM     34  C4  BGC B   3      32.957  39.583  40.4150  0.00  0.00     0.000 C
ATOM     35  C5  BGC B   3      32.563  39.416  41.8720  0.00  0.00     0.000 C
ATOM     36  O5  BGC B   3      31.600  40.415  42.2230  0.00  0.00     0.000 O
ATOM     37   O  BGC B   3      29.509  40.455  39.2570  0.00  0.00     0.000 O
ATOM     39  HD  BGC B   3      29.931  40.800  38.5840  0.00  0.00     0.000 HD
ATOM     39   O  BGC B   3      32.055  39.916  38.1880  0.00  0.00     0.000 O
ATOM     41  HD  BGC B   3      32.477  40.261  37.5150  0.00  0.00     0.000 HD
ATOM     41   C  BGC B   3      33.734  39.502  42.8440  0.00  0.00     0.000 C
ATOM     42   O  BGC B   3      34.396  40.736  42.6990  0.00  0.00     0.000 O
ATOM     44  HD  BGC B   3      34.818  41.081  42.0250  0.00  0.00     0.000 HD
BRANCH 31 44
ATOM     44  O4  BGC B   4      29.528  41.285  41.9600  0.00  0.00     0.000 O
BRANCH 44 48
ATOM     45  C1  BGC B   4      26.463  41.870  44.6200  0.00  0.00     0.000 C
ATOM     46  C2  BGC B   4      27.843  41.750  45.2520  0.00  0.00     0.000 C
ATOM     47  C3  BGC B   4      28.900  41.934  44.1910  0.00  0.00     0.000 C
ATOM     48  C4  BGC B   4      28.665  40.962  43.0320  0.00  0.00     0.000 C
ATOM     49  C5  BGC B   4      27.224  41.073  42.5180  0.00  0.00     0.000 C
ATOM     50  O5  BGC B   4      26.307  40.877  43.6050  0.00  0.00     0.000 O
ATOM     51   O  BGC B   4      28.011  42.761  46.2640  0.00  0.00     0.000 O
ATOM     53  HD  BGC B   4      28.472  43.126  45.6280  0.00  0.00     0.000 HD
ATOM     53   O  BGC B   4      30.188  41.689  44.7750  0.00  0.00     0.000 O
ATOM     55  HD  BGC B   4      30.649  42.054  44.1390  0.00  0.00     0.000 HD
ATOM     55   C  BGC B   4      26.861  40.064  41.4440  0.00  0.00     0.000 C
ATOM     56   O  BGC B   4      27.139  38.761  41.9580  0.00  0.00     0.000 O
ATOM     58  HD  BGC B   4      27.600  39.126  41.3220  0.00  0.00     0.000 HD
BRANCH 45 58
ATOM     58  O4  BGC B   5      25.538  41.434  45.6140  0.00  0.00     0.000 O
BRANCH 58 62
ATOM     59  C1  BGC B   5      21.992  42.536  47.4480  0.00  0.00     0.000 C
ATOM     60  C2  BGC B   5      21.849  41.930  46.0670  0.00  0.00     0.000 C
ATOM     61  C3  BGC B   5      23.116  41.197  45.6720  0.00  0.00     0.000 C
ATOM     62  C4  BGC B   5      24.306  42.136  45.7940  0.00  0.00     0.000 C
ATOM     63  C5  BGC B   5      24.348  42.777  47.1890  0.00  0.00     0.000 C
ATOM     64  O5  BGC B   5      23.108  43.432  47.4320  0.00  0.00     0.000 O
ATOM     65   O  BGC B   5      25.220  44.772  46.3210  0.00  0.00     0.000 O
ATOM     67  HD  BGC B   5      25.646  45.082  45.6330  0.00  0.00     0.000 HD
ATOM     67   O  BGC B   5      25.220  44.772  46.3210  0.00  0.00     0.000 O
ATOM     69  HD  BGC B   5      25.646  45.082  45.6330  0.00  0.00     0.000 HD
ENDBRANCH 58 62
ENDBRANCH 45 58
ENDBRANCH 44 48
ENDBRANCH 31 44
ENDBRANCH 30 34
ENDBRANCH 17 30
ENDBRANCH 16 20
ENDBRANCH 1 16
TORSDOF 8
ENDMDL
MODEL 41
REMARK VINA RESULT:      -0.2     50.801     52.940
ROOT
ATOM      1  C1  BGC B   1      43.744  43.206  25.3080  0.00  0.00     0.000 C
ATOM      2  C2  BGC B   1      43.966  44.711  25.4470  0.00  0.00     0.000 C
ATOM      3  C3  BGC B   1      43.189  45.245  26.6350  0.00  0.00     0.000 C
ATOM      4  C4  BGC B   1      41.727  44.823  26.5560  0.00  0.00     0.000 C
ATOM      5  C5  BGC B   1      41.669  43.307  26.4370  0.00  0.00     0.000 C
ATOM      6  O5  BGC B   1      42.351  42.944  25.2220  0.00  0.00     0.000 O
ATOM      7   O  BGC B   1      45.367  44.966  25.6450  0.00  0.00     0.000 O
ATOM      9  HD  BGC B   1      45.588  45.679  26.0850  0.00  0.00     0.000 HD
ATOM      9   O  BGC B   1      43.307  46.670  26.6610  0.00  0.00     0.000 O
ATOM     11  HD  BGC B   1      43.528  47.383  27.1010  0.00  0.00     0.000 HD
ATOM     11   O  BGC B   1      41.050  45.240  27.7210  0.00  0.00     0.000 O
ATOM     13  HD  BGC B   1      41.271  45.952  28.1610  0.00  0.00     0.000 HD
ATOM     13   C  BGC B   1      40.264  42.722  26.3970  0.00  0.00     0.000 C
ATOM     14   O  BGC B   1      39.471  43.288  25.3580  0.00  0.00     0.000 O
ATOM     16  HD  BGC B   1      39.692  44.001  25.7980  0.00  0.00     0.000 HD
ENDROOT
BRANCH 1 16
ATOM     16  O4  BGC B   2      44.270  42.841  24.0340  0.00  0.00     0.000 O
BRANCH 16 20
ATOM     17  C1  BGC B   2      46.156  39.791  22.1160  0.00  0.00     0.000 C
ATOM     18  C2  BGC B   2      44.682  39.527  22.3840  0.00  0.00     0.000 C
ATOM     19  C3  BGC B   2      44.013  40.847  22.7590  0.00  0.00     0.000 C
ATOM     20  C4  BGC B   2      44.747  41.504  23.9100  0.00  0.00     0.000 C
ATOM     21  C5  BGC B   2      46.256  41.575  23.6740  0.00  0.00     0.000 C
ATOM     22  O5  BGC B   2      46.730  40.262  23.3500  0.00  0.00     0.000 O
ATOM     23   O  BGC B   2      44.053  38.999  21.2040  0.00  0.00     0.000 O
ATOM     25  HD  BGC B   2      44.060  39.780  21.5780  0.00  0.00     0.000 HD
ATOM     25   O  BGC B   2      42.653  40.618  23.1090  0.00  0.00     0.000 O
ATOM     27  HD  BGC B   2      42.660  41.399  23.4830  0.00  0.00     0.000 HD
ATOM     27   C  BGC B   2      47.027  42.058  24.8960  0.00  0.00     0.000 C
ATOM     28   O  BGC B   2      46.791  41.275  26.0550  0.00  0.00     0.000 O
ATOM     30  HD  BGC B   2      46.798  42.056  26.4290  0.00  0.00     0.000 HD
BRANCH 17 30
ATOM     30  O4  BGC B   3      46.762  38.534  21.8830  0.00  0.00     0.000 O
BRANCH 30 34
ATOM     31  C1  BGC B   3      49.848  36.877  19.7260  0.00  0.00     0.000 C
ATOM     32  C2  BGC B   3      50.291  37.740  20.9060  0.00  0.00     0.000 C
ATOM     33  C3  BGC B   3      49.107  37.952  21.8320  0.00  0.00     0.000 C
ATOM     34  C4  BGC B   3      47.932  38.550  21.0590  0.00  0.00     0.000 C
ATOM     35  C5  BGC B   3      47.638  37.721  19.8210  0.00  0.00     0.000 C
ATOM     36  O5  BGC B   3      48.831  37.590  19.0410  0.00  0.00     0.000 O
ATOM     37   O  BGC B   3      51.316  37.064  21.6320  0.00  0.00     0.000 O
ATOM     39  HD  BGC B   3      51.446  37.787  22.0900  0.00  0.00     0.000 HD
ATOM     39   O  BGC B   3      49.507  38.818  22.8840  0.00  0.00     0.000 O
ATOM     41  HD  BGC B   3      49.636  39.541  23.3420  0.00  0.00     0.000 HD
ATOM     41   C  BGC B   3      46.536  38.296  18.9370  0.00  0.00     0.000 C
ATOM     42   O  BGC B   3      46.871  39.602  18.5320  0.00  0.00     0.000 O
ATOM     44  HD  BGC B   3      47.001  40.326  18.9910  0.00  0.00     0.000 HD
BRANCH 31 44
ATOM     44  O4  BGC B   4      50.937  36.789  18.8430  0.00  0.00     0.000 O
BRANCH 44 48
ATOM     45  C1  BGC B   4      52.636  34.224  16.1330  0.00  0.00     0.000 C
ATOM     46  C2  BGC B   4      51.336  34.869  15.6730  0.00  0.00     0.000 C
ATOM     47  C3  BGC B   4      51.025  36.056  16.5520  0.00  0.00     0.000 C
ATOM     48  C4  BGC B   4      51.020  35.639  18.0260  0.00  0.00     0.000 C
ATOM     49  C5  BGC B   4      52.320  34.907  18.3830  0.00  0.00     0.000 C
ATOM     50  O5  BGC B   4      52.513  33.799  17.4910  0.00  0.00     0.000 O
ATOM     51   O  BGC B   4      51.462  35.315  14.3090  0.00  0.00     0.000 O
ATOM     53  HD  BGC B   4      51.552  36.077  14.7110  0.00  0.00     0.000 HD
ATOM     53   O  BGC B   4      49.735  36.572  16.1910  0.00  0.00     0.000 O
ATOM     55  HD  BGC B   4      49.825  37.334  16.5930  0.00  0.00     0.000 HD
ATOM     55   C  BGC B   4      52.360  34.352  19.7960  0.00  0.00     0.000 C
ATOM     56   O  BGC B   4      51.217  33.512  19.9660  0.00  0.00     0.000 O
ATOM     58  HD  BGC B   4      51.307  34.273  20.3680  0.00  0.00     0.000 HD
BRANCH 45 58
ATOM     58  O4  BGC B   5      52.725  32.983  15.4350  0.00  0.00     0.000 O
BRANCH 58 62
ATOM     59  C1  BGC B   5      55.357  30.708  13.1880  0.00  0.00     0.000 C
ATOM     60  C2  BGC B   5      55.581  30.671  14.6870  0.00  0.00     0.000 C
ATOM     61  C3  BGC B   5      54.353  31.174  15.4220  0.00  0.00     0.000 C
ATOM     62  C4  BGC B   5      53.981  32.555  14.9050  0.00  0.00     0.000 C
ATOM     63  C5  BGC B   5      53.847  32.542  13.3750  0.00  0.00     0.000 C
ATOM     64  O5  BGC B   5      55.061  32.057  12.8110  0.00  0.00     0.000 O
ATOM     65   O  BGC B   5      54.662  34.734  13.2170  0.00  0.00     0.000 O
ATOM     67  HD  BGC B   5      54.763  35.454  13.6870  0.00  0.00     0.000 HD
ATOM     67   O  BGC B   5      54.662  34.734  13.2170  0.00  0.00     0.000 O
ATOM     69  HD  BGC B   5      54.763  35.454  13.6870  0.00  0.00     0.000 HD
ENDBRANCH 58 62
ENDBRANCH 45 58
ENDBRANCH 44 48
ENDBRANCH 31 44
ENDBRANCH 30 34
ENDBRANCH 17 30
ENDBRANCH 16 20
ENDBRANCH 1 16
TORSDOF 8
ENDMDL
MODEL 42
REMARK VINA RESULT:      -0.2     79.672     85.048
ROOT
ATOM      1  C1  BGC B   1      61.165  41.928  66.7920  0.00  0.00     0.000 C
ATOM      2  C2  BGC B   1      62.006  41.023  67.6910  0.00  0.00     0.000 C
ATOM      3  C3  BGC B   1      61.250  40.709  68.9670  0.00  0.00     0.000 C
ATOM      4  C4  BGC B   1      60.761  41.989  69.6330  0.00  0.00     0.000 C
ATOM      5  C5  BGC B   1      59.931  42.770  68.6240  0.00  0.00     0.000 C
ATOM      6  O5  BGC B   1      60.792  43.091  67.5160  0.00  0.00     0.000 O
ATOM      7   O  BGC B   1      62.291  39.798  66.9950  0.00  0.00     0.000 O
ATOM      9  HD  BGC B   1      62.423  39.086  67.4710  0.00  0.00     0.000 HD
ATOM      9   O  BGC B   1      62.108  39.974  69.8440  0.00  0.00     0.000 O
ATOM     11  HD  BGC B   1      62.240  39.262  70.3200  0.00  0.00     0.000 HD
ATOM     11   O  BGC B   1      59.972  41.666  70.7580  0.00  0.00     0.000 O
ATOM     13  HD  BGC B   1      60.104  40.955  71.2330  0.00  0.00     0.000 HD
ATOM     13   C  BGC B   1      59.327  44.061  69.1580  0.00  0.00     0.000 C
ATOM     14   O  BGC B   1      60.309  44.933  69.7080  0.00  0.00     0.000 O
ATOM     16  HD  BGC B   1      60.441  44.221  70.1840  0.00  0.00     0.000 HD
ENDROOT
BRANCH 1 16
ATOM     16  O4  BGC B   2      62.040  42.393  65.7660  0.00  0.00     0.000 O
BRANCH 16 20
ATOM     17  C1  BGC B   2      62.074  43.398  61.8250  0.00  0.00     0.000 C
ATOM     18  C2  BGC B   2      61.435  44.451  62.7190  0.00  0.00     0.000 C
ATOM     19  C3  BGC B   2      61.802  44.144  64.1690  0.00  0.00     0.000 C
ATOM     20  C4  BGC B   2      61.429  42.718  64.5200  0.00  0.00     0.000 C
ATOM     21  C5  BGC B   2      61.936  41.712  63.4850  0.00  0.00     0.000 C
ATOM     22  O5  BGC B   2      61.495  42.131  62.1880  0.00  0.00     0.000 O
ATOM     23   O  BGC B   2      61.928  45.756  62.3760  0.00  0.00     0.000 O
ATOM     25  HD  BGC B   2      62.101  45.204  63.0200  0.00  0.00     0.000 HD
ATOM     25   O  BGC B   2      61.141  45.054  65.0400  0.00  0.00     0.000 O
ATOM     27  HD  BGC B   2      61.314  44.502  65.6840  0.00  0.00     0.000 HD
ATOM     27   C  BGC B   2      61.410  40.301  63.7210  0.00  0.00     0.000 C
ATOM     28   O  BGC B   2      59.994  40.229  63.7600  0.00  0.00     0.000 O
ATOM     30  HD  BGC B   2      60.167  39.676  64.4040  0.00  0.00     0.000 HD
BRANCH 17 30
ATOM     30  O4  BGC B   3      61.620  43.649  60.5090  0.00  0.00     0.000 O
BRANCH 30 34
ATOM     31  C1  BGC B   3      62.893  43.282  56.6140  0.00  0.00     0.000 C
ATOM     32  C2  BGC B   3      62.599  41.956  57.3130  0.00  0.00     0.000 C
ATOM     33  C3  BGC B   3      61.778  42.229  58.5600  0.00  0.00     0.000 C
ATOM     34  C4  BGC B   3      62.499  43.234  59.4580  0.00  0.00     0.000 C
ATOM     35  C5  BGC B   3      62.889  44.468  58.6640  0.00  0.00     0.000 C
ATOM     36  O5  BGC B   3      63.648  44.075  57.5160  0.00  0.00     0.000 O
ATOM     37   O  BGC B   3      61.836  41.120  56.4450  0.00  0.00     0.000 O
ATOM     39  HD  BGC B   3      61.949  40.466  57.0020  0.00  0.00     0.000 HD
ATOM     39   O  BGC B   3      61.575  41.001  59.2440  0.00  0.00     0.000 O
ATOM     41  HD  BGC B   3      61.688  40.348  59.8010  0.00  0.00     0.000 HD
ATOM     41   C  BGC B   3      63.696  45.487  59.4600  0.00  0.00     0.000 C
ATOM     42   O  BGC B   3      64.868  44.891  59.9640  0.00  0.00     0.000 O
ATOM     44  HD  BGC B   3      64.981  44.238  60.5210  0.00  0.00     0.000 HD
BRANCH 31 44
ATOM     44  O4  BGC B   4      63.736  43.001  55.5260  0.00  0.00     0.000 O
BRANCH 44 48
ATOM     45  C1  BGC B   4      64.596  44.335  51.7470  0.00  0.00     0.000 C
ATOM     46  C2  BGC B   4      65.132  45.212  52.8700  0.00  0.00     0.000 C
ATOM     47  C3  BGC B   4      65.105  44.440  54.1660  0.00  0.00     0.000 C
ATOM     48  C4  BGC B   4      63.700  43.890  54.4290  0.00  0.00     0.000 C
ATOM     49  C5  BGC B   4      63.192  43.107  53.2120  0.00  0.00     0.000 C
ATOM     50  O5  BGC B   4      63.257  43.934  52.0410  0.00  0.00     0.000 O
ATOM     51   O  BGC B   4      66.488  45.604  52.5840  0.00  0.00     0.000 O
ATOM     53  HD  BGC B   4      66.645  44.980  53.1650  0.00  0.00     0.000 HD
ATOM     53   O  BGC B   4      65.489  45.318  55.2350  0.00  0.00     0.000 O
ATOM     55  HD  BGC B   4      65.646  44.694  55.8150  0.00  0.00     0.000 HD
ATOM     55   C  BGC B   4      61.759  42.620  53.3330  0.00  0.00     0.000 C
ATOM     56   O  BGC B   4      60.936  43.754  53.6120  0.00  0.00     0.000 O
ATOM     58  HD  BGC B   4      61.093  43.131  54.1920  0.00  0.00     0.000 HD
BRANCH 45 58
ATOM     58  O4  BGC B   5      64.412  45.202  50.6280  0.00  0.00     0.000 O
BRANCH 58 62
ATOM     59  C1  BGC B   5      65.270  45.496  46.5880  0.00  0.00     0.000 C
ATOM     60  C2  BGC B   5      64.089  44.614  46.9390  0.00  0.00     0.000 C
ATOM     61  C3  BGC B   5      63.611  44.901  48.3500  0.00  0.00     0.000 C
ATOM     62  C4  BGC B   5      64.774  44.758  49.3190  0.00  0.00     0.000 C
ATOM     63  C5  BGC B   5      65.966  45.614  48.8630  0.00  0.00     0.000 C
ATOM     64  O5  BGC B   5      66.315  45.245  47.5330  0.00  0.00     0.000 O
ATOM     65   O  BGC B   5      67.497  44.043  49.6900  0.00  0.00     0.000 O
ATOM     67  HD  BGC B   5      67.559  43.391  50.2570  0.00  0.00     0.000 HD
ATOM     67   O  BGC B   5      67.497  44.043  49.6900  0.00  0.00     0.000 O
ATOM     69  HD  BGC B   5      67.559  43.391  50.2570  0.00  0.00     0.000 HD
ENDBRANCH 58 62
ENDBRANCH 45 58
ENDBRANCH 44 48
ENDBRANCH 31 44
ENDBRANCH 30 34
ENDBRANCH 17 30
ENDBRANCH 16 20
ENDBRANCH 1 16
TORSDOF 8
ENDMDL
MODEL 43
REMARK VINA RESULT:      -0.2     56.331     63.498
ROOT
ATOM      1  C1  BGC B   1      60.728  46.776  22.8350  0.00  0.00     0.000 C
ATOM      2  C2  BGC B   1      59.559  47.536  23.4610  0.00  0.00     0.000 C
ATOM      3  C3  BGC B   1      60.072  48.520  24.4950  0.00  0.00     0.000 C
ATOM      4  C4  BGC B   1      60.986  47.823  25.4960  0.00  0.00     0.000 C
ATOM      5  C5  BGC B   1      62.101  47.130  24.7270  0.00  0.00     0.000 C
ATOM      6  O5  BGC B   1      61.488  46.156  23.8630  0.00  0.00     0.000 O
ATOM      7   O  BGC B   1      58.857  48.253  22.4330  0.00  0.00     0.000 O
ATOM      9  HD  BGC B   1      58.436  48.975  22.6620  0.00  0.00     0.000 HD
ATOM      9   O  BGC B   1      58.954  49.119  25.1580  0.00  0.00     0.000 O
ATOM     11  HD  BGC B   1      58.534  49.841  25.3860  0.00  0.00     0.000 HD
ATOM     11   O  BGC B   1      61.532  48.776  26.3810  0.00  0.00     0.000 O
ATOM     13  HD  BGC B   1      61.112  49.498  26.6100  0.00  0.00     0.000 HD
ATOM     13   C  BGC B   1      63.132  46.424  25.5960  0.00  0.00     0.000 C
ATOM     14   O  BGC B   1      62.539  45.480  26.4830  0.00  0.00     0.000 O
ATOM     16  HD  BGC B   1      62.119  46.202  26.7120  0.00  0.00     0.000 HD
ENDROOT
BRANCH 1 16
ATOM     16  O4  BGC B   2      60.153  45.700  22.0960  0.00  0.00     0.000 O
BRANCH 16 20
ATOM     17  C1  BGC B   2      60.722  43.483  18.7350  0.00  0.00     0.000 C
ATOM     18  C2  BGC B   2      61.666  43.123  19.8720  0.00  0.00     0.000 C
ATOM     19  C3  BGC B   2      61.131  43.741  21.1620  0.00  0.00     0.000 C
ATOM     20  C4  BGC B   2      60.909  45.229  20.9840  0.00  0.00     0.000 C
ATOM     21  C5  BGC B   2      60.112  45.552  19.7190  0.00  0.00     0.000 C
ATOM     22  O5  BGC B   2      60.750  44.917  18.6040  0.00  0.00     0.000 O
ATOM     23   O  BGC B   2      61.732  41.695  20.0270  0.00  0.00     0.000 O
ATOM     25  HD  BGC B   2      61.325  42.324  20.4610  0.00  0.00     0.000 HD
ATOM     25   O  BGC B   2      62.042  43.503  22.2280  0.00  0.00     0.000 O
ATOM     27  HD  BGC B   2      61.636  44.132  22.6630  0.00  0.00     0.000 HD
ATOM     27   C  BGC B   2      60.043  47.045  19.4250  0.00  0.00     0.000 C
ATOM     28   O  BGC B   2      61.319  47.657  19.3200  0.00  0.00     0.000 O
ATOM     30  HD  BGC B   2      60.912  48.286  19.7550  0.00  0.00     0.000 HD
BRANCH 17 30
ATOM     30  O4  BGC B   3      61.309  42.992  17.5450  0.00  0.00     0.000 O
BRANCH 30 34
ATOM     31  C1  BGC B   3      60.207  41.494  13.8750  0.00  0.00     0.000 C
ATOM     32  C2  BGC B   3      59.931  42.985  14.0600  0.00  0.00     0.000 C
ATOM     33  C3  BGC B   3      60.725  43.487  15.2530  0.00  0.00     0.000 C
ATOM     34  C4  BGC B   3      60.396  42.657  16.4940  0.00  0.00     0.000 C
ATOM     35  C5  BGC B   3      60.554  41.177  16.1960  0.00  0.00     0.000 C
ATOM     36  O5  BGC B   3      59.766  40.835  15.0510  0.00  0.00     0.000 O
ATOM     37   O  BGC B   3      60.361  43.696  12.9010  0.00  0.00     0.000 O
ATOM     39  HD  BGC B   3      59.976  44.406  13.2140  0.00  0.00     0.000 HD
ATOM     39   O  BGC B   3      60.404  44.854  15.4650  0.00  0.00     0.000 O
ATOM     41  HD  BGC B   3      60.019  45.564  15.7780  0.00  0.00     0.000 HD
ATOM     41   C  BGC B   3      60.158  40.266  17.3530  0.00  0.00     0.000 C
ATOM     42   O  BGC B   3      58.821  40.508  17.7250  0.00  0.00     0.000 O
ATOM     44  HD  BGC B   3      58.436  41.218  18.0380  0.00  0.00     0.000 HD
BRANCH 31 44
ATOM     44  O4  BGC B   4      59.381  41.045  12.8320  0.00  0.00     0.000 O
BRANCH 44 48
ATOM     45  C1  BGC B   4      59.309  38.282   9.8040  0.00  0.00     0.000 C
ATOM     46  C2  BGC B   4      59.082  37.709  11.1960  0.00  0.00     0.000 C
ATOM     47  C3  BGC B   4      58.740  38.827  12.1500  0.00  0.00     0.000 C
ATOM     48  C4  BGC B   4      59.814  39.917  12.0980  0.00  0.00     0.000 C
ATOM     49  C5  BGC B   4      60.056  40.368  10.6520  0.00  0.00     0.000 C
ATOM     50  O5  BGC B   4      60.377  39.231   9.8380  0.00  0.00     0.000 O
ATOM     51   O  BGC B   4      57.994  36.765  11.1690  0.00  0.00     0.000 O
ATOM     53  HD  BGC B   4      57.580  37.442  11.5150  0.00  0.00     0.000 HD
ATOM     53   O  BGC B   4      58.657  38.291  13.4790  0.00  0.00     0.000 O
ATOM     55  HD  BGC B   4      58.243  38.968  13.8250  0.00  0.00     0.000 HD
ATOM     55   C  BGC B   4      61.188  41.366  10.4870  0.00  0.00     0.000 C
ATOM     56   O  BGC B   4      62.362  40.792  11.0650  0.00  0.00     0.000 O
ATOM     58  HD  BGC B   4      61.948  41.469  11.4120  0.00  0.00     0.000 HD
BRANCH 45 58
ATOM     58  O4  BGC B   5      59.872  37.222   9.0320  0.00  0.00     0.000 O
BRANCH 58 62
ATOM     59  C1  BGC B   5      59.410  35.262   5.4130  0.00  0.00     0.000 C
ATOM     60  C2  BGC B   5      60.158  36.578   5.3490  0.00  0.00     0.000 C
ATOM     61  C3  BGC B   5      60.629  36.992   6.7300  0.00  0.00     0.000 C
ATOM     62  C4  BGC B   5      59.444  37.021   7.6830  0.00  0.00     0.000 C
ATOM     63  C5  BGC B   5      58.683  35.688   7.6410  0.00  0.00     0.000 C
ATOM     64  O5  BGC B   5      58.296  35.421   6.2980  0.00  0.00     0.000 O
ATOM     65   O  BGC B   5      56.634  36.768   8.0050  0.00  0.00     0.000 O
ATOM     67  HD  BGC B   5      56.304  37.504   8.3200  0.00  0.00     0.000 HD
ATOM     67   O  BGC B   5      56.634  36.768   8.0050  0.00  0.00     0.000 O
ATOM     69  HD  BGC B   5      56.304  37.504   8.3200  0.00  0.00     0.000 HD
ENDBRANCH 58 62
ENDBRANCH 45 58
ENDBRANCH 44 48
ENDBRANCH 31 44
ENDBRANCH 30 34
ENDBRANCH 17 30
ENDBRANCH 16 20
ENDBRANCH 1 16
TORSDOF 8
ENDMDL
MODEL 44
REMARK VINA RESULT:      -0.2     55.818     63.301
ROOT
ATOM      1  C1  BGC B   1      58.625  48.670  24.0270  0.00  0.00     0.000 C
ATOM      2  C2  BGC B   1      57.457  49.429  24.6530  0.00  0.00     0.000 C
ATOM      3  C3  BGC B   1      57.969  50.413  25.6880  0.00  0.00     0.000 C
ATOM      4  C4  BGC B   1      58.883  49.717  26.6880  0.00  0.00     0.000 C
ATOM      5  C5  BGC B   1      59.998  49.023  25.9200  0.00  0.00     0.000 C
ATOM      6  O5  BGC B   1      59.385  48.049  25.0550  0.00  0.00     0.000 O
ATOM      7   O  BGC B   1      56.754  50.147  23.6250  0.00  0.00     0.000 O
ATOM      9  HD  BGC B   1      56.333  50.869  23.8540  0.00  0.00     0.000 HD
ATOM      9   O  BGC B   1      56.851  51.012  26.3500  0.00  0.00     0.000 O
ATOM     11  HD  BGC B   1      56.431  51.734  26.5780  0.00  0.00     0.000 HD
ATOM     11   O  BGC B   1      59.429  50.669  27.5740  0.00  0.00     0.000 O
ATOM     13  HD  BGC B   1      59.009  51.391  27.8020  0.00  0.00     0.000 HD
ATOM     13   C  BGC B   1      61.029  48.317  26.7890  0.00  0.00     0.000 C
ATOM     14   O  BGC B   1      60.436  47.374  27.6760  0.00  0.00     0.000 O
ATOM     16  HD  BGC B   1      60.016  48.096  27.9040  0.00  0.00     0.000 HD
ENDROOT
BRANCH 1 16
ATOM     16  O4  BGC B   2      58.050  47.594  23.2890  0.00  0.00     0.000 O
BRANCH 16 20
ATOM     17  C1  BGC B   2      58.619  45.376  19.9270  0.00  0.00     0.000 C
ATOM     18  C2  BGC B   2      59.564  45.016  21.0650  0.00  0.00     0.000 C
ATOM     19  C3  BGC B   2      59.028  45.634  22.3540  0.00  0.00     0.000 C
ATOM     20  C4  BGC B   2      58.806  47.122  22.1760  0.00  0.00     0.000 C
ATOM     21  C5  BGC B   2      58.009  47.445  20.9110  0.00  0.00     0.000 C
ATOM     22  O5  BGC B   2      58.647  46.810  19.7960  0.00  0.00     0.000 O
ATOM     23   O  BGC B   2      59.629  43.589  21.2190  0.00  0.00     0.000 O
ATOM     25  HD  BGC B   2      59.222  44.218  21.6540  0.00  0.00     0.000 HD
ATOM     25   O  BGC B   2      59.939  45.396  23.4200  0.00  0.00     0.000 O
ATOM     27  HD  BGC B   2      59.533  46.025  23.8550  0.00  0.00     0.000 HD
ATOM     27   C  BGC B   2      57.940  48.939  20.6180  0.00  0.00     0.000 C
ATOM     28   O  BGC B   2      59.216  49.550  20.5120  0.00  0.00     0.000 O
ATOM     30  HD  BGC B   2      58.809  50.179  20.9470  0.00  0.00     0.000 HD
BRANCH 17 30
ATOM     30  O4  BGC B   3      59.206  44.885  18.7370  0.00  0.00     0.000 O
BRANCH 30 34
ATOM     31  C1  BGC B   3      58.104  43.387  15.0670  0.00  0.00     0.000 C
ATOM     32  C2  BGC B   3      57.828  44.879  15.2520  0.00  0.00     0.000 C
ATOM     33  C3  BGC B   3      58.622  45.381  16.4460  0.00  0.00     0.000 C
ATOM     34  C4  BGC B   3      58.294  44.551  17.6860  0.00  0.00     0.000 C
ATOM     35  C5  BGC B   3      58.451  43.070  17.3880  0.00  0.00     0.000 C
ATOM     36  O5  BGC B   3      57.663  42.728  16.2440  0.00  0.00     0.000 O
ATOM     37   O  BGC B   3      58.258  45.589  14.0930  0.00  0.00     0.000 O
ATOM     39  HD  BGC B   3      57.873  46.299  14.4060  0.00  0.00     0.000 HD
ATOM     39   O  BGC B   3      58.301  46.747  16.6570  0.00  0.00     0.000 O
ATOM     41  HD  BGC B   3      57.916  47.457  16.9700  0.00  0.00     0.000 HD
ATOM     41   C  BGC B   3      58.055  42.160  18.5450  0.00  0.00     0.000 C
ATOM     42   O  BGC B   3      56.718  42.402  18.9170  0.00  0.00     0.000 O
ATOM     44  HD  BGC B   3      56.333  43.112  19.2300  0.00  0.00     0.000 HD
BRANCH 31 44
ATOM     44  O4  BGC B   4      57.278  42.938  14.0240  0.00  0.00     0.000 O
BRANCH 44 48
ATOM     45  C1  BGC B   4      57.207  40.175  10.9960  0.00  0.00     0.000 C
ATOM     46  C2  BGC B   4      56.979  39.603  12.3880  0.00  0.00     0.000 C
ATOM     47  C3  BGC B   4      56.637  40.720  13.3420  0.00  0.00     0.000 C
ATOM     48  C4  BGC B   4      57.712  41.811  13.2910  0.00  0.00     0.000 C
ATOM     49  C5  BGC B   4      57.953  42.261  11.8450  0.00  0.00     0.000 C
ATOM     50  O5  BGC B   4      58.274  41.124  11.0300  0.00  0.00     0.000 O
ATOM     51   O  BGC B   4      55.892  38.658  12.3610  0.00  0.00     0.000 O
ATOM     53  HD  BGC B   4      55.477  39.335  12.7080  0.00  0.00     0.000 HD
ATOM     53   O  BGC B   4      56.554  40.185  14.6710  0.00  0.00     0.000 O
ATOM     55  HD  BGC B   4      56.140  40.861  15.0180  0.00  0.00     0.000 HD
ATOM     55   C  BGC B   4      59.086  43.259  11.6790  0.00  0.00     0.000 C
ATOM     56   O  BGC B   4      60.260  42.686  12.2570  0.00  0.00     0.000 O
ATOM     58  HD  BGC B   4      59.845  43.362  12.6040  0.00  0.00     0.000 HD
BRANCH 45 58
ATOM     58  O4  BGC B   5      57.769  39.115  10.2240  0.00  0.00     0.000 O
BRANCH 58 62
ATOM     59  C1  BGC B   5      57.307  37.155   6.6060  0.00  0.00     0.000 C
ATOM     60  C2  BGC B   5      58.056  38.471   6.5410  0.00  0.00     0.000 C
ATOM     61  C3  BGC B   5      58.526  38.885   7.9230  0.00  0.00     0.000 C
ATOM     62  C4  BGC B   5      57.341  38.915   8.8750  0.00  0.00     0.000 C
ATOM     63  C5  BGC B   5      56.580  37.582   8.8340  0.00  0.00     0.000 C
ATOM     64  O5  BGC B   5      56.193  37.314   7.4900  0.00  0.00     0.000 O
ATOM     65   O  BGC B   5      54.531  38.662   9.1970  0.00  0.00     0.000 O
ATOM     67  HD  BGC B   5      54.201  39.398   9.5120  0.00  0.00     0.000 HD
ATOM     67   O  BGC B   5      54.531  38.662   9.1970  0.00  0.00     0.000 O
ATOM     69  HD  BGC B   5      54.201  39.398   9.5120  0.00  0.00     0.000 HD
ENDBRANCH 58 62
ENDBRANCH 45 58
ENDBRANCH 44 48
ENDBRANCH 31 44
ENDBRANCH 30 34
ENDBRANCH 17 30
ENDBRANCH 16 20
ENDBRANCH 1 16
TORSDOF 8
ENDMDL
MODEL 45
REMARK VINA RESULT:      -0.2     57.854     61.193
ROOT
ATOM      1  C1  BGC B   1      67.769   9.351  28.8230  0.00  0.00     0.000 C
ATOM      2  C2  BGC B   1      68.693   8.272  28.2610  0.00  0.00     0.000 C
ATOM      3  C3  BGC B   1      68.412   6.943  28.9350  0.00  0.00     0.000 C
ATOM      4  C4  BGC B   1      68.452   7.088  30.4510  0.00  0.00     0.000 C
ATOM      5  C5  BGC B   1      67.475   8.181  30.8570  0.00  0.00     0.000 C
ATOM      6  O5  BGC B   1      67.914   9.403  30.2350  0.00  0.00     0.000 O
ATOM      7   O  BGC B   1      68.466   8.143  26.8480  0.00  0.00     0.000 O
ATOM      9  HD  BGC B   1      68.626   7.374  26.4830  0.00  0.00     0.000 HD
ATOM      9   O  BGC B   1      69.377   5.985  28.4890  0.00  0.00     0.000 O
ATOM     11  HD  BGC B   1      69.537   5.216  28.1240  0.00  0.00     0.000 HD
ATOM     11   O  BGC B   1      68.085   5.867  31.0540  0.00  0.00     0.000 O
ATOM     13  HD  BGC B   1      68.245   5.098  30.6900  0.00  0.00     0.000 HD
ATOM     13   C  BGC B   1      67.363   8.415  32.3570  0.00  0.00     0.000 C
ATOM     14   O  BGC B   1      68.625   8.690  32.9580  0.00  0.00     0.000 O
ATOM     16  HD  BGC B   1      68.785   7.921  32.5930  0.00  0.00     0.000 HD
ENDROOT
BRANCH 1 16
ATOM     16  O4  BGC B   2      68.278  10.597  28.3500  0.00  0.00     0.000 O
BRANCH 16 20
ATOM     17  C1  BGC B   2      67.059  14.292  27.1680  0.00  0.00     0.000 C
ATOM     18  C2  BGC B   2      67.015  14.087  28.6760  0.00  0.00     0.000 C
ATOM     19  C3  BGC B   2      67.821  12.836  29.0180  0.00  0.00     0.000 C
ATOM     20  C4  BGC B   2      67.329  11.651  28.2130  0.00  0.00     0.000 C
ATOM     21  C5  BGC B   2      67.209  11.969  26.7220  0.00  0.00     0.000 C
ATOM     22  O5  BGC B   2      66.415  13.152  26.5700  0.00  0.00     0.000 O
ATOM     23   O  BGC B   2      67.595  15.218  29.3450  0.00  0.00     0.000 O
ATOM     25  HD  BGC B   2      67.879  14.420  29.1670  0.00  0.00     0.000 HD
ATOM     25   O  BGC B   2      67.721  12.561  30.4110  0.00  0.00     0.000 O
ATOM     27  HD  BGC B   2      68.006  11.763  30.2330  0.00  0.00     0.000 HD
ATOM     27   C  BGC B   2      66.538  10.854  25.9290  0.00  0.00     0.000 C
ATOM     28   O  BGC B   2      65.252  10.511  26.4180  0.00  0.00     0.000 O
ATOM     30  HD  BGC B   2      65.537   9.713  26.2400  0.00  0.00     0.000 HD
BRANCH 17 30
ATOM     30  O4  BGC B   3      66.212  15.388  26.8800  0.00  0.00     0.000 O
BRANCH 30 34
ATOM     31  C1  BGC B   3      65.862  18.469  24.1760  0.00  0.00     0.000 C
ATOM     32  C2  BGC B   3      65.542  17.086  23.6080  0.00  0.00     0.000 C
ATOM     33  C3  BGC B   3      65.317  16.122  24.7590  0.00  0.00     0.000 C
ATOM     34  C4  BGC B   3      66.527  16.123  25.6930  0.00  0.00     0.000 C
ATOM     35  C5  BGC B   3      66.877  17.542  26.1040  0.00  0.00     0.000 C
ATOM     36  O5  BGC B   3      67.055  18.347  24.9340  0.00  0.00     0.000 O
ATOM     37   O  BGC B   3      64.345  17.155  22.8360  0.00  0.00     0.000 O
ATOM     39  HD  BGC B   3      64.498  16.348  22.5580  0.00  0.00     0.000 HD
ATOM     39   O  BGC B   3      65.098  14.826  24.2240  0.00  0.00     0.000 O
ATOM     41  HD  BGC B   3      65.250  14.020  23.9470  0.00  0.00     0.000 HD
ATOM     41   C  BGC B   3      68.130  17.646  26.9650  0.00  0.00     0.000 C
ATOM     42   O  BGC B   3      69.233  17.093  26.2870  0.00  0.00     0.000 O
ATOM     44  HD  BGC B   3      69.385  16.287  26.0100  0.00  0.00     0.000 HD
BRANCH 31 44
ATOM     44  O4  BGC B   4      66.163  19.305  23.0880  0.00  0.00     0.000 O
BRANCH 44 48
ATOM     45  C1  BGC B   4      65.875  23.225  21.9240  0.00  0.00     0.000 C
ATOM     46  C2  BGC B   4      66.977  22.939  22.9350  0.00  0.00     0.000 C
ATOM     47  C3  BGC B   4      67.242  21.454  22.9830  0.00  0.00     0.000 C
ATOM     48  C4  BGC B   4      65.942  20.691  23.2540  0.00  0.00     0.000 C
ATOM     49  C5  BGC B   4      64.853  21.110  22.2580  0.00  0.00     0.000 C
ATOM     50  O5  BGC B   4      64.682  22.534  22.2990  0.00  0.00     0.000 O
ATOM     51   O  BGC B   4      68.187  23.620  22.5510  0.00  0.00     0.000 O
ATOM     53  HD  BGC B   4      68.391  22.820  22.2900  0.00  0.00     0.000 HD
ATOM     53   O  BGC B   4      68.187  21.187  24.0300  0.00  0.00     0.000 O
ATOM     55  HD  BGC B   4      68.391  20.388  23.7680  0.00  0.00     0.000 HD
ATOM     55   C  BGC B   4      63.492  20.492  22.5190  0.00  0.00     0.000 C
ATOM     56   O  BGC B   4      63.124  20.801  23.8640  0.00  0.00     0.000 O
ATOM     58  HD  BGC B   4      63.328  20.001  23.6030  0.00  0.00     0.000 HD
BRANCH 45 58
ATOM     58  O4  BGC B   5      65.508  24.590  22.1220  0.00  0.00     0.000 O
BRANCH 58 62
ATOM     59  C1  BGC B   5      64.844  28.102  20.0300  0.00  0.00     0.000 C
ATOM     60  C2  BGC B   5      63.714  27.093  19.9830  0.00  0.00     0.000 C
ATOM     61  C3  BGC B   5      63.872  26.064  21.0860  0.00  0.00     0.000 C
ATOM     62  C4  BGC B   5      65.249  25.426  20.9920  0.00  0.00     0.000 C
ATOM     63  C5  BGC B   5      66.343  26.504  20.9640  0.00  0.00     0.000 C
ATOM     64  O5  BGC B   5      66.082  27.398  19.8880  0.00  0.00     0.000 O
ATOM     65   O  BGC B   5      67.683  25.204  19.5450  0.00  0.00     0.000 O
ATOM     67  HD  BGC B   5      67.805  24.385  19.2930  0.00  0.00     0.000 HD
ATOM     67   O  BGC B   5      67.683  25.204  19.5450  0.00  0.00     0.000 O
ATOM     69  HD  BGC B   5      67.805  24.385  19.2930  0.00  0.00     0.000 HD
ENDBRANCH 58 62
ENDBRANCH 45 58
ENDBRANCH 44 48
ENDBRANCH 31 44
ENDBRANCH 30 34
ENDBRANCH 17 30
ENDBRANCH 16 20
ENDBRANCH 1 16
TORSDOF 8
ENDMDL
MODEL 46
REMARK VINA RESULT:      -0.2     46.633     52.720
ROOT
ATOM      1  C1  BGC B   1      45.342  31.459  24.3210  0.00  0.00     0.000 C
ATOM      2  C2  BGC B   1      46.180  30.198  24.1170  0.00  0.00     0.000 C
ATOM      3  C3  BGC B   1      45.384  28.973  24.5250  0.00  0.00     0.000 C
ATOM      4  C4  BGC B   1      44.819  29.141  25.9300  0.00  0.00     0.000 C
ATOM      5  C5  BGC B   1      44.002  30.424  25.9710  0.00  0.00     0.000 C
ATOM      6  O5  BGC B   1      44.895  31.512  25.6680  0.00  0.00     0.000 O
ATOM      7   O  BGC B   1      46.539  30.088  22.7300  0.00  0.00     0.000 O
ATOM      9  HD  BGC B   1      46.678  29.294  22.4120  0.00  0.00     0.000 HD
ATOM      9   O  BGC B   1      46.233  27.824  24.4510  0.00  0.00     0.000 O
ATOM     11  HD  BGC B   1      46.373  27.031  24.1330  0.00  0.00     0.000 HD
ATOM     11   O  BGC B   1      43.998  28.038  26.2450  0.00  0.00     0.000 O
ATOM     13  HD  BGC B   1      44.137  27.244  25.9270  0.00  0.00     0.000 HD
ATOM     13   C  BGC B   1      43.327  30.709  27.3050  0.00  0.00     0.000 C
ATOM     14   O  BGC B   1      44.252  30.726  28.3880  0.00  0.00     0.000 O
ATOM     16  HD  BGC B   1      44.392  29.933  28.0700  0.00  0.00     0.000 HD
ENDROOT
BRANCH 1 16
ATOM     16  O4  BGC B   2      46.240  32.559  24.1840  0.00  0.00     0.000 O
BRANCH 16 20
ATOM     17  C1  BGC B   2      46.395  36.405  22.8700  0.00  0.00     0.000 C
ATOM     18  C2  BGC B   2      45.653  36.238  24.1880  0.00  0.00     0.000 C
ATOM     19  C3  BGC B   2      45.971  34.856  24.7520  0.00  0.00     0.000 C
ATOM     20  C4  BGC B   2      45.669  33.782  23.7270  0.00  0.00     0.000 C
ATOM     21  C5  BGC B   2      46.282  34.092  22.3610  0.00  0.00     0.000 C
ATOM     22  O5  BGC B   2      45.877  35.409  21.9670  0.00  0.00     0.000 O
ATOM     23   O  BGC B   2      46.082  37.239  25.1250  0.00  0.00     0.000 O
ATOM     25  HD  BGC B   2      46.258  36.397  25.0300  0.00  0.00     0.000 HD
ATOM     25   O  BGC B   2      45.217  34.632  25.9380  0.00  0.00     0.000 O
ATOM     27  HD  BGC B   2      45.393  33.789  25.8420  0.00  0.00     0.000 HD
ATOM     27   C  BGC B   2      45.831  33.124  21.2740  0.00  0.00     0.000 C
ATOM     28   O  BGC B   2      44.422  33.059  21.1280  0.00  0.00     0.000 O
ATOM     30  HD  BGC B   2      44.598  32.217  21.0330  0.00  0.00     0.000 HD
BRANCH 17 30
ATOM     30  O4  BGC B   3      45.988  37.645  22.3240  0.00  0.00     0.000 O
BRANCH 30 34
ATOM     31  C1  BGC B   3      47.460  40.688  19.9790  0.00  0.00     0.000 C
ATOM     32  C2  BGC B   3      47.178  39.387  19.2280  0.00  0.00     0.000 C
ATOM     33  C3  BGC B   3      46.288  38.507  20.0870  0.00  0.00     0.000 C
ATOM     34  C4  BGC B   3      46.930  38.282  21.4560  0.00  0.00     0.000 C
ATOM     35  C5  BGC B   3      47.315  39.611  22.0830  0.00  0.00     0.000 C
ATOM     36  O5  BGC B   3      48.143  40.344  21.1740  0.00  0.00     0.000 O
ATOM     37   O  BGC B   3      46.488  39.679  18.0140  0.00  0.00     0.000 O
ATOM     39  HD  BGC B   3      46.596  38.854  17.7740  0.00  0.00     0.000 HD
ATOM     39   O  BGC B   3      46.095  37.271  19.4160  0.00  0.00     0.000 O
ATOM     41  HD  BGC B   3      46.203  36.446  19.1760  0.00  0.00     0.000 HD
ATOM     41   C  BGC B   3      48.047  39.479  23.4140  0.00  0.00     0.000 C
ATOM     42   O  BGC B   3      49.213  38.706  23.2520  0.00  0.00     0.000 O
ATOM     44  HD  BGC B   3      49.321  37.881  23.0110  0.00  0.00     0.000 HD
BRANCH 31 44
ATOM     44  O4  BGC B   4      48.364  41.429  19.2010  0.00  0.00     0.000 O
BRANCH 44 48
ATOM     45  C1  BGC B   4      49.358  45.307  18.3170  0.00  0.00     0.000 C
ATOM     46  C2  BGC B   4      49.799  44.834  19.6950  0.00  0.00     0.000 C
ATOM     47  C3  BGC B   4      49.738  43.327  19.7530  0.00  0.00     0.000 C
ATOM     48  C4  BGC B   4      48.346  42.835  19.3460  0.00  0.00     0.000 C
ATOM     49  C5  BGC B   4      47.934  43.436  17.9970  0.00  0.00     0.000 C
ATOM     50  O5  BGC B   4      48.023  44.868  18.0570  0.00  0.00     0.000 O
ATOM     51   O  BGC B   4      51.150  45.260  19.9540  0.00  0.00     0.000 O
ATOM     53  HD  BGC B   4      51.303  44.431  19.7580  0.00  0.00     0.000 HD
ATOM     53   O  BGC B   4      50.029  42.904  21.0920  0.00  0.00     0.000 O
ATOM     55  HD  BGC B   4      50.183  42.074  20.8960  0.00  0.00     0.000 HD
ATOM     55   C  BGC B   4      46.519  43.098  17.5640  0.00  0.00     0.000 C
ATOM     56   O  BGC B   4      45.635  43.499  18.6130  0.00  0.00     0.000 O
ATOM     58  HD  BGC B   4      45.789  42.670  18.4170  0.00  0.00     0.000 HD
BRANCH 45 58
ATOM     58  O4  BGC B   5      49.194  46.721  18.4230  0.00  0.00     0.000 O
BRANCH 58 62
ATOM     59  C1  BGC B   5      50.188  50.255  16.5080  0.00  0.00     0.000 C
ATOM     60  C2  BGC B   5      49.063  49.464  15.8700  0.00  0.00     0.000 C
ATOM     61  C3  BGC B   5      48.510  48.444  16.8470  0.00  0.00     0.000 C
ATOM     62  C4  BGC B   5      49.641  47.569  17.3630  0.00  0.00     0.000 C
ATOM     63  C5  BGC B   5      50.781  48.432  17.9210  0.00  0.00     0.000 C
ATOM     64  O5  BGC B   5      51.210  49.338  16.9110  0.00  0.00     0.000 O
ATOM     65   O  BGC B   5      52.393  46.887  17.2050  0.00  0.00     0.000 O
ATOM     67  HD  BGC B   5      52.481  46.055  16.9830  0.00  0.00     0.000 HD
ATOM     67   O  BGC B   5      52.393  46.887  17.2050  0.00  0.00     0.000 O
ATOM     69  HD  BGC B   5      52.481  46.055  16.9830  0.00  0.00     0.000 HD
ENDBRANCH 58 62
ENDBRANCH 45 58
ENDBRANCH 44 48
ENDBRANCH 31 44
ENDBRANCH 30 34
ENDBRANCH 17 30
ENDBRANCH 16 20
ENDBRANCH 1 16
TORSDOF 8
ENDMDL
MODEL 47
REMARK VINA RESULT:      -0.2     63.430     71.034
ROOT
ATOM      1  C1  BGC B   1      48.625  51.101  53.9370  0.00  0.00     0.000 C
ATOM      2  C2  BGC B   1      49.499  51.018  55.1870  0.00  0.00     0.000 C
ATOM      3  C3  BGC B   1      49.326  52.269  56.0270  0.00  0.00     0.000 C
ATOM      4  C4  BGC B   1      49.541  53.519  55.1840  0.00  0.00     0.000 C
ATOM      5  C5  BGC B   1      48.595  53.464  53.9920  0.00  0.00     0.000 C
ATOM      6  O5  BGC B   1      48.933  52.293  53.2280  0.00  0.00     0.000 O
ATOM      7   O  BGC B   1      49.111  49.871  55.9610  0.00  0.00     0.000 O
ATOM      9  HD  BGC B   1      49.242  49.899  56.8160  0.00  0.00     0.000 HD
ATOM      9   O  BGC B   1      50.251  52.225  57.1180  0.00  0.00     0.000 O
ATOM     11  HD  BGC B   1      50.383  52.253  57.9730  0.00  0.00     0.000 HD
ATOM     11   O  BGC B   1      49.271  54.666  55.9590  0.00  0.00     0.000 O
ATOM     13  HD  BGC B   1      49.403  54.694  56.8150  0.00  0.00     0.000 HD
ATOM     13   C  BGC B   1      48.655  54.676  53.0730  0.00  0.00     0.000 C
ATOM     14   O  BGC B   1      49.973  54.929  52.5940  0.00  0.00     0.000 O
ATOM     16  HD  BGC B   1      50.105  54.957  53.4500  0.00  0.00     0.000 HD
ENDROOT
BRANCH 1 16
ATOM     16  O4  BGC B   2      49.050  50.040  53.0830  0.00  0.00     0.000 O
BRANCH 16 20
ATOM     17  C1  BGC B   2      47.627  47.396  50.3410  0.00  0.00     0.000 C
ATOM     18  C2  BGC B   2      47.766  48.814  49.8080  0.00  0.00     0.000 C
ATOM     19  C3  BGC B   2      48.632  49.614  50.7780  0.00  0.00     0.000 C
ATOM     20  C4  BGC B   2      48.071  49.528  52.1830  0.00  0.00     0.000 C
ATOM     21  C5  BGC B   2      47.770  48.089  52.6030  0.00  0.00     0.000 C
ATOM     22  O5  BGC B   2      46.940  47.486  51.6020  0.00  0.00     0.000 O
ATOM     23   O  BGC B   2      48.399  48.797  48.5170  0.00  0.00     0.000 O
ATOM     25  HD  BGC B   2      48.676  48.988  49.3150  0.00  0.00     0.000 HD
ATOM     25   O  BGC B   2      48.702  50.972  50.3580  0.00  0.00     0.000 O
ATOM     27  HD  BGC B   2      48.980  51.162  51.1560  0.00  0.00     0.000 HD
ATOM     27   C  BGC B   2      47.032  48.001  53.9330  0.00  0.00     0.000 C
ATOM     28   O  BGC B   2      45.819  48.736  53.9540  0.00  0.00     0.000 O
ATOM     30  HD  BGC B   2      46.097  48.927  54.7520  0.00  0.00     0.000 HD
BRANCH 17 30
ATOM     30  O4  BGC B   3      46.731  46.721  49.4790  0.00  0.00     0.000 O
BRANCH 30 34
ATOM     31  C1  BGC B   3      46.006  42.942  48.0220  0.00  0.00     0.000 C
ATOM     32  C2  BGC B   3      45.672  43.127  49.5010  0.00  0.00     0.000 C
ATOM     33  C3  BGC B   3      45.598  44.612  49.8070  0.00  0.00     0.000 C
ATOM     34  C4  BGC B   3      46.898  45.302  49.3950  0.00  0.00     0.000 C
ATOM     35  C5  BGC B   3      47.244  44.960  47.9560  0.00  0.00     0.000 C
ATOM     36  O5  BGC B   3      47.275  43.537  47.7990  0.00  0.00     0.000 O
ATOM     37   O  BGC B   3      44.400  42.545  49.7780  0.00  0.00     0.000 O
ATOM     39  HD  BGC B   3      44.547  42.664  50.6230  0.00  0.00     0.000 HD
ATOM     39   O  BGC B   3      45.364  44.774  51.1980  0.00  0.00     0.000 O
ATOM     41  HD  BGC B   3      45.512  44.893  52.0430  0.00  0.00     0.000 HD
ATOM     41   C  BGC B   3      48.577  45.533  47.4870  0.00  0.00     0.000 C
ATOM     42   O  BGC B   3      49.620  45.080  48.3180  0.00  0.00     0.000 O
ATOM     44  HD  BGC B   3      49.767  45.199  49.1630  0.00  0.00     0.000 HD
BRANCH 31 44
ATOM     44  O4  BGC B   4      46.167  41.565  47.8000  0.00  0.00     0.000 O
BRANCH 44 48
ATOM     45  C1  BGC B   4      45.653  38.733  44.8810  0.00  0.00     0.000 C
ATOM     46  C2  BGC B   4      46.834  39.668  44.6620  0.00  0.00     0.000 C
ATOM     47  C3  BGC B   4      47.156  40.382  45.9510  0.00  0.00     0.000 C
ATOM     48  C4  BGC B   4      45.907  41.081  46.4980  0.00  0.00     0.000 C
ATOM     49  C5  BGC B   4      44.736  40.096  46.5930  0.00  0.00     0.000 C
ATOM     50  O5  BGC B   4      44.515  39.481  45.3150  0.00  0.00     0.000 O
ATOM     51   O  BGC B   4      47.987  38.915  44.2410  0.00  0.00     0.000 O
ATOM     53  HD  BGC B   4      48.201  39.041  45.0710  0.00  0.00     0.000 HD
ATOM     53   O  BGC B   4      48.182  41.353  45.6980  0.00  0.00     0.000 O
ATOM     55  HD  BGC B   4      48.396  41.479  46.5280  0.00  0.00     0.000 HD
ATOM     55   C  BGC B   4      43.420  40.724  47.0160  0.00  0.00     0.000 C
ATOM     56   O  BGC B   4      43.138  41.794  46.1120  0.00  0.00     0.000 O
ATOM     58  HD  BGC B   4      43.352  41.921  46.9420  0.00  0.00     0.000 HD
BRANCH 45 58
ATOM     58  O4  BGC B   5      45.251  38.299  43.5820  0.00  0.00     0.000 O
BRANCH 58 62
ATOM     59  C1  BGC B   5      44.277  34.878  41.4610  0.00  0.00     0.000 C
ATOM     60  C2  BGC B   5      43.198  35.397  42.3900  0.00  0.00     0.000 C
ATOM     61  C3  BGC B   5      43.479  36.834  42.7840  0.00  0.00     0.000 C
ATOM     62  C4  BGC B   5      44.877  36.935  43.3730  0.00  0.00     0.000 C
ATOM     63  C5  BGC B   5      45.912  36.322  42.4200  0.00  0.00     0.000 C
ATOM     64  O5  BGC B   5      45.536  34.978  42.1340  0.00  0.00     0.000 O
ATOM     65   O  BGC B   5      47.217  35.564  44.2140  0.00  0.00     0.000 O
ATOM     67  HD  BGC B   5      47.362  35.712  45.0550  0.00  0.00     0.000 HD
ATOM     67   O  BGC B   5      47.217  35.564  44.2140  0.00  0.00     0.000 O
ATOM     69  HD  BGC B   5      47.362  35.712  45.0550  0.00  0.00     0.000 HD
ENDBRANCH 58 62
ENDBRANCH 45 58
ENDBRANCH 44 48
ENDBRANCH 31 44
ENDBRANCH 30 34
ENDBRANCH 17 30
ENDBRANCH 16 20
ENDBRANCH 1 16
TORSDOF 8
ENDMDL
MODEL 48
REMARK VINA RESULT:      -0.2     65.275     68.202
ROOT
ATOM      1  C1  BGC B   1      56.541  52.330  26.8820  0.00  0.00     0.000 C
ATOM      2  C2  BGC B   1      55.567  51.451  27.6640  0.00  0.00     0.000 C
ATOM      3  C3  BGC B   1      55.498  51.907  29.1080  0.00  0.00     0.000 C
ATOM      4  C4  BGC B   1      56.894  52.001  29.7110  0.00  0.00     0.000 C
ATOM      5  C5  BGC B   1      57.736  52.917  28.8360  0.00  0.00     0.000 C
ATOM      6  O5  BGC B   1      57.806  52.318  27.5290  0.00  0.00     0.000 O
ATOM      7   O  BGC B   1      54.261  51.551  27.0730  0.00  0.00     0.000 O
ATOM      9  HD  BGC B   1      53.576  51.422  27.5870  0.00  0.00     0.000 HD
ATOM      9   O  BGC B   1      54.685  50.988  29.8450  0.00  0.00     0.000 O
ATOM     11  HD  BGC B   1      54.000  50.860  30.3590  0.00  0.00     0.000 HD
ATOM     11   O  BGC B   1      56.811  52.527  31.0180  0.00  0.00     0.000 O
ATOM     13  HD  BGC B   1      56.126  52.398  31.5320  0.00  0.00     0.000 HD
ATOM     13   C  BGC B   1      59.154  53.153  29.3360  0.00  0.00     0.000 C
ATOM     14   O  BGC B   1      59.868  51.936  29.5370  0.00  0.00     0.000 O
ATOM     16  HD  BGC B   1      59.183  51.808  30.0510  0.00  0.00     0.000 HD
ENDROOT
BRANCH 1 16
ATOM     16  O4  BGC B   2      56.756  51.674  25.6330  0.00  0.00     0.000 O
BRANCH 16 20
ATOM     17  C1  BGC B   2      57.483  52.454  21.7090  0.00  0.00     0.000 C
ATOM     18  C2  BGC B   2      58.692  52.662  22.6080  0.00  0.00     0.000 C
ATOM     19  C3  BGC B   2      58.414  52.002  23.9560  0.00  0.00     0.000 C
ATOM     20  C4  BGC B   2      57.111  52.513  24.5370  0.00  0.00     0.000 C
ATOM     21  C5  BGC B   2      55.963  52.459  23.5280  0.00  0.00     0.000 C
ATOM     22  O5  BGC B   2      56.375  53.131  22.3320  0.00  0.00     0.000 O
ATOM     23   O  BGC B   2      59.855  52.057  22.0190  0.00  0.00     0.000 O
ATOM     25  HD  BGC B   2      59.322  51.825  22.6610  0.00  0.00     0.000 HD
ATOM     25   O  BGC B   2      59.487  52.261  24.8530  0.00  0.00     0.000 O
ATOM     27  HD  BGC B   2      58.954  52.029  25.4950  0.00  0.00     0.000 HD
ATOM     27   C  BGC B   2      54.697  53.141  24.0320  0.00  0.00     0.000 C
ATOM     28   O  BGC B   2      54.899  54.493  24.4080  0.00  0.00     0.000 O
ATOM     30  HD  BGC B   2      54.365  54.261  25.0500  0.00  0.00     0.000 HD
BRANCH 17 30
ATOM     30  O4  BGC B   3      57.731  53.173  20.5160  0.00  0.00     0.000 O
BRANCH 30 34
ATOM     31  C1  BGC B   3      56.886  52.987  16.4930  0.00  0.00     0.000 C
ATOM     32  C2  BGC B   3      55.690  53.337  17.3770  0.00  0.00     0.000 C
ATOM     33  C3  BGC B   3      56.197  53.762  18.7440  0.00  0.00     0.000 C
ATOM     34  C4  BGC B   3      57.085  52.671  19.3410  0.00  0.00     0.000 C
ATOM     35  C5  BGC B   3      58.166  52.270  18.3530  0.00  0.00     0.000 C
ATOM     36  O5  BGC B   3      57.561  51.901  17.1090  0.00  0.00     0.000 O
ATOM     37   O  BGC B   3      54.977  54.429  16.8010  0.00  0.00     0.000 O
ATOM     39  HD  BGC B   3      54.348  54.304  17.3840  0.00  0.00     0.000 HD
ATOM     39   O  BGC B   3      55.078  54.011  19.5820  0.00  0.00     0.000 O
ATOM     41  HD  BGC B   3      54.449  53.886  20.1640  0.00  0.00     0.000 HD
ATOM     41   C  BGC B   3      59.046  51.120  18.8290  0.00  0.00     0.000 C
ATOM     42   O  BGC B   3      58.256  49.989  19.1110  0.00  0.00     0.000 O
ATOM     44  HD  BGC B   3      57.627  49.864  19.6930  0.00  0.00     0.000 HD
BRANCH 31 44
ATOM     44  O4  BGC B   4      56.377  52.503  15.2770  0.00  0.00     0.000 O
BRANCH 44 48
ATOM     45  C1  BGC B   4      57.287  52.369  11.2830  0.00  0.00     0.000 C
ATOM     46  C2  BGC B   4      58.099  51.421  12.1540  0.00  0.00     0.000 C
ATOM     47  C3  BGC B   4      57.426  51.270  13.4960  0.00  0.00     0.000 C
ATOM     48  C4  BGC B   4      57.190  52.644  14.1300  0.00  0.00     0.000 C
ATOM     49  C5  BGC B   4      56.456  53.570  13.1520  0.00  0.00     0.000 C
ATOM     50  O5  BGC B   4      57.184  53.645  11.9170  0.00  0.00     0.000 O
ATOM     51   O  BGC B   4      58.190  50.129  11.5250  0.00  0.00     0.000 O
ATOM     53  HD  BGC B   4      57.583  49.951  12.1160  0.00  0.00     0.000 HD
ATOM     53   O  BGC B   4      58.268  50.481  14.3490  0.00  0.00     0.000 O
ATOM     55  HD  BGC B   4      57.661  50.304  14.9400  0.00  0.00     0.000 HD
ATOM     55   C  BGC B   4      56.279  54.994  13.6490  0.00  0.00     0.000 C
ATOM     56   O  BGC B   4      57.571  55.501  13.9880  0.00  0.00     0.000 O
ATOM     58  HD  BGC B   4      56.964  55.323  14.5790  0.00  0.00     0.000 HD
BRANCH 45 58
ATOM     58  O4  BGC B   5      58.107  52.660  10.1510  0.00  0.00     0.000 O
BRANCH 58 62
ATOM     59  C1  BGC B   5      57.985  52.807   6.0150  0.00  0.00     0.000 C
ATOM     60  C2  BGC B   5      57.367  53.994   6.7260  0.00  0.00     0.000 C
ATOM     61  C3  BGC B   5      57.824  54.046   8.1710  0.00  0.00     0.000 C
ATOM     62  C4  BGC B   5      57.523  52.718   8.8480  0.00  0.00     0.000 C
ATOM     63  C5  BGC B   5      58.107  51.553   8.0360  0.00  0.00     0.000 C
ATOM     64  O5  BGC B   5      57.598  51.616   6.7080  0.00  0.00     0.000 O
ATOM     65   O  BGC B   5      56.328  50.151   8.6400  0.00  0.00     0.000 O
ATOM     67  HD  BGC B   5      55.712  50.060   9.2420  0.00  0.00     0.000 HD
ATOM     67   O  BGC B   5      56.328  50.151   8.6400  0.00  0.00     0.000 O
ATOM     69  HD  BGC B   5      55.712  50.060   9.2420  0.00  0.00     0.000 HD
ENDBRANCH 58 62
ENDBRANCH 45 58
ENDBRANCH 44 48
ENDBRANCH 31 44
ENDBRANCH 30 34
ENDBRANCH 17 30
ENDBRANCH 16 20
ENDBRANCH 1 16
TORSDOF 8
ENDMDL
MODEL 49
REMARK VINA RESULT:      -0.2     61.055     63.225
ROOT
ATOM      1  C1  BGC B   1      53.036  47.484  27.1340  0.00  0.00     0.000 C
ATOM      2  C2  BGC B   1      51.559  47.556  27.5190  0.00  0.00     0.000 C
ATOM      3  C3  BGC B   1      51.416  48.060  28.9420  0.00  0.00     0.000 C
ATOM      4  C4  BGC B   1      52.281  47.242  29.8930  0.00  0.00     0.000 C
ATOM      5  C5  BGC B   1      53.717  47.277  29.3890  0.00  0.00     0.000 C
ATOM      6  O5  BGC B   1      53.727  46.680  28.0790  0.00  0.00     0.000 O
ATOM      7   O  BGC B   1      50.881  48.457  26.6280  0.00  0.00     0.000 O
ATOM      9  HD  BGC B   1      50.178  48.866  26.9260  0.00  0.00     0.000 HD
ATOM      9   O  BGC B   1      50.038  47.991  29.3210  0.00  0.00     0.000 O
ATOM     11  HD  BGC B   1      49.335  48.400  29.6190  0.00  0.00     0.000 HD
ATOM     11   O  BGC B   1      52.213  47.795  31.1900  0.00  0.00     0.000 O
ATOM     13  HD  BGC B   1      51.510  48.204  31.4880  0.00  0.00     0.000 HD
ATOM     13   C  BGC B   1      54.720  46.541  30.2650  0.00  0.00     0.000 C
ATOM     14   O  BGC B   1      54.351  45.183  30.4880  0.00  0.00     0.000 O
ATOM     16  HD  BGC B   1      53.648  45.592  30.7860  0.00  0.00     0.000 HD
ENDROOT
BRANCH 1 16
ATOM     16  O4  BGC B   2      53.093  46.752  25.9110  0.00  0.00     0.000 O
BRANCH 16 20
ATOM     17  C1  BGC B   2      55.175  46.536  22.4250  0.00  0.00     0.000 C
ATOM     18  C2  BGC B   2      55.915  45.946  23.6160  0.00  0.00     0.000 C
ATOM     19  C3  BGC B   2      54.919  45.751  24.7570  0.00  0.00     0.000 C
ATOM     20  C4  BGC B   2      54.192  47.047  25.0540  0.00  0.00     0.000 C
ATOM     21  C5  BGC B   2      53.627  47.700  23.7920  0.00  0.00     0.000 C
ATOM     22  O5  BGC B   2      54.683  47.827  22.8320  0.00  0.00     0.000 O
ATOM     23   O  BGC B   2      56.483  44.674  23.2640  0.00  0.00     0.000 O
ATOM     25  HD  BGC B   2      55.784  44.911  23.7180  0.00  0.00     0.000 HD
ATOM     25   O  BGC B   2      55.598  45.290  25.9190  0.00  0.00     0.000 O
ATOM     27  HD  BGC B   2      54.900  45.526  26.3730  0.00  0.00     0.000 HD
ATOM     27   C  BGC B   2      53.061  49.091  24.0460  0.00  0.00     0.000 C
ATOM     28   O  BGC B   2      53.998  49.982  24.6300  0.00  0.00     0.000 O
ATOM     30  HD  BGC B   2      53.299  50.218  25.0830  0.00  0.00     0.000 HD
BRANCH 17 30
ATOM     30  O4  BGC B   3      56.147  46.807  21.4320  0.00  0.00     0.000 O
BRANCH 30 34
ATOM     31  C1  BGC B   3      56.516  46.934  17.3370  0.00  0.00     0.000 C
ATOM     32  C2  BGC B   3      55.676  48.062  17.9330  0.00  0.00     0.000 C
ATOM     33  C3  BGC B   3      55.944  48.138  19.4260  0.00  0.00     0.000 C
ATOM     34  C4  BGC B   3      55.679  46.782  20.0800  0.00  0.00     0.000 C
ATOM     35  C5  BGC B   3      56.434  45.686  19.3480  0.00  0.00     0.000 C
ATOM     36  O5  BGC B   3      56.101  45.727  17.9570  0.00  0.00     0.000 O
ATOM     37   O  BGC B   3      56.057  49.303  17.3430  0.00  0.00     0.000 O
ATOM     39  HD  BGC B   3      55.379  49.677  17.7290  0.00  0.00     0.000 HD
ATOM     39   O  BGC B   3      55.102  49.136  19.9840  0.00  0.00     0.000 O
ATOM     41  HD  BGC B   3      54.424  49.510  20.3710  0.00  0.00     0.000 HD
ATOM     41   C  BGC B   3      56.156  44.284  19.8770  0.00  0.00     0.000 C
ATOM     42   O  BGC B   3      54.778  44.002  19.8070  0.00  0.00     0.000 O
ATOM     44  HD  BGC B   3      54.099  44.376  20.1940  0.00  0.00     0.000 HD
BRANCH 31 44
ATOM     44  O4  BGC B   4      56.166  46.827  15.9810  0.00  0.00     0.000 O
BRANCH 44 48
ATOM     45  C1  BGC B   4      57.787  45.815  12.3540  0.00  0.00     0.000 C
ATOM     46  C2  BGC B   4      57.492  44.637  13.2720  0.00  0.00     0.000 C
ATOM     47  C3  BGC B   4      56.561  45.079  14.3740  0.00  0.00     0.000 C
ATOM     48  C4  BGC B   4      57.136  46.299  15.0990  0.00  0.00     0.000 C
ATOM     49  C5  BGC B   4      57.502  47.400  14.0960  0.00  0.00     0.000 C
ATOM     50  O5  BGC B   4      58.391  46.873  13.1010  0.00  0.00     0.000 O
ATOM     51   O  BGC B   4      56.868  43.575  12.5260  0.00  0.00     0.000 O
ATOM     53  HD  BGC B   4      56.167  43.897  12.9200  0.00  0.00     0.000 HD
ATOM     53   O  BGC B   4      56.396  43.997  15.3020  0.00  0.00     0.000 O
ATOM     55  HD  BGC B   4      55.695  44.319  15.6960  0.00  0.00     0.000 HD
ATOM     55   C  BGC B   4      58.189  48.606  14.7110  0.00  0.00     0.000 C
ATOM     56   O  BGC B   4      59.336  48.139  15.4220  0.00  0.00     0.000 O
ATOM     58  HD  BGC B   4      58.635  48.460  15.8160  0.00  0.00     0.000 HD
BRANCH 45 58
ATOM     58  O4  BGC B   5      58.857  45.394  11.5090  0.00  0.00     0.000 O
BRANCH 58 62
ATOM     59  C1  BGC B   5      59.994  45.284   7.5280  0.00  0.00     0.000 C
ATOM     60  C2  BGC B   5      60.141  46.629   8.2090  0.00  0.00     0.000 C
ATOM     61  C3  BGC B   5      60.104  46.470   9.7170  0.00  0.00     0.000 C
ATOM     62  C4  BGC B   5      58.839  45.729  10.1190  0.00  0.00     0.000 C
ATOM     63  C5  BGC B   5      58.709  44.415   9.3360  0.00  0.00     0.000 C
ATOM     64  O5  BGC B   5      58.754  44.703   7.9430  0.00  0.00     0.000 O
ATOM     65   O  BGC B   5      56.372  44.593   9.2880  0.00  0.00     0.000 O
ATOM     67  HD  BGC B   5      55.714  44.977   9.7000  0.00  0.00     0.000 HD
ATOM     67   O  BGC B   5      56.372  44.593   9.2880  0.00  0.00     0.000 O
ATOM     69  HD  BGC B   5      55.714  44.977   9.7000  0.00  0.00     0.000 HD
ENDBRANCH 58 62
ENDBRANCH 45 58
ENDBRANCH 44 48
ENDBRANCH 31 44
ENDBRANCH 30 34
ENDBRANCH 17 30
ENDBRANCH 16 20
ENDBRANCH 1 16
TORSDOF 8
ENDMDL
MODEL 50
REMARK VINA RESULT:      -0.2     54.525     56.962
ROOT
ATOM      1  C1  BGC B   1      45.814  41.452  33.7340  0.00  0.00     0.000 C
ATOM      2  C2  BGC B   1      45.258  42.779  34.2480  0.00  0.00     0.000 C
ATOM      3  C3  BGC B   1      45.019  42.700  35.7430  0.00  0.00     0.000 C
ATOM      4  C4  BGC B   1      44.175  41.480  36.0910  0.00  0.00     0.000 C
ATOM      5  C5  BGC B   1      44.862  40.243  35.5300  0.00  0.00     0.000 C
ATOM      6  O5  BGC B   1      44.931  40.401  34.1000  0.00  0.00     0.000 O
ATOM      7   O  BGC B   1      46.204  43.826  33.9740  0.00  0.00     0.000 O
ATOM      9  HD  BGC B   1      46.205  44.514  34.5000  0.00  0.00     0.000 HD
ATOM      9   O  BGC B   1      44.377  43.903  36.1730  0.00  0.00     0.000 O
ATOM     11  HD  BGC B   1      44.378  44.592  36.6990  0.00  0.00     0.000 HD
ATOM     11   O  BGC B   1      44.056  41.370  37.4920  0.00  0.00     0.000 O
ATOM     13  HD  BGC B   1      44.058  42.058  38.0180  0.00  0.00     0.000 HD
ATOM     13   C  BGC B   1      44.161  38.928  35.8380  0.00  0.00     0.000 C
ATOM     14   O  BGC B   1      42.802  38.925  35.4110  0.00  0.00     0.000 O
ATOM     16  HD  BGC B   1      42.804  39.613  35.9360  0.00  0.00     0.000 HD
ENDROOT
BRANCH 1 16
ATOM     16  O4  BGC B   2      45.746  41.516  32.3110  0.00  0.00     0.000 O
BRANCH 16 20
ATOM     17  C1  BGC B   2      47.705  40.278  28.9690  0.00  0.00     0.000 C
ATOM     18  C2  BGC B   2      46.919  39.174  29.6610  0.00  0.00     0.000 C
ATOM     19  C3  BGC B   2      45.955  39.816  30.6560  0.00  0.00     0.000 C
ATOM     20  C4  BGC B   2      46.703  40.734  31.6010  0.00  0.00     0.000 C
ATOM     21  C5  BGC B   2      47.628  41.703  30.8620  0.00  0.00     0.000 C
ATOM     22  O5  BGC B   2      48.474  40.947  29.9860  0.00  0.00     0.000 O
ATOM     23   O  BGC B   2      46.165  38.425  28.6930  0.00  0.00     0.000 O
ATOM     25  HD  BGC B   2      45.956  39.039  29.2670  0.00  0.00     0.000 HD
ATOM     25   O  BGC B   2      45.272  38.806  31.3890  0.00  0.00     0.000 O
ATOM     27  HD  BGC B   2      45.062  39.420  31.9620  0.00  0.00     0.000 HD
ATOM     27   C  BGC B   2      48.525  42.500  31.8000  0.00  0.00     0.000 C
ATOM     28   O  BGC B   2      49.317  41.685  32.6490  0.00  0.00     0.000 O
ATOM     30  HD  BGC B   2      49.107  42.299  33.2230  0.00  0.00     0.000 HD
BRANCH 17 30
ATOM     30  O4  BGC B   3      48.661  39.643  28.1420  0.00  0.00     0.000 O
BRANCH 30 34
ATOM     31  C1  BGC B   3      50.657  40.250  24.5960  0.00  0.00     0.000 C
ATOM     32  C2  BGC B   3      51.107  41.157  25.7410  0.00  0.00     0.000 C
ATOM     33  C3  BGC B   3      50.603  40.579  27.0520  0.00  0.00     0.000 C
ATOM     34  C4  BGC B   3      49.088  40.389  26.9970  0.00  0.00     0.000 C
ATOM     35  C5  BGC B   3      48.698  39.602  25.7590  0.00  0.00     0.000 C
ATOM     36  O5  BGC B   3      49.238  40.243  24.5980  0.00  0.00     0.000 O
ATOM     37   O  BGC B   3      52.532  41.197  25.7830  0.00  0.00     0.000 O
ATOM     39  HD  BGC B   3      52.480  41.834  26.3670  0.00  0.00     0.000 HD
ATOM     39   O  BGC B   3      50.960  41.467  28.1010  0.00  0.00     0.000 O
ATOM     41  HD  BGC B   3      50.908  42.104  28.6850  0.00  0.00     0.000 HD
ATOM     41   C  BGC B   3      47.193  39.442  25.5740  0.00  0.00     0.000 C
ATOM     42   O  BGC B   3      46.575  40.706  25.5150  0.00  0.00     0.000 O
ATOM     44  HD  BGC B   3      46.523  41.343  26.0990  0.00  0.00     0.000 HD
BRANCH 31 44
ATOM     44  O4  BGC B   4      51.051  40.868  23.3970  0.00  0.00     0.000 O
BRANCH 44 48
ATOM     45  C1  BGC B   4      52.254  39.933  19.5920  0.00  0.00     0.000 C
ATOM     46  C2  BGC B   4      50.765  39.757  19.8510  0.00  0.00     0.000 C
ATOM     47  C3  BGC B   4      50.385  40.487  21.1160  0.00  0.00     0.000 C
ATOM     48  C4  BGC B   4      51.272  40.033  22.2790  0.00  0.00     0.000 C
ATOM     49  C5  BGC B   4      52.755  40.145  21.9010  0.00  0.00     0.000 C
ATOM     50  O5  BGC B   4      53.003  39.413  20.6920  0.00  0.00     0.000 O
ATOM     51   O  BGC B   4      50.006  40.296  18.7510  0.00  0.00     0.000 O
ATOM     53  HD  BGC B   4      49.902  40.941  19.3190  0.00  0.00     0.000 HD
ATOM     53   O  BGC B   4      49.010  40.206  21.4170  0.00  0.00     0.000 O
ATOM     55  HD  BGC B   4      48.906  40.851  21.9850  0.00  0.00     0.000 HD
ATOM     55   C  BGC B   4      53.711  39.607  22.9500  0.00  0.00     0.000 C
ATOM     56   O  BGC B   4      53.338  38.257  23.2290  0.00  0.00     0.000 O
ATOM     58  HD  BGC B   4      53.234  38.902  23.7970  0.00  0.00     0.000 HD
BRANCH 45 58
ATOM     58  O4  BGC B   5      52.580  39.017  18.5460  0.00  0.00     0.000 O
BRANCH 58 62
ATOM     59  C1  BGC B   5      54.560  38.815  14.9150  0.00  0.00     0.000 C
ATOM     60  C2  BGC B   5      55.449  38.799  16.1420  0.00  0.00     0.000 C
ATOM     61  C3  BGC B   5      54.642  38.459  17.3810  0.00  0.00     0.000 C
ATOM     62  C4  BGC B   5      53.470  39.420  17.5020  0.00  0.00     0.000 C
ATOM     63  C5  BGC B   5      52.657  39.448  16.2000  0.00  0.00     0.000 C
ATOM     64  O5  BGC B   5      53.525  39.782  15.1220  0.00  0.00     0.000 O
ATOM     65   O  BGC B   5      52.154  41.721  16.4840  0.00  0.00     0.000 O
ATOM     67  HD  BGC B   5      52.110  42.333  17.0950  0.00  0.00     0.000 HD
ATOM     67   O  BGC B   5      52.154  41.721  16.4840  0.00  0.00     0.000 O
ATOM     69  HD  BGC B   5      52.110  42.333  17.0950  0.00  0.00     0.000 HD
ENDBRANCH 58 62
ENDBRANCH 45 58
ENDBRANCH 44 48
ENDBRANCH 31 44
ENDBRANCH 30 34
ENDBRANCH 17 30
ENDBRANCH 16 20
ENDBRANCH 1 16
TORSDOF 8
ENDMDL
MODEL 51
REMARK VINA RESULT:      -0.2     40.596     42.786
ROOT
ATOM      1  C1  BGC B   1      50.375  12.189  19.9280  0.00  0.00     0.000 C
ATOM      2  C2  BGC B   1      49.704  10.871  19.5470  0.00  0.00     0.000 C
ATOM      3  C3  BGC B   1      50.264   9.739  20.3870  0.00  0.00     0.000 C
ATOM      4  C4  BGC B   1      51.786   9.721  20.3200  0.00  0.00     0.000 C
ATOM      5  C5  BGC B   1      52.303  11.089  20.7400  0.00  0.00     0.000 C
ATOM      6  O5  BGC B   1      51.783  12.051  19.8050  0.00  0.00     0.000 O
ATOM      7   O  BGC B   1      48.289  10.976  19.7770  0.00  0.00     0.000 O
ATOM      9  HD  BGC B   1      47.855  10.248  19.9560  0.00  0.00     0.000 HD
ATOM      9   O  BGC B   1      49.718   8.502  19.9190  0.00  0.00     0.000 O
ATOM     11  HD  BGC B   1      49.284   7.774  20.0980  0.00  0.00     0.000 HD
ATOM     11   O  BGC B   1      52.286   8.729  21.1910  0.00  0.00     0.000 O
ATOM     13  HD  BGC B   1      51.852   8.001  21.3700  0.00  0.00     0.000 HD
ATOM     13   C  BGC B   1      53.820  11.216  20.7720  0.00  0.00     0.000 C
ATOM     14   O  BGC B   1      54.420  10.867  19.5290  0.00  0.00     0.000 O
ATOM     16  HD  BGC B   1      53.986  10.139  19.7080  0.00  0.00     0.000 HD
ENDROOT
BRANCH 1 16
ATOM     16  O4  BGC B   2      50.004  13.130  18.9220  0.00  0.00     0.000 O
BRANCH 16 20
ATOM     17  C1  BGC B   2      49.170  17.076  18.4030  0.00  0.00     0.000 C
ATOM     18  C2  BGC B   2      50.653  16.783  18.5790  0.00  0.00     0.000 C
ATOM     19  C3  BGC B   2      50.875  15.283  18.3970  0.00  0.00     0.000 C
ATOM     20  C4  BGC B   2      49.970  14.497  19.3230  0.00  0.00     0.000 C
ATOM     21  C5  BGC B   2      48.514  14.961  19.2480  0.00  0.00     0.000 C
ATOM     22  O5  BGC B   2      48.476  16.378  19.4540  0.00  0.00     0.000 O
ATOM     23   O  BGC B   2      51.418  17.494  17.5920  0.00  0.00     0.000 O
ATOM     25  HD  BGC B   2      51.166  16.669  17.6710  0.00  0.00     0.000 HD
ATOM     25   O  BGC B   2      52.238  14.961  18.6500  0.00  0.00     0.000 O
ATOM     27  HD  BGC B   2      51.986  14.136  18.7290  0.00  0.00     0.000 HD
ATOM     27   C  BGC B   2      47.629  14.314  20.3050  0.00  0.00     0.000 C
ATOM     28   O  BGC B   2      48.095  14.516  21.6290  0.00  0.00     0.000 O
ATOM     30  HD  BGC B   2      47.844  13.691  21.7080  0.00  0.00     0.000 HD
BRANCH 17 30
ATOM     30  O4  BGC B   3      48.988  18.450  18.6890  0.00  0.00     0.000 O
BRANCH 30 34
ATOM     31  C1  BGC B   3      46.580  21.601  17.5970  0.00  0.00     0.000 C
ATOM     32  C2  BGC B   3      45.888  20.541  18.4530  0.00  0.00     0.000 C
ATOM     33  C3  BGC B   3      46.946  19.672  19.1080  0.00  0.00     0.000 C
ATOM     34  C4  BGC B   3      47.873  19.077  18.0480  0.00  0.00     0.000 C
ATOM     35  C5  BGC B   3      48.412  20.171  17.1440  0.00  0.00     0.000 C
ATOM     36  O5  BGC B   3      47.320  20.918  16.5980  0.00  0.00     0.000 O
ATOM     37   O  BGC B   3      45.129  21.178  19.4780  0.00  0.00     0.000 O
ATOM     39  HD  BGC B   3      44.778  20.411  19.6730  0.00  0.00     0.000 HD
ATOM     39   O  BGC B   3      46.295  18.643  19.8390  0.00  0.00     0.000 O
ATOM     41  HD  BGC B   3      45.944  17.876  20.0330  0.00  0.00     0.000 HD
ATOM     41   C  BGC B   3      49.275  19.657  15.9970  0.00  0.00     0.000 C
ATOM     42   O  BGC B   3      48.545  18.745  15.2110  0.00  0.00     0.000 O
ATOM     44  HD  BGC B   3      48.195  17.978  15.4050  0.00  0.00     0.000 HD
BRANCH 31 44
ATOM     44  O4  BGC B   4      45.573  22.317  16.9290  0.00  0.00     0.000 O
BRANCH 44 48
ATOM     45  C1  BGC B   4      44.778  26.064  15.4680  0.00  0.00     0.000 C
ATOM     46  C2  BGC B   4      45.761  25.251  14.6380  0.00  0.00     0.000 C
ATOM     47  C3  BGC B   4      45.672  23.798  15.0330  0.00  0.00     0.000 C
ATOM     48  C4  BGC B   4      45.866  23.646  16.5450  0.00  0.00     0.000 C
ATOM     49  C5  BGC B   4      44.910  24.571  17.3070  0.00  0.00     0.000 C
ATOM     50  O5  BGC B   4      45.082  25.923  16.8570  0.00  0.00     0.000 O
ATOM     51   O  BGC B   4      45.446  25.378  13.2380  0.00  0.00     0.000 O
ATOM     53  HD  BGC B   4      45.112  24.592  13.3830  0.00  0.00     0.000 HD
ATOM     53   O  BGC B   4      46.692  23.067  14.3380  0.00  0.00     0.000 O
ATOM     55  HD  BGC B   4      46.358  22.281  14.4830  0.00  0.00     0.000 HD
ATOM     55   C  BGC B   4      45.108  24.576  18.8130  0.00  0.00     0.000 C
ATOM     56   O  BGC B   4      46.475  24.901  19.0710  0.00  0.00     0.000 O
ATOM     58  HD  BGC B   4      46.141  24.115  19.2160  0.00  0.00     0.000 HD
BRANCH 45 58
ATOM     58  O4  BGC B   5      45.100  27.434  15.2270  0.00  0.00     0.000 O
BRANCH 58 62
ATOM     59  C1  BGC B   5      43.351  31.070  14.2980  0.00  0.00     0.000 C
ATOM     60  C2  BGC B   5      43.169  30.608  15.7290  0.00  0.00     0.000 C
ATOM     61  C3  BGC B   5      44.167  29.518  16.0680  0.00  0.00     0.000 C
ATOM     62  C4  BGC B   5      44.052  28.390  15.0550  0.00  0.00     0.000 C
ATOM     63  C5  BGC B   5      44.165  28.935  13.6240  0.00  0.00     0.000 C
ATOM     64  O5  BGC B   5      43.176  29.942  13.4350  0.00  0.00     0.000 O
ATOM     65   O  BGC B   5      42.665  27.324  12.8180  0.00  0.00     0.000 O
ATOM     67  HD  BGC B   5      42.335  26.548  13.0160  0.00  0.00     0.000 HD
ATOM     67   O  BGC B   5      42.665  27.324  12.8180  0.00  0.00     0.000 O
ATOM     69  HD  BGC B   5      42.335  26.548  13.0160  0.00  0.00     0.000 HD
ENDBRANCH 58 62
ENDBRANCH 45 58
ENDBRANCH 44 48
ENDBRANCH 31 44
ENDBRANCH 30 34
ENDBRANCH 17 30
ENDBRANCH 16 20
ENDBRANCH 1 16
TORSDOF 8
ENDMDL
MODEL 52
REMARK VINA RESULT:      -0.2     57.989     61.625
ROOT
ATOM      1  C1  BGC B   1      69.467  12.115  15.4660  0.00  0.00     0.000 C
ATOM      2  C2  BGC B   1      68.849  11.971  14.0760  0.00  0.00     0.000 C
ATOM      3  C3  BGC B   1      68.971  10.537  13.5970  0.00  0.00     0.000 C
ATOM      4  C4  BGC B   1      70.412  10.053  13.7050  0.00  0.00     0.000 C
ATOM      5  C5  BGC B   1      70.878  10.245  15.1410  0.00  0.00     0.000 C
ATOM      6  O5  BGC B   1      70.811  11.654  15.4310  0.00  0.00     0.000 O
ATOM      7   O  BGC B   1      67.460  12.333  14.1360  0.00  0.00     0.000 O
ATOM      9  HD  BGC B   1      66.924  11.969  13.5620  0.00  0.00     0.000 HD
ATOM      9   O  BGC B   1      68.508  10.459  12.2460  0.00  0.00     0.000 O
ATOM     11  HD  BGC B   1      67.972  10.096  11.6710  0.00  0.00     0.000 HD
ATOM     11   O  BGC B   1      70.481   8.688  13.3560  0.00  0.00     0.000 O
ATOM     13  HD  BGC B   1      69.945   8.325  12.7810  0.00  0.00     0.000 HD
ATOM     13   C  BGC B   1      72.293   9.761  15.4230  0.00  0.00     0.000 C
ATOM     14   O  BGC B   1      73.253  10.352  14.5530  0.00  0.00     0.000 O
ATOM     16  HD  BGC B   1      72.717   9.989  13.9780  0.00  0.00     0.000 HD
ENDROOT
BRANCH 1 16
ATOM     16  O4  BGC B   2      69.561  13.516  15.7160  0.00  0.00     0.000 O
BRANCH 16 20
ATOM     17  C1  BGC B   2      69.298  16.243  18.7210  0.00  0.00     0.000 C
ATOM     18  C2  BGC B   2      70.571  15.411  18.7610  0.00  0.00     0.000 C
ATOM     19  C3  BGC B   2      70.730  14.703  17.4170  0.00  0.00     0.000 C
ATOM     20  C4  BGC B   2      69.480  13.916  17.0820  0.00  0.00     0.000 C
ATOM     21  C5  BGC B   2      68.207  14.747  17.2410  0.00  0.00     0.000 C
ATOM     22  O5  BGC B   2      68.201  15.326  18.5520  0.00  0.00     0.000 O
ATOM     23   O  BGC B   2      71.710  16.259  18.9830  0.00  0.00     0.000 O
ATOM     25  HD  BGC B   2      71.385  15.869  18.2820  0.00  0.00     0.000 HD
ATOM     25   O  BGC B   2      71.861  13.841  17.4540  0.00  0.00     0.000 O
ATOM     27  HD  BGC B   2      71.536  13.450  16.7530  0.00  0.00     0.000 HD
ATOM     27   C  BGC B   2      66.935  13.921  17.0930  0.00  0.00     0.000 C
ATOM     28   O  BGC B   2      66.869  12.825  17.9910  0.00  0.00     0.000 O
ATOM     30  HD  BGC B   2      66.544  12.434  17.2890  0.00  0.00     0.000 HD
BRANCH 17 30
ATOM     30  O4  BGC B   3      69.127  16.790  20.0150  0.00  0.00     0.000 O
BRANCH 30 34
ATOM     31  C1  BGC B   3      67.615  20.155  21.8370  0.00  0.00     0.000 C
ATOM     32  C2  BGC B   3      66.558  19.231  21.2330  0.00  0.00     0.000 C
ATOM     33  C3  BGC B   3      67.187  17.876  20.9620  0.00  0.00     0.000 C
ATOM     34  C4  BGC B   3      68.422  18.035  20.0760  0.00  0.00     0.000 C
ATOM     35  C5  BGC B   3      69.363  19.072  20.6620  0.00  0.00     0.000 C
ATOM     36  O5  BGC B   3      68.650  20.295  20.8770  0.00  0.00     0.000 O
ATOM     37   O  BGC B   3      65.492  19.055  22.1640  0.00  0.00     0.000 O
ATOM     39  HD  BGC B   3      65.038  18.656  21.5440  0.00  0.00     0.000 HD
ATOM     39   O  BGC B   3      66.220  17.049  20.3310  0.00  0.00     0.000 O
ATOM     41  HD  BGC B   3      65.767  16.650  19.7110  0.00  0.00     0.000 HD
ATOM     41   C  BGC B   3      70.582  19.363  19.7950  0.00  0.00     0.000 C
ATOM     42   O  BGC B   3      70.178  19.797  18.5180  0.00  0.00     0.000 O
ATOM     44  HD  BGC B   3      69.724  19.397  17.8970  0.00  0.00     0.000 HD
BRANCH 31 44
ATOM     44  O4  BGC B   4      67.026  21.422  21.9780  0.00  0.00     0.000 O
BRANCH 44 48
ATOM     45  C1  BGC B   4      67.176  24.746  24.3730  0.00  0.00     0.000 C
ATOM     46  C2  BGC B   4      68.365  24.580  23.4380  0.00  0.00     0.000 C
ATOM     47  C3  BGC B   4      68.023  23.580  22.3610  0.00  0.00     0.000 C
ATOM     48  C4  BGC B   4      67.540  22.268  22.9870  0.00  0.00     0.000 C
ATOM     49  C5  BGC B   4      66.411  22.533  23.9910  0.00  0.00     0.000 C
ATOM     50  O5  BGC B   4      66.846  23.490  24.9680  0.00  0.00     0.000 O
ATOM     51   O  BGC B   4      68.690  25.841  22.8230  0.00  0.00     0.000 O
ATOM     53  HD  BGC B   4      68.276  25.468  22.1600  0.00  0.00     0.000 HD
ATOM     53   O  BGC B   4      69.193  23.336  21.5670  0.00  0.00     0.000 O
ATOM     55  HD  BGC B   4      68.779  22.963  20.9050  0.00  0.00     0.000 HD
ATOM     55   C  BGC B   4      65.945  21.304  24.7500  0.00  0.00     0.000 C
ATOM     56   O  BGC B   4      67.087  20.723  25.3820  0.00  0.00     0.000 O
ATOM     58  HD  BGC B   4      66.673  20.350  24.7190  0.00  0.00     0.000 HD
BRANCH 45 58
ATOM     58  O4  BGC B   5      67.658  25.492  25.4900  0.00  0.00     0.000 O
BRANCH 58 62
ATOM     59  C1  BGC B   5      66.725  28.763  27.8520  0.00  0.00     0.000 C
ATOM     60  C2  BGC B   5      65.938  27.502  28.1470  0.00  0.00     0.000 C
ATOM     61  C3  BGC B   5      66.624  26.292  27.5430  0.00  0.00     0.000 C
ATOM     62  C4  BGC B   5      66.848  26.525  26.0570  0.00  0.00     0.000 C
ATOM     63  C5  BGC B   5      67.578  27.855  25.8210  0.00  0.00     0.000 C
ATOM     64  O5  BGC B   5      66.833  28.903  26.4310  0.00  0.00     0.000 O
ATOM     65   O  BGC B   5      66.420  28.213  23.8150  0.00  0.00     0.000 O
ATOM     67  HD  BGC B   5      65.981  27.788  23.2020  0.00  0.00     0.000 HD
ATOM     67   O  BGC B   5      66.420  28.213  23.8150  0.00  0.00     0.000 O
ATOM     69  HD  BGC B   5      65.981  27.788  23.2020  0.00  0.00     0.000 HD
ENDBRANCH 58 62
ENDBRANCH 45 58
ENDBRANCH 44 48
ENDBRANCH 31 44
ENDBRANCH 30 34
ENDBRANCH 17 30
ENDBRANCH 16 20
ENDBRANCH 1 16
TORSDOF 8
ENDMDL
MODEL 53
REMARK VINA RESULT:      -0.2     44.181     52.580
ROOT
ATOM      1  C1  BGC B   1      56.459   9.835  13.3630  0.00  0.00     0.000 C
ATOM      2  C2  BGC B   1      55.412  10.938  13.5120  0.00  0.00     0.000 C
ATOM      3  C3  BGC B   1      54.436  10.584  14.6170  0.00  0.00     0.000 C
ATOM      4  C4  BGC B   1      53.863   9.188  14.4050  0.00  0.00     0.000 C
ATOM      5  C5  BGC B   1      55.019   8.205  14.2920  0.00  0.00     0.000 C
ATOM      6  O5  BGC B   1      55.804   8.592  13.1490  0.00  0.00     0.000 O
ATOM      7   O  BGC B   1      56.070  12.173  13.8380  0.00  0.00     0.000 O
ATOM      9  HD  BGC B   1      55.622  12.760  14.2920  0.00  0.00     0.000 HD
ATOM      9   O  BGC B   1      53.394  11.564  14.6450  0.00  0.00     0.000 O
ATOM     11  HD  BGC B   1      52.947  12.150  15.0990  0.00  0.00     0.000 HD
ATOM     11   O  BGC B   1      53.042   8.842  15.4990  0.00  0.00     0.000 O
ATOM     13  HD  BGC B   1      52.595   9.428  15.9520  0.00  0.00     0.000 HD
ATOM     13   C  BGC B   1      54.606   6.750  14.1250  0.00  0.00     0.000 C
ATOM     14   O  BGC B   1      53.737   6.558  13.0120  0.00  0.00     0.000 O
ATOM     16  HD  BGC B   1      53.290   7.144  13.4660  0.00  0.00     0.000 HD
ENDROOT
BRANCH 1 16
ATOM     16  O4  BGC B   2      57.152  10.104  12.1460  0.00  0.00     0.000 O
BRANCH 16 20
ATOM     17  C1  BGC B   2      60.842   9.836  10.4590  0.00  0.00     0.000 C
ATOM     18  C2  BGC B   2      60.113   8.504  10.5490  0.00  0.00     0.000 C
ATOM     19  C3  BGC B   2      58.640   8.776  10.8460  0.00  0.00     0.000 C
ATOM     20  C4  BGC B   2      58.500   9.648  12.0770  0.00  0.00     0.000 C
ATOM     21  C5  BGC B   2      59.400  10.884  12.0210  0.00  0.00     0.000 C
ATOM     22  O5  BGC B   2      60.742  10.459  11.7530  0.00  0.00     0.000 O
ATOM     23   O  BGC B   2      60.219   7.797   9.3020  0.00  0.00     0.000 O
ATOM     25  HD  BGC B   2      59.587   8.256   9.6770  0.00  0.00     0.000 HD
ATOM     25   O  BGC B   2      57.948   7.547  11.0320  0.00  0.00     0.000 O
ATOM     27  HD  BGC B   2      57.316   8.006  11.4060  0.00  0.00     0.000 HD
ATOM     27   C  BGC B   2      59.413  11.668  13.3270  0.00  0.00     0.000 C
ATOM     28   O  BGC B   2      59.794  10.888  14.4480  0.00  0.00     0.000 O
ATOM     30  HD  BGC B   2      59.162  11.346  14.8220  0.00  0.00     0.000 HD
BRANCH 17 30
ATOM     30  O4  BGC B   3      62.217   9.541  10.2970  0.00  0.00     0.000 O
BRANCH 30 34
ATOM     31  C1  BGC B   3      65.583  11.092   8.5110  0.00  0.00     0.000 C
ATOM     32  C2  BGC B   3      65.091  11.876   9.7280  0.00  0.00     0.000 C
ATOM     33  C3  BGC B   3      64.124  11.008  10.5130  0.00  0.00     0.000 C
ATOM     34  C4  BGC B   3      62.989  10.530   9.6080  0.00  0.00     0.000 C
ATOM     35  C5  BGC B   3      63.550   9.888   8.3510  0.00  0.00     0.000 C
ATOM     36  O5  BGC B   3      64.448  10.800   7.7110  0.00  0.00     0.000 O
ATOM     37   O  BGC B   3      66.199  12.192  10.5690  0.00  0.00     0.000 O
ATOM     39  HD  BGC B   3      65.678  12.705  11.0330  0.00  0.00     0.000 HD
ATOM     39   O  BGC B   3      63.614  11.771  11.5970  0.00  0.00     0.000 O
ATOM     41  HD  BGC B   3      63.093  12.283  12.0610  0.00  0.00     0.000 HD
ATOM     41   C  BGC B   3      62.486   9.462   7.3460  0.00  0.00     0.000 C
ATOM     42   O  BGC B   3      61.701  10.570   6.9710  0.00  0.00     0.000 O
ATOM     44  HD  BGC B   3      61.180  11.082   7.4360  0.00  0.00     0.000 HD
BRANCH 31 44
ATOM     44  O4  BGC B   4      66.391  11.958   7.7580  0.00  0.00     0.000 O
BRANCH 44 48
ATOM     45  C1  BGC B   4      69.653  11.907   5.2740  0.00  0.00     0.000 C
ATOM     46  C2  BGC B   4      68.373  11.359   4.6580  0.00  0.00     0.000 C
ATOM     47  C3  BGC B   4      67.190  11.784   5.4940  0.00  0.00     0.000 C
ATOM     48  C4  BGC B   4      67.397  11.375   6.9550  0.00  0.00     0.000 C
ATOM     49  C5  BGC B   4      68.752  11.877   7.4690  0.00  0.00     0.000 C
ATOM     50  O5  BGC B   4      69.801  11.412   6.6060  0.00  0.00     0.000 O
ATOM     51   O  BGC B   4      68.212  11.870   3.3210  0.00  0.00     0.000 O
ATOM     53  HD  BGC B   4      67.647  12.382   3.7320  0.00  0.00     0.000 HD
ATOM     53   O  BGC B   4      66.009  11.155   4.9770  0.00  0.00     0.000 O
ATOM     55  HD  BGC B   4      65.444  11.666   5.3880  0.00  0.00     0.000 HD
ATOM     55   C  BGC B   4      69.099  11.420   8.8750  0.00  0.00     0.000 C
ATOM     56   O  BGC B   4      69.020   9.993   8.9010  0.00  0.00     0.000 O
ATOM     58  HD  BGC B   4      68.455  10.505   9.3120  0.00  0.00     0.000 HD
BRANCH 45 58
ATOM     58  O4  BGC B   5      70.725  11.258   4.5910  0.00  0.00     0.000 O
BRANCH 58 62
ATOM     59  C1  BGC B   5      74.303  12.069   2.6710  0.00  0.00     0.000 C
ATOM     60  C2  BGC B   5      74.365  12.060   4.1850  0.00  0.00     0.000 C
ATOM     61  C3  BGC B   5      73.150  11.360   4.7640  0.00  0.00     0.000 C
ATOM     62  C4  BGC B   5      71.885  12.005   4.2190  0.00  0.00     0.000 C
ATOM     63  C5  BGC B   5      71.921  12.056   2.6850  0.00  0.00     0.000 C
ATOM     64  O5  BGC B   5      73.101  12.738   2.2740  0.00  0.00     0.000 O
ATOM     65   O  BGC B   5      70.750  14.087   2.6570  0.00  0.00     0.000 O
ATOM     67  HD  BGC B   5      70.223  14.571   3.1440  0.00  0.00     0.000 HD
ATOM     67   O  BGC B   5      70.750  14.087   2.6570  0.00  0.00     0.000 O
ATOM     69  HD  BGC B   5      70.223  14.571   3.1440  0.00  0.00     0.000 HD
ENDBRANCH 58 62
ENDBRANCH 45 58
ENDBRANCH 44 48
ENDBRANCH 31 44
ENDBRANCH 30 34
ENDBRANCH 17 30
ENDBRANCH 16 20
ENDBRANCH 1 16
TORSDOF 8
ENDMDL
MODEL 54
REMARK VINA RESULT:      -0.2     40.780     43.688
ROOT
ATOM      1  C1  BGC B   1      14.466  33.049  34.4910  0.00  0.00     0.000 C
ATOM      2  C2  BGC B   1      14.041  33.674  33.1630  0.00  0.00     0.000 C
ATOM      3  C3  BGC B   1      12.588  34.101  33.2300  0.00  0.00     0.000 C
ATOM      4  C4  BGC B   1      11.709  32.949  33.7010  0.00  0.00     0.000 C
ATOM      5  C5  BGC B   1      12.245  32.447  35.0330  0.00  0.00     0.000 C
ATOM      6  O5  BGC B   1      13.587  31.978  34.8070  0.00  0.00     0.000 O
ATOM      7   O  BGC B   1      14.861  34.825  32.8980  0.00  0.00     0.000 O
ATOM      9  HD  BGC B   1      14.522  35.458  32.4140  0.00  0.00     0.000 HD
ATOM      9   O  BGC B   1      12.180  34.559  31.9380  0.00  0.00     0.000 O
ATOM     11  HD  BGC B   1      11.841  35.192  31.4540  0.00  0.00     0.000 HD
ATOM     11   O  BGC B   1      10.381  33.400  33.8560  0.00  0.00     0.000 O
ATOM     13  HD  BGC B   1      10.041  34.033  33.3720  0.00  0.00     0.000 HD
ATOM     13   C  BGC B   1      11.439  31.319  35.6620  0.00  0.00     0.000 C
ATOM     14   O  BGC B   1      11.288  30.207  34.7860  0.00  0.00     0.000 O
ATOM     16  HD  BGC B   1      10.948  30.840  34.3020  0.00  0.00     0.000 HD
ENDROOT
BRANCH 1 16
ATOM     16  O4  BGC B   2      15.731  32.434  34.2540  0.00  0.00     0.000 O
BRANCH 16 20
ATOM     17  C1  BGC B   2      19.263  31.617  36.0980  0.00  0.00     0.000 C
ATOM     18  C2  BGC B   2      18.131  30.684  36.5030  0.00  0.00     0.000 C
ATOM     19  C3  BGC B   2      16.989  30.843  35.5030  0.00  0.00     0.000 C
ATOM     20  C4  BGC B   2      16.586  32.299  35.3870  0.00  0.00     0.000 C
ATOM     21  C5  BGC B   2      17.786  33.221  35.1670  0.00  0.00     0.000 C
ATOM     22  O5  BGC B   2      18.754  32.960  36.1910  0.00  0.00     0.000 O
ATOM     23   O  BGC B   2      18.585  29.320  36.4860  0.00  0.00     0.000 O
ATOM     25  HD  BGC B   2      18.102  29.796  35.9460  0.00  0.00     0.000 HD
ATOM     25   O  BGC B   2      15.876  30.055  35.9080  0.00  0.00     0.000 O
ATOM     27  HD  BGC B   2      15.394  30.530  35.3680  0.00  0.00     0.000 HD
ATOM     27   C  BGC B   2      17.422  34.698  35.2380  0.00  0.00     0.000 C
ATOM     28   O  BGC B   2      16.793  35.065  36.4550  0.00  0.00     0.000 O
ATOM     30  HD  BGC B   2      16.310  35.540  35.9160  0.00  0.00     0.000 HD
BRANCH 17 30
ATOM     30  O4  BGC B   3      20.251  31.524  37.1060  0.00  0.00     0.000 O
BRANCH 30 34
ATOM     31  C1  BGC B   3      24.335  31.760  37.5380  0.00  0.00     0.000 C
ATOM     32  C2  BGC B   3      23.645  33.101  37.2890  0.00  0.00     0.000 C
ATOM     33  C3  BGC B   3      22.157  32.942  37.5460  0.00  0.00     0.000 C
ATOM     34  C4  BGC B   3      21.591  31.808  36.6920  0.00  0.00     0.000 C
ATOM     35  C5  BGC B   3      22.412  30.545  36.8810  0.00  0.00     0.000 C
ATOM     36  O5  BGC B   3      23.790  30.829  36.6180  0.00  0.00     0.000 O
ATOM     37   O  BGC B   3      24.158  34.076  38.1950  0.00  0.00     0.000 O
ATOM     39  HD  BGC B   3      23.732  34.686  37.7530  0.00  0.00     0.000 HD
ATOM     39   O  BGC B   3      21.514  34.170  37.2380  0.00  0.00     0.000 O
ATOM     41  HD  BGC B   3      21.088  34.781  36.7960  0.00  0.00     0.000 HD
ATOM     41   C  BGC B   3      21.974  29.383  35.9960  0.00  0.00     0.000 C
ATOM     42   O  BGC B   3      22.033  29.757  34.6390  0.00  0.00     0.000 O
ATOM     44  HD  BGC B   3      21.607  30.368  34.1980  0.00  0.00     0.000 HD
BRANCH 31 44
ATOM     44  O4  BGC B   4      25.688  31.919  37.1930  0.00  0.00     0.000 O
BRANCH 44 48
ATOM     45  C1  BGC B   4      29.409  30.547  38.2280  0.00  0.00     0.000 C
ATOM     46  C2  BGC B   4      28.571  29.568  37.4190  0.00  0.00     0.000 C
ATOM     47  C3  BGC B   4      27.421  30.303  36.7740  0.00  0.00     0.000 C
ATOM     48  C4  BGC B   4      26.624  31.074  37.8300  0.00  0.00     0.000 C
ATOM     49  C5  BGC B   4      27.555  31.959  38.6680  0.00  0.00     0.000 C
ATOM     50  O5  BGC B   4      28.603  31.160  39.2350  0.00  0.00     0.000 O
ATOM     51   O  BGC B   4      29.376  28.960  36.3910  0.00  0.00     0.000 O
ATOM     53  HD  BGC B   4      28.946  29.535  35.9060  0.00  0.00     0.000 HD
ATOM     53   O  BGC B   4      26.569  29.348  36.1250  0.00  0.00     0.000 O
ATOM     55  HD  BGC B   4      26.139  29.923  35.6400  0.00  0.00     0.000 HD
ATOM     55   C  BGC B   4      26.871  32.676  39.8190  0.00  0.00     0.000 C
ATOM     56   O  BGC B   4      26.219  31.690  40.6200  0.00  0.00     0.000 O
ATOM     58  HD  BGC B   4      25.789  32.265  40.1360  0.00  0.00     0.000 HD
BRANCH 45 58
ATOM     58  O4  BGC B   5      30.304  29.749  39.0020  0.00  0.00     0.000 O
BRANCH 58 62
ATOM     59  C1  BGC B   5      34.303  29.427  40.0290  0.00  0.00     0.000 C
ATOM     60  C2  BGC B   5      33.532  30.513  40.7510  0.00  0.00     0.000 C
ATOM     61  C3  BGC B   5      32.038  30.280  40.6240  0.00  0.00     0.000 C
ATOM     62  C4  BGC B   5      31.666  30.156  39.1560  0.00  0.00     0.000 C
ATOM     63  C5  BGC B   5      32.537  29.097  38.4640  0.00  0.00     0.000 C
ATOM     64  O5  BGC B   5      33.908  29.433  38.6530  0.00  0.00     0.000 O
ATOM     65   O  BGC B   5      32.529  30.303  36.4540  0.00  0.00     0.000 O
ATOM     67  HD  BGC B   5      32.079  30.910  36.0310  0.00  0.00     0.000 HD
ATOM     67   O  BGC B   5      32.529  30.303  36.4540  0.00  0.00     0.000 O
ATOM     69  HD  BGC B   5      32.079  30.910  36.0310  0.00  0.00     0.000 HD
ENDBRANCH 58 62
ENDBRANCH 45 58
ENDBRANCH 44 48
ENDBRANCH 31 44
ENDBRANCH 30 34
ENDBRANCH 17 30
ENDBRANCH 16 20
ENDBRANCH 1 16
TORSDOF 8
ENDMDL
MODEL 55
REMARK VINA RESULT:      -0.2     43.086     46.523
ROOT
ATOM      1  C1  BGC B   1      13.405  32.732  46.1840  0.00  0.00     0.000 C
ATOM      2  C2  BGC B   1      12.023  32.991  45.5850  0.00  0.00     0.000 C
ATOM      3  C3  BGC B   1      11.274  34.009  46.4240  0.00  0.00     0.000 C
ATOM      4  C4  BGC B   1      11.264  33.597  47.8900  0.00  0.00     0.000 C
ATOM      5  C5  BGC B   1      12.702  33.393  48.3430  0.00  0.00     0.000 C
ATOM      6  O5  BGC B   1      13.261  32.336  47.5410  0.00  0.00     0.000 O
ATOM      7   O  BGC B   1      12.174  33.497  44.2490  0.00  0.00     0.000 O
ATOM      9  HD  BGC B   1      11.548  34.010  43.9400  0.00  0.00     0.000 HD
ATOM      9   O  BGC B   1       9.941  34.132  45.9200  0.00  0.00     0.000 O
ATOM     11  HD  BGC B   1       9.315  34.644  45.6100  0.00  0.00     0.000 HD
ATOM     11   O  BGC B   1      10.656  34.609  48.6630  0.00  0.00     0.000 O
ATOM     13  HD  BGC B   1      10.030  35.121  48.3530  0.00  0.00     0.000 HD
ATOM     13   C  BGC B   1      12.863  33.022  49.8110  0.00  0.00     0.000 C
ATOM     14   O  BGC B   1      12.109  31.867  50.1650  0.00  0.00     0.000 O
ATOM     16  HD  BGC B   1      11.483  32.379  49.8550  0.00  0.00     0.000 HD
ENDROOT
BRANCH 1 16
ATOM     16  O4  BGC B   2      13.921  31.584  45.5140  0.00  0.00     0.000 O
BRANCH 16 20
ATOM     17  C1  BGC B   2      17.413  29.961  44.2080  0.00  0.00     0.000 C
ATOM     18  C2  BGC B   2      17.213  29.852  45.7120  0.00  0.00     0.000 C
ATOM     19  C3  BGC B   2      15.749  30.149  46.0290  0.00  0.00     0.000 C
ATOM     20  C4  BGC B   2      15.341  31.484  45.4420  0.00  0.00     0.000 C
ATOM     21  C5  BGC B   2      15.735  31.619  43.9710  0.00  0.00     0.000 C
ATOM     22  O5  BGC B   2      17.132  31.326  43.8450  0.00  0.00     0.000 O
ATOM     23   O  BGC B   2      17.530  28.522  46.1570  0.00  0.00     0.000 O
ATOM     25  HD  BGC B   2      16.787  28.941  46.0110  0.00  0.00     0.000 HD
ATOM     25   O  BGC B   2      15.550  30.148  47.4380  0.00  0.00     0.000 O
ATOM     27  HD  BGC B   2      14.806  30.567  47.2920  0.00  0.00     0.000 HD
ATOM     27   C  BGC B   2      15.503  33.020  43.4190  0.00  0.00     0.000 C
ATOM     28   O  BGC B   2      16.169  34.032  44.1560  0.00  0.00     0.000 O
ATOM     30  HD  BGC B   2      15.425  34.451  44.0100  0.00  0.00     0.000 HD
BRANCH 17 30
ATOM     30  O4  BGC B   3      18.797  29.792  43.9650  0.00  0.00     0.000 O
BRANCH 30 34
ATOM     31  C1  BGC B   3      21.331  28.311  41.0830  0.00  0.00     0.000 C
ATOM     32  C2  BGC B   3      20.633  29.616  40.7040  0.00  0.00     0.000 C
ATOM     33  C3  BGC B   3      20.063  30.252  41.9600  0.00  0.00     0.000 C
ATOM     34  C4  BGC B   3      19.144  29.266  42.6800  0.00  0.00     0.000 C
ATOM     35  C5  BGC B   3      19.855  27.942  42.8980  0.00  0.00     0.000 C
ATOM     36  O5  BGC B   3      20.349  27.455  41.6450  0.00  0.00     0.000 O
ATOM     37   O  BGC B   3      21.582  30.515  40.1330  0.00  0.00     0.000 O
ATOM     39  HD  BGC B   3      20.928  31.037  39.9100  0.00  0.00     0.000 HD
ATOM     39   O  BGC B   3      19.351  31.422  41.5890  0.00  0.00     0.000 O
ATOM     41  HD  BGC B   3      18.697  31.944  41.3660  0.00  0.00     0.000 HD
ATOM     41   C  BGC B   3      18.980  26.866  43.5300  0.00  0.00     0.000 C
ATOM     42   O  BGC B   3      17.841  26.637  42.7350  0.00  0.00     0.000 O
ATOM     44  HD  BGC B   3      17.187  27.159  42.5120  0.00  0.00     0.000 HD
BRANCH 31 44
ATOM     44  O4  BGC B   4      21.754  27.703  39.8890  0.00  0.00     0.000 O
BRANCH 44 48
ATOM     45  C1  BGC B   4      24.737  25.301  38.4300  0.00  0.00     0.000 C
ATOM     46  C2  BGC B   4      23.704  24.585  39.2880  0.00  0.00     0.000 C
ATOM     47  C3  BGC B   4      22.479  25.454  39.4310  0.00  0.00     0.000 C
ATOM     48  C4  BGC B   4      22.869  26.839  39.9590  0.00  0.00     0.000 C
ATOM     49  C5  BGC B   4      23.985  27.448  39.1010  0.00  0.00     0.000 C
ATOM     50  O5  BGC B   4      25.096  26.543  39.0380  0.00  0.00     0.000 O
ATOM     51   O  BGC B   4      23.327  23.340  38.6700  0.00  0.00     0.000 O
ATOM     53  HD  BGC B   4      22.636  23.815  38.4550  0.00  0.00     0.000 HD
ATOM     53   O  BGC B   4      21.570  24.826  40.3460  0.00  0.00     0.000 O
ATOM     55  HD  BGC B   4      20.879  25.301  40.1310  0.00  0.00     0.000 HD
ATOM     55   C  BGC B   4      24.519  28.773  39.6160  0.00  0.00     0.000 C
ATOM     56   O  BGC B   4      24.940  28.577  40.9670  0.00  0.00     0.000 O
ATOM     58  HD  BGC B   4      24.248  29.052  40.7520  0.00  0.00     0.000 HD
BRANCH 45 58
ATOM     58  O4  BGC B   5      25.941  24.545  38.5550  0.00  0.00     0.000 O
BRANCH 58 62
ATOM     59  C1  BGC B   5      28.968  22.863  36.2840  0.00  0.00     0.000 C
ATOM     60  C2  BGC B   5      29.058  24.363  36.4790  0.00  0.00     0.000 C
ATOM     61  C3  BGC B   5      28.178  24.804  37.6330  0.00  0.00     0.000 C
ATOM     62  C4  BGC B   5      26.758  24.314  37.4050  0.00  0.00     0.000 C
ATOM     63  C5  BGC B   5      26.744  22.802  37.1350  0.00  0.00     0.000 C
ATOM     64  O5  BGC B   5      27.601  22.523  36.0330  0.00  0.00     0.000 O
ATOM     65   O  BGC B   5      24.933  23.012  35.6610  0.00  0.00     0.000 O
ATOM     67  HD  BGC B   5      24.279  23.544  35.4640  0.00  0.00     0.000 HD
ATOM     67   O  BGC B   5      24.933  23.012  35.6610  0.00  0.00     0.000 O
ATOM     69  HD  BGC B   5      24.279  23.544  35.4640  0.00  0.00     0.000 HD
ENDBRANCH 58 62
ENDBRANCH 45 58
ENDBRANCH 44 48
ENDBRANCH 31 44
ENDBRANCH 30 34
ENDBRANCH 17 30
ENDBRANCH 16 20
ENDBRANCH 1 16
TORSDOF 8
ENDMDL
MODEL 56
REMARK VINA RESULT:      -0.2     50.053     58.050
ROOT
ATOM      1  C1  BGC B   1      42.148  37.312  26.2630  0.00  0.00     0.000 C
ATOM      2  C2  BGC B   1      42.777  36.879  24.9400  0.00  0.00     0.000 C
ATOM      3  C3  BGC B   1      41.747  36.172  24.0800  0.00  0.00     0.000 C
ATOM      4  C4  BGC B   1      41.071  35.051  24.8600  0.00  0.00     0.000 C
ATOM      5  C5  BGC B   1      40.484  35.637  26.1360  0.00  0.00     0.000 C
ATOM      6  O5  BGC B   1      41.575  36.180  26.9020  0.00  0.00     0.000 O
ATOM      7   O  BGC B   1      43.259  38.039  24.2430  0.00  0.00     0.000 O
ATOM      9  HD  BGC B   1      43.295  38.003  23.3780  0.00  0.00     0.000 HD
ATOM      9   O  BGC B   1      42.392  35.661  22.9100  0.00  0.00     0.000 O
ATOM     11  HD  BGC B   1      42.429  35.625  22.0460  0.00  0.00     0.000 HD
ATOM     11   O  BGC B   1      40.046  34.479  24.0770  0.00  0.00     0.000 O
ATOM     13  HD  BGC B   1      40.083  34.443  23.2130  0.00  0.00     0.000 HD
ATOM     13   C  BGC B   1      39.728  34.644  27.0060  0.00  0.00     0.000 C
ATOM     14   O  BGC B   1      40.521  33.512  27.3520  0.00  0.00     0.000 O
ATOM     16  HD  BGC B   1      40.558  33.476  26.4870  0.00  0.00     0.000 HD
ENDROOT
BRANCH 1 16
ATOM     16  O4  BGC B   2      43.228  37.707  27.1070  0.00  0.00     0.000 O
BRANCH 16 20
ATOM     17  C1  BGC B   2      44.171  40.351  30.0500  0.00  0.00     0.000 C
ATOM     18  C2  BGC B   2      43.288  39.204  30.5180  0.00  0.00     0.000 C
ATOM     19  C3  BGC B   2      43.306  38.111  29.4520  0.00  0.00     0.000 C
ATOM     20  C4  BGC B   2      42.924  38.681  28.1020  0.00  0.00     0.000 C
ATOM     21  C5  BGC B   2      43.710  39.947  27.7600  0.00  0.00     0.000 C
ATOM     22  O5  BGC B   2      43.579  40.873  28.8460  0.00  0.00     0.000 O
ATOM     23   O  BGC B   2      43.790  38.665  31.7520  0.00  0.00     0.000 O
ATOM     25  HD  BGC B   2      43.826  38.402  30.9280  0.00  0.00     0.000 HD
ATOM     25   O  BGC B   2      42.414  37.064  29.8150  0.00  0.00     0.000 O
ATOM     27  HD  BGC B   2      42.450  36.801  28.9910  0.00  0.00     0.000 HD
ATOM     27   C  BGC B   2      43.206  40.637  26.4980  0.00  0.00     0.000 C
ATOM     28   O  BGC B   2      41.828  40.967  26.5500  0.00  0.00     0.000 O
ATOM     30  HD  BGC B   2      41.864  40.704  25.7260  0.00  0.00     0.000 HD
BRANCH 17 30
ATOM     30  O4  BGC B   3      44.039  41.386  31.0060  0.00  0.00     0.000 O
BRANCH 30 34
ATOM     31  C1  BGC B   3      46.234  44.452  32.6510  0.00  0.00     0.000 C
ATOM     32  C2  BGC B   3      45.814  44.680  31.1990  0.00  0.00     0.000 C
ATOM     33  C3  BGC B   3      44.706  43.702  30.8490  0.00  0.00     0.000 C
ATOM     34  C4  BGC B   3      45.158  42.269  31.1250  0.00  0.00     0.000 C
ATOM     35  C5  BGC B   3      45.696  42.148  32.5400  0.00  0.00     0.000 C
ATOM     36  O5  BGC B   3      46.724  43.124  32.7440  0.00  0.00     0.000 O
ATOM     37   O  BGC B   3      45.310  46.005  31.0520  0.00  0.00     0.000 O
ATOM     39  HD  BGC B   3      45.301  45.889  30.1940  0.00  0.00     0.000 HD
ATOM     39   O  BGC B   3      44.376  43.868  29.4780  0.00  0.00     0.000 O
ATOM     41  HD  BGC B   3      44.367  43.752  28.6200  0.00  0.00     0.000 HD
ATOM     41   C  BGC B   3      46.257  40.770  32.8740  0.00  0.00     0.000 C
ATOM     42   O  BGC B   3      47.285  40.433  31.9740  0.00  0.00     0.000 O
ATOM     44  HD  BGC B   3      47.277  40.317  31.1160  0.00  0.00     0.000 HD
BRANCH 31 44
ATOM     44  O4  BGC B   4      47.324  45.299  32.9060  0.00  0.00     0.000 O
BRANCH 44 48
ATOM     45  C1  BGC B   4      49.043  47.434  35.9540  0.00  0.00     0.000 C
ATOM     46  C2  BGC B   4      49.255  45.929  36.0310  0.00  0.00     0.000 C
ATOM     47  C3  BGC B   4      48.936  45.307  34.6940  0.00  0.00     0.000 C
ATOM     48  C4  BGC B   4      47.529  45.711  34.2420  0.00  0.00     0.000 C
ATOM     49  C5  BGC B   4      47.364  47.235  34.2890  0.00  0.00     0.000 C
ATOM     50  O5  BGC B   4      47.687  47.716  35.6020  0.00  0.00     0.000 O
ATOM     51   O  BGC B   4      50.625  45.640  36.3690  0.00  0.00     0.000 O
ATOM     53  HD  BGC B   4      50.655  45.475  35.5190  0.00  0.00     0.000 HD
ATOM     53   O  BGC B   4      49.013  43.879  34.8180  0.00  0.00     0.000 O
ATOM     55  HD  BGC B   4      49.044  43.714  33.9680  0.00  0.00     0.000 HD
ATOM     55   C  BGC B   4      45.964  47.725  33.9690  0.00  0.00     0.000 C
ATOM     56   O  BGC B   4      45.058  47.068  34.8580  0.00  0.00     0.000 O
ATOM     58  HD  BGC B   4      45.089  46.903  34.0080  0.00  0.00     0.000 HD
BRANCH 45 58
ATOM     58  O4  BGC B   5      49.110  47.908  37.2990  0.00  0.00     0.000 O
BRANCH 58 62
ATOM     59  C1  BGC B   5      50.901  50.840  39.6100  0.00  0.00     0.000 C
ATOM     60  C2  BGC B   5      49.699  51.291  38.8050  0.00  0.00     0.000 C
ATOM     61  C3  BGC B   5      48.889  50.095  38.3430  0.00  0.00     0.000 C
ATOM     62  C4  BGC B   5      49.790  49.132  37.5870  0.00  0.00     0.000 C
ATOM     63  C5  BGC B   5      51.027  48.778  38.4240  0.00  0.00     0.000 C
ATOM     64  O5  BGC B   5      51.697  49.981  38.7880  0.00  0.00     0.000 O
ATOM     65   O  BGC B   5      52.367  48.625  36.5060  0.00  0.00     0.000 O
ATOM     67  HD  BGC B   5      52.312  48.504  35.6500  0.00  0.00     0.000 HD
ATOM     67   O  BGC B   5      52.367  48.625  36.5060  0.00  0.00     0.000 O
ATOM     69  HD  BGC B   5      52.312  48.504  35.6500  0.00  0.00     0.000 HD
ENDBRANCH 58 62
ENDBRANCH 45 58
ENDBRANCH 44 48
ENDBRANCH 31 44
ENDBRANCH 30 34
ENDBRANCH 17 30
ENDBRANCH 16 20
ENDBRANCH 1 16
TORSDOF 8
ENDMDL
MODEL 57
REMARK VINA RESULT:      -0.2     62.147     64.359
ROOT
ATOM      1  C1  BGC B   1      52.058  29.364  45.9050  0.00  0.00     0.000 C
ATOM      2  C2  BGC B   1      50.728  29.574  45.1820  0.00  0.00     0.000 C
ATOM      3  C3  BGC B   1      50.023  30.798  45.7340  0.00  0.00     0.000 C
ATOM      4  C4  BGC B   1      49.916  30.721  47.2510  0.00  0.00     0.000 C
ATOM      5  C5  BGC B   1      51.313  30.528  47.8240  0.00  0.00     0.000 C
ATOM      6  O5  BGC B   1      51.823  29.287  47.3040  0.00  0.00     0.000 O
ATOM      7   O  BGC B   1      50.977  29.763  43.7790  0.00  0.00     0.000 O
ATOM      9  HD  BGC B   1      50.406  30.235  43.3290  0.00  0.00     0.000 HD
ATOM      9   O  BGC B   1      48.727  30.894  45.1360  0.00  0.00     0.000 O
ATOM     11  HD  BGC B   1      48.156  31.366  44.6860  0.00  0.00     0.000 HD
ATOM     11   O  BGC B   1      49.353  31.916  47.7480  0.00  0.00     0.000 O
ATOM     13  HD  BGC B   1      48.783  32.387  47.2980  0.00  0.00     0.000 HD
ATOM     13   C  BGC B   1      51.380  30.480  49.3430  0.00  0.00     0.000 C
ATOM     14   O  BGC B   1      50.524  29.483  49.8930  0.00  0.00     0.000 O
ATOM     16  HD  BGC B   1      49.953  29.954  49.4430  0.00  0.00     0.000 HD
ENDROOT
BRANCH 1 16
ATOM     16  O4  BGC B   2      52.513  28.065  45.5310  0.00  0.00     0.000 O
BRANCH 16 20
ATOM     17  C1  BGC B   2      55.923  25.971  44.8080  0.00  0.00     0.000 C
ATOM     18  C2  BGC B   2      55.663  26.225  46.2860  0.00  0.00     0.000 C
ATOM     19  C3  BGC B   2      54.215  26.678  46.4520  0.00  0.00     0.000 C
ATOM     20  C4  BGC B   2      53.924  27.864  45.5550  0.00  0.00     0.000 C
ATOM     21  C5  BGC B   2      54.378  27.629  44.1140  0.00  0.00     0.000 C
ATOM     22  O5  BGC B   2      55.754  27.229  44.1290  0.00  0.00     0.000 O
ATOM     23   O  BGC B   2      55.868  25.018  47.0380  0.00  0.00     0.000 O
ATOM     25  HD  BGC B   2      55.162  25.437  46.7630  0.00  0.00     0.000 HD
ATOM     25   O  BGC B   2      53.966  27.016  47.8120  0.00  0.00     0.000 O
ATOM     27  HD  BGC B   2      53.260  27.435  47.5370  0.00  0.00     0.000 HD
ATOM     27   C  BGC B   2      54.266  28.876  43.2460  0.00  0.00     0.000 C
ATOM     28   O  BGC B   2      54.978  29.988  43.7650  0.00  0.00     0.000 O
ATOM     30  HD  BGC B   2      54.272  30.407  43.4900  0.00  0.00     0.000 HD
BRANCH 17 30
ATOM     30  O4  BGC B   3      57.299  25.665  44.6810  0.00  0.00     0.000 O
BRANCH 30 34
ATOM     31  C1  BGC B   3      59.815  23.397  42.3470  0.00  0.00     0.000 C
ATOM     32  C2  BGC B   3      59.243  24.631  41.6500  0.00  0.00     0.000 C
ATOM     33  C3  BGC B   3      58.678  25.571  42.7000  0.00  0.00     0.000 C
ATOM     34  C4  BGC B   3      57.652  24.840  43.5660  0.00  0.00     0.000 C
ATOM     35  C5  BGC B   3      58.243  23.551  44.1110  0.00  0.00     0.000 C
ATOM     36  O5  BGC B   3      58.744  22.762  43.0270  0.00  0.00     0.000 O
ATOM     37   O  BGC B   3      60.284  25.308  40.9500  0.00  0.00     0.000 O
ATOM     39  HD  BGC B   3      59.685  25.813  40.5800  0.00  0.00     0.000 HD
ATOM     39   O  BGC B   3      58.079  26.676  42.0390  0.00  0.00     0.000 O
ATOM     41  HD  BGC B   3      57.480  27.180  41.6690  0.00  0.00     0.000 HD
ATOM     41   C  BGC B   3      57.258  22.710  44.9140  0.00  0.00     0.000 C
ATOM     42   O  BGC B   3      56.136  22.390  44.1250  0.00  0.00     0.000 O
ATOM     44  HD  BGC B   3      55.537  22.894  43.7550  0.00  0.00     0.000 HD
BRANCH 31 44
ATOM     44  O4  BGC B   4      60.234  22.509  41.3430  0.00  0.00     0.000 O
BRANCH 44 48
ATOM     45  C1  BGC B   4      63.069  19.637  40.6220  0.00  0.00     0.000 C
ATOM     46  C2  BGC B   4      61.947  19.206  41.5570  0.00  0.00     0.000 C
ATOM     47  C3  BGC B   4      60.792  20.169  41.4350  0.00  0.00     0.000 C
ATOM     48  C4  BGC B   4      61.272  21.606  41.6650  0.00  0.00     0.000 C
ATOM     49  C5  BGC B   4      62.466  21.927  40.7580  0.00  0.00     0.000 C
ATOM     50  O5  BGC B   4      63.503  20.955  40.9600  0.00  0.00     0.000 O
ATOM     51   O  BGC B   4      61.495  17.883  41.2080  0.00  0.00     0.000 O
ATOM     53  HD  BGC B   4      60.854  18.345  40.8550  0.00  0.00     0.000 HD
ATOM     53   O  BGC B   4      59.800  19.827  42.4130  0.00  0.00     0.000 O
ATOM     55  HD  BGC B   4      59.159  20.289  42.0590  0.00  0.00     0.000 HD
ATOM     55   C  BGC B   4      63.086  23.293  40.9970  0.00  0.00     0.000 C
ATOM     56   O  BGC B   4      63.435  23.377  42.3800  0.00  0.00     0.000 O
ATOM     58  HD  BGC B   4      62.793  23.838  42.0260  0.00  0.00     0.000 HD
BRANCH 45 58
ATOM     58  O4  BGC B   5      64.201  18.846  40.9790  0.00  0.00     0.000 O
BRANCH 58 62
ATOM     59  C1  BGC B   5      67.150  16.467  39.3050  0.00  0.00     0.000 C
ATOM     60  C2  BGC B   5      67.374  17.961  39.1870  0.00  0.00     0.000 C
ATOM     61  C3  BGC B   5      66.491  18.712  40.1660  0.00  0.00     0.000 C
ATOM     62  C4  BGC B   5      65.041  18.306  39.9560  0.00  0.00     0.000 C
ATOM     63  C5  BGC B   5      64.895  16.778  40.0080  0.00  0.00     0.000 C
ATOM     64  O5  BGC B   5      65.768  16.199  39.0440  0.00  0.00     0.000 O
ATOM     65   O  BGC B   5      63.179  16.820  38.4110  0.00  0.00     0.000 O
ATOM     67  HD  BGC B   5      62.587  17.351  38.0670  0.00  0.00     0.000 HD
ATOM     67   O  BGC B   5      63.179  16.820  38.4110  0.00  0.00     0.000 O
ATOM     69  HD  BGC B   5      62.587  17.351  38.0670  0.00  0.00     0.000 HD
ENDBRANCH 58 62
ENDBRANCH 45 58
ENDBRANCH 44 48
ENDBRANCH 31 44
ENDBRANCH 30 34
ENDBRANCH 17 30
ENDBRANCH 16 20
ENDBRANCH 1 16
TORSDOF 8
ENDMDL
MODEL 58
REMARK VINA RESULT:      -0.2     56.835     60.696
ROOT
ATOM      1  C1  BGC B   1      24.191  23.035  53.3390  0.00  0.00     0.000 C
ATOM      2  C2  BGC B   1      24.011  21.768  54.1730  0.00  0.00     0.000 C
ATOM      3  C3  BGC B   1      24.119  20.541  53.2880  0.00  0.00     0.000 C
ATOM      4  C4  BGC B   1      23.182  20.654  52.0930  0.00  0.00     0.000 C
ATOM      5  C5  BGC B   1      23.491  21.950  51.3580  0.00  0.00     0.000 C
ATOM      6  O5  BGC B   1      23.250  23.033  52.2750  0.00  0.00     0.000 O
ATOM      7   O  BGC B   1      25.033  21.716  55.1820  0.00  0.00     0.000 O
ATOM      9  HD  BGC B   1      25.278  20.935  55.4670  0.00  0.00     0.000 HD
ATOM      9   O  BGC B   1      23.815  19.380  54.0670  0.00  0.00     0.000 O
ATOM     11  HD  BGC B   1      24.060  18.600  54.3520  0.00  0.00     0.000 HD
ATOM     11   O  BGC B   1      23.377  19.554  51.2310  0.00  0.00     0.000 O
ATOM     13  HD  BGC B   1      23.622  18.774  51.5170  0.00  0.00     0.000 HD
ATOM     13   C  BGC B   1      22.664  22.186  50.1020  0.00  0.00     0.000 C
ATOM     14   O  BGC B   1      21.264  22.134  50.3570  0.00  0.00     0.000 O
ATOM     16  HD  BGC B   1      21.509  21.353  50.6430  0.00  0.00     0.000 HD
ENDROOT
BRANCH 1 16
ATOM     16  O4  BGC B   2      23.803  24.122  54.1770  0.00  0.00     0.000 O
BRANCH 16 20
ATOM     17  C1  BGC B   2      24.644  28.030  54.9240  0.00  0.00     0.000 C
ATOM     18  C2  BGC B   2      23.876  27.806  53.6300  0.00  0.00     0.000 C
ATOM     19  C3  BGC B   2      23.309  26.388  53.6410  0.00  0.00     0.000 C
ATOM     20  C4  BGC B   2      24.411  25.380  53.8940  0.00  0.00     0.000 C
ATOM     21  C5  BGC B   2      25.276  25.752  55.0990  0.00  0.00     0.000 C
ATOM     22  O5  BGC B   2      25.741  27.097  54.9290  0.00  0.00     0.000 O
ATOM     23   O  BGC B   2      22.792  28.745  53.5310  0.00  0.00     0.000 O
ATOM     25  HD  BGC B   2      22.837  27.906  53.7390  0.00  0.00     0.000 HD
ATOM     25   O  BGC B   2      22.665  26.115  52.4020  0.00  0.00     0.000 O
ATOM     27  HD  BGC B   2      22.710  25.275  52.6100  0.00  0.00     0.000 HD
ATOM     27   C  BGC B   2      26.498  24.855  55.2520  0.00  0.00     0.000 C
ATOM     28   O  BGC B   2      27.324  24.827  54.0990  0.00  0.00     0.000 O
ATOM     30  HD  BGC B   2      27.369  23.987  54.3080  0.00  0.00     0.000 HD
BRANCH 17 30
ATOM     30  O4  BGC B   3      25.246  29.307  54.8280  0.00  0.00     0.000 O
BRANCH 30 34
ATOM     31  C1  BGC B   3      26.359  32.451  57.2360  0.00  0.00     0.000 C
ATOM     32  C2  BGC B   3      27.233  31.205  57.3750  0.00  0.00     0.000 C
ATOM     33  C3  BGC B   3      26.983  30.295  56.1860  0.00  0.00     0.000 C
ATOM     34  C4  BGC B   3      25.493  29.973  56.0700  0.00  0.00     0.000 C
ATOM     35  C5  BGC B   3      24.674  31.252  56.0820  0.00  0.00     0.000 C
ATOM     36  O5  BGC B   3      25.007  32.020  57.2430  0.00  0.00     0.000 O
ATOM     37   O  BGC B   3      28.607  31.585  57.3720  0.00  0.00     0.000 O
ATOM     39  HD  BGC B   3      28.815  30.774  57.5930  0.00  0.00     0.000 HD
ATOM     39   O  BGC B   3      27.739  29.107  56.3630  0.00  0.00     0.000 O
ATOM     41  HD  BGC B   3      27.947  28.295  56.5830  0.00  0.00     0.000 HD
ATOM     41   C  BGC B   3      23.167  31.023  56.0620  0.00  0.00     0.000 C
ATOM     42   O  BGC B   3      22.781  30.235  57.1630  0.00  0.00     0.000 O
ATOM     44  HD  BGC B   3      22.989  29.423  57.3840  0.00  0.00     0.000 HD
BRANCH 31 44
ATOM     44  O4  BGC B   4      26.539  33.217  58.4000  0.00  0.00     0.000 O
BRANCH 44 48
ATOM     45  C1  BGC B   4      26.573  37.116  59.6650  0.00  0.00     0.000 C
ATOM     46  C2  BGC B   4      25.193  36.563  59.3390  0.00  0.00     0.000 C
ATOM     47  C3  BGC B   4      25.257  35.057  59.2740  0.00  0.00     0.000 C
ATOM     48  C4  BGC B   4      26.348  34.613  58.2940  0.00  0.00     0.000 C
ATOM     49  C5  BGC B   4      27.682  35.292  58.6290  0.00  0.00     0.000 C
ATOM     50  O5  BGC B   4      27.506  36.716  58.6590  0.00  0.00     0.000 O
ATOM     51   O  BGC B   4      24.254  36.950  60.3600  0.00  0.00     0.000 O
ATOM     53  HD  BGC B   4      24.388  36.130  60.6020  0.00  0.00     0.000 HD
ATOM     53   O  BGC B   4      23.984  34.559  58.8390  0.00  0.00     0.000 O
ATOM     55  HD  BGC B   4      24.118  33.738  59.0810  0.00  0.00     0.000 HD
ATOM     55   C  BGC B   4      28.798  35.004  57.6410  0.00  0.00     0.000 C
ATOM     56   O  BGC B   4      28.332  35.366  56.3400  0.00  0.00     0.000 O
ATOM     58  HD  BGC B   4      28.467  34.546  56.5810  0.00  0.00     0.000 HD
BRANCH 45 58
ATOM     58  O4  BGC B   5      26.489  38.526  59.4550  0.00  0.00     0.000 O
BRANCH 58 62
ATOM     59  C1  BGC B   5      27.400  42.131  61.2770  0.00  0.00     0.000 C
ATOM     60  C2  BGC B   5      28.568  41.418  60.6270  0.00  0.00     0.000 C
ATOM     61  C3  BGC B   5      28.074  40.361  59.6570  0.00  0.00     0.000 C
ATOM     62  C4  BGC B   5      27.121  39.419  60.3750  0.00  0.00     0.000 C
ATOM     63  C5  BGC B   5      26.007  40.209  61.0780  0.00  0.00     0.000 C
ATOM     64  O5  BGC B   5      26.601  41.158  61.9570  0.00  0.00     0.000 O
ATOM     65   O  BGC B   5      25.920  38.655  62.8320  0.00  0.00     0.000 O
ATOM     67  HD  BGC B   5      26.124  37.835  63.0200  0.00  0.00     0.000 HD
ATOM     67   O  BGC B   5      25.920  38.655  62.8320  0.00  0.00     0.000 O
ATOM     69  HD  BGC B   5      26.124  37.835  63.0200  0.00  0.00     0.000 HD
ENDBRANCH 58 62
ENDBRANCH 45 58
ENDBRANCH 44 48
ENDBRANCH 31 44
ENDBRANCH 30 34
ENDBRANCH 17 30
ENDBRANCH 16 20
ENDBRANCH 1 16
TORSDOF 8
ENDMDL
MODEL 59
REMARK VINA RESULT:      -0.2     35.888     44.256
ROOT
ATOM      1  C1  BGC B   1      45.884  15.048  17.1960  0.00  0.00     0.000 C
ATOM      2  C2  BGC B   1      46.695  13.757  17.3110  0.00  0.00     0.000 C
ATOM      3  C3  BGC B   1      45.914  12.598  16.7220  0.00  0.00     0.000 C
ATOM      4  C4  BGC B   1      44.517  12.527  17.3250  0.00  0.00     0.000 C
ATOM      5  C5  BGC B   1      43.834  13.872  17.1200  0.00  0.00     0.000 C
ATOM      6  O5  BGC B   1      44.618  14.862  17.8110  0.00  0.00     0.000 O
ATOM      7   O  BGC B   1      47.930  13.909  16.5930  0.00  0.00     0.000 O
ATOM      9  HD  BGC B   1      48.298  13.195  16.2700  0.00  0.00     0.000 HD
ATOM      9   O  BGC B   1      46.635  11.386  16.9620  0.00  0.00     0.000 O
ATOM     11  HD  BGC B   1      47.003  10.672  16.6390  0.00  0.00     0.000 HD
ATOM     11   O  BGC B   1      43.776  11.510  16.6870  0.00  0.00     0.000 O
ATOM     13  HD  BGC B   1      44.145  10.795  16.3640  0.00  0.00     0.000 HD
ATOM     13   C  BGC B   1      42.402  13.946  17.6290  0.00  0.00     0.000 C
ATOM     14   O  BGC B   1      42.296  13.590  19.0040  0.00  0.00     0.000 O
ATOM     16  HD  BGC B   1      42.664  12.875  18.6810  0.00  0.00     0.000 HD
ENDROOT
BRANCH 1 16
ATOM     16  O4  BGC B   2      46.554  16.012  18.0060  0.00  0.00     0.000 O
BRANCH 16 20
ATOM     17  C1  BGC B   2      47.364  19.991  18.2180  0.00  0.00     0.000 C
ATOM     18  C2  BGC B   2      45.920  19.643  18.5480  0.00  0.00     0.000 C
ATOM     19  C3  BGC B   2      45.828  18.138  18.7930  0.00  0.00     0.000 C
ATOM     20  C4  BGC B   2      46.401  17.374  17.6170  0.00  0.00     0.000 C
ATOM     21  C5  BGC B   2      47.779  17.890  17.2020  0.00  0.00     0.000 C
ATOM     22  O5  BGC B   2      47.693  19.305  16.9950  0.00  0.00     0.000 O
ATOM     23   O  BGC B   2      45.503  20.339  19.7340  0.00  0.00     0.000 O
ATOM     25  HD  BGC B   2      45.744  19.522  19.5750  0.00  0.00     0.000 HD
ATOM     25   O  BGC B   2      44.472  17.765  19.0110  0.00  0.00     0.000 O
ATOM     27  HD  BGC B   2      44.714  16.949  18.8520  0.00  0.00     0.000 HD
ATOM     27   C  BGC B   2      48.284  17.262  15.9090  0.00  0.00     0.000 C
ATOM     28   O  BGC B   2      47.395  17.431  14.8170  0.00  0.00     0.000 O
ATOM     30  HD  BGC B   2      47.636  16.615  14.6580  0.00  0.00     0.000 HD
BRANCH 17 30
ATOM     30  O4  BGC B   3      47.388  21.367  17.8880  0.00  0.00     0.000 O
BRANCH 30 34
ATOM     31  C1  BGC B   3      49.898  24.618  18.1310  0.00  0.00     0.000 C
ATOM     32  C2  BGC B   3      50.301  23.582  17.0820  0.00  0.00     0.000 C
ATOM     33  C3  BGC B   3      49.118  22.667  16.8150  0.00  0.00     0.000 C
ATOM     34  C4  BGC B   3      48.629  22.041  18.1200  0.00  0.00     0.000 C
ATOM     35  C5  BGC B   3      48.384  23.117  19.1630  0.00  0.00     0.000 C
ATOM     36  O5  BGC B   3      49.565  23.911  19.3150  0.00  0.00     0.000 O
ATOM     37   O  BGC B   3      50.644  24.243  15.8660  0.00  0.00     0.000 O
ATOM     39  HD  BGC B   3      50.938  23.490  15.5580  0.00  0.00     0.000 HD
ATOM     39   O  BGC B   3      49.525  21.662  15.8980  0.00  0.00     0.000 O
ATOM     41  HD  BGC B   3      49.819  20.908  15.5900  0.00  0.00     0.000 HD
ATOM     41   C  BGC B   3      47.979  22.575  20.5290  0.00  0.00     0.000 C
ATOM     42   O  BGC B   3      48.967  21.697  21.0150  0.00  0.00     0.000 O
ATOM     44  HD  BGC B   3      49.261  20.943  20.7070  0.00  0.00     0.000 HD
BRANCH 31 44
ATOM     44  O4  BGC B   4      51.042  25.377  18.4260  0.00  0.00     0.000 O
BRANCH 44 48
ATOM     45  C1  BGC B   4      52.140  29.165  19.5440  0.00  0.00     0.000 C
ATOM     46  C2  BGC B   4      51.500  28.335  20.6470  0.00  0.00     0.000 C
ATOM     47  C3  BGC B   4      51.505  26.879  20.2490  0.00  0.00     0.000 C
ATOM     48  C4  BGC B   4      50.844  26.701  18.8790  0.00  0.00     0.000 C
ATOM     49  C5  BGC B   4      51.476  27.644  17.8480  0.00  0.00     0.000 C
ATOM     50  O5  BGC B   4      51.413  28.996  18.3250  0.00  0.00     0.000 O
ATOM     51   O  BGC B   4      52.241  28.489  21.8730  0.00  0.00     0.000 O
ATOM     53  HD  BGC B   4      52.536  27.712  21.6310  0.00  0.00     0.000 HD
ATOM     53   O  BGC B   4      50.784  26.127  21.2360  0.00  0.00     0.000 O
ATOM     55  HD  BGC B   4      51.080  25.350  20.9940  0.00  0.00     0.000 HD
ATOM     55   C  BGC B   4      50.808  27.623  16.4850  0.00  0.00     0.000 C
ATOM     56   O  BGC B   4      49.421  27.904  16.6760  0.00  0.00     0.000 O
ATOM     58  HD  BGC B   4      49.716  27.126  16.4340  0.00  0.00     0.000 HD
BRANCH 45 58
ATOM     58  O4  BGC B   5      51.867  30.527  19.8710  0.00  0.00     0.000 O
BRANCH 58 62
ATOM     59  C1  BGC B   5      53.726  34.211  20.2180  0.00  0.00     0.000 C
ATOM     60  C2  BGC B   5      53.413  33.772  18.8020  0.00  0.00     0.000 C
ATOM     61  C3  BGC B   5      52.390  32.652  18.8060  0.00  0.00     0.000 C
ATOM     62  C4  BGC B   5      52.882  31.517  19.6900  0.00  0.00     0.000 C
ATOM     63  C5  BGC B   5      53.258  32.042  21.0840  0.00  0.00     0.000 C
ATOM     64  O5  BGC B   5      54.222  33.080  20.9400  0.00  0.00     0.000 O
ATOM     65   O  BGC B   5      54.990  30.474  21.2810  0.00  0.00     0.000 O
ATOM     67  HD  BGC B   5      55.253  29.712  20.9640  0.00  0.00     0.000 HD
ATOM     67   O  BGC B   5      54.990  30.474  21.2810  0.00  0.00     0.000 O
ATOM     69  HD  BGC B   5      55.253  29.712  20.9640  0.00  0.00     0.000 HD
ENDBRANCH 58 62
ENDBRANCH 45 58
ENDBRANCH 44 48
ENDBRANCH 31 44
ENDBRANCH 30 34
ENDBRANCH 17 30
ENDBRANCH 16 20
ENDBRANCH 1 16
TORSDOF 8
ENDMDL
MODEL 60
REMARK VINA RESULT:      -0.2     70.712     81.560
ROOT
ATOM      1  C1  BGC B   1      70.910  68.617  12.7930  0.00  0.00     0.000 C
ATOM      2  C2  BGC B   1      69.927  69.674  13.2920  0.00  0.00     0.000 C
ATOM      3  C3  BGC B   1      70.447  71.062  12.9690  0.00  0.00     0.000 C
ATOM      4  C4  BGC B   1      71.875  71.234  13.4710  0.00  0.00     0.000 C
ATOM      5  C5  BGC B   1      72.730  70.123  12.8790  0.00  0.00     0.000 C
ATOM      6  O5  BGC B   1      72.194  68.872  13.3460  0.00  0.00     0.000 O
ATOM      7   O  BGC B   1      68.657  69.482  12.6470  0.00  0.00     0.000 O
ATOM      9  HD  BGC B   1      68.149  70.175  12.5450  0.00  0.00     0.000 HD
ATOM      9   O  BGC B   1      69.577  72.031  13.5630  0.00  0.00     0.000 O
ATOM     11  HD  BGC B   1      69.069  72.724  13.4610  0.00  0.00     0.000 HD
ATOM     11   O  BGC B   1      72.371  72.491  13.0670  0.00  0.00     0.000 O
ATOM     13  HD  BGC B   1      71.862  73.184  12.9650  0.00  0.00     0.000 HD
ATOM     13   C  BGC B   1      74.205  70.186  13.2510  0.00  0.00     0.000 C
ATOM     14   O  BGC B   1      74.408  70.212  14.6610  0.00  0.00     0.000 O
ATOM     16  HD  BGC B   1      73.899  70.905  14.5590  0.00  0.00     0.000 HD
ENDROOT
BRANCH 1 16
ATOM     16  O4  BGC B   2      70.495  67.381  13.3720  0.00  0.00     0.000 O
BRANCH 16 20
ATOM     17  C1  BGC B   2      70.347  63.391  12.6010  0.00  0.00     0.000 C
ATOM     18  C2  BGC B   2      71.739  63.895  12.9500  0.00  0.00     0.000 C
ATOM     19  C3  BGC B   2      71.611  65.287  13.5640  0.00  0.00     0.000 C
ATOM     20  C4  BGC B   2      70.829  66.202  12.6440  0.00  0.00     0.000 C
ATOM     21  C5  BGC B   2      69.521  65.571  12.1680  0.00  0.00     0.000 C
ATOM     22  O5  BGC B   2      69.813  64.285  11.6060  0.00  0.00     0.000 O
ATOM     23   O  BGC B   2      72.358  63.016  13.9030  0.00  0.00     0.000 O
ATOM     25  HD  BGC B   2      71.978  63.791  13.9660  0.00  0.00     0.000 HD
ATOM     25   O  BGC B   2      72.904  65.827  13.8150  0.00  0.00     0.000 O
ATOM     27  HD  BGC B   2      72.523  66.603  13.8780  0.00  0.00     0.000 HD
ATOM     27   C  BGC B   2      68.818  66.396  11.0980  0.00  0.00     0.000 C
ATOM     28   O  BGC B   2      69.629  66.655   9.9640  0.00  0.00     0.000 O
ATOM     30  HD  BGC B   2      69.249  67.430  10.0270  0.00  0.00     0.000 HD
BRANCH 17 30
ATOM     30  O4  BGC B   3      70.514  62.154  11.9340  0.00  0.00     0.000 O
BRANCH 30 34
ATOM     31  C1  BGC B   3      68.572  58.564  11.4260  0.00  0.00     0.000 C
ATOM     32  C2  BGC B   3      67.922  59.744  10.7050  0.00  0.00     0.000 C
ATOM     33  C3  BGC B   3      68.920  60.886  10.6350  0.00  0.00     0.000 C
ATOM     34  C4  BGC B   3      69.419  61.239  12.0360  0.00  0.00     0.000 C
ATOM     35  C5  BGC B   3      69.918  59.995  12.7480  0.00  0.00     0.000 C
ATOM     36  O5  BGC B   3      68.892  58.996  12.7380  0.00  0.00     0.000 O
ATOM     37   O  BGC B   3      67.582  59.360   9.3740  0.00  0.00     0.000 O
ATOM     39  HD  BGC B   3      67.148  60.104   9.2880  0.00  0.00     0.000 HD
ATOM     39   O  BGC B   3      68.283  62.004  10.0330  0.00  0.00     0.000 O
ATOM     41  HD  BGC B   3      67.850  62.748   9.9470  0.00  0.00     0.000 HD
ATOM     41   C  BGC B   3      70.351  60.238  14.1890  0.00  0.00     0.000 C
ATOM     42   O  BGC B   3      69.285  60.780  14.9320  0.00  0.00     0.000 O
ATOM     44  HD  BGC B   3      68.852  61.525  14.8450  0.00  0.00     0.000 HD
BRANCH 31 44
ATOM     44  O4  BGC B   4      67.590  57.568  11.5620  0.00  0.00     0.000 O
BRANCH 44 48
ATOM     45  C1  BGC B   4      67.208  53.491  11.7470  0.00  0.00     0.000 C
ATOM     46  C2  BGC B   4      67.759  54.138  13.0100  0.00  0.00     0.000 C
ATOM     47  C3  BGC B   4      67.488  55.622  12.9740  0.00  0.00     0.000 C
ATOM     48  C4  BGC B   4      68.033  56.231  11.6790  0.00  0.00     0.000 C
ATOM     49  C5  BGC B   4      67.511  55.461  10.4600  0.00  0.00     0.000 C
ATOM     50  O5  BGC B   4      67.827  54.067  10.5960  0.00  0.00     0.000 O
ATOM     51   O  BGC B   4      67.124  53.571  14.1720  0.00  0.00     0.000 O
ATOM     53  HD  BGC B   4      66.689  54.319  14.1290  0.00  0.00     0.000 HD
ATOM     53   O  BGC B   4      68.126  56.235  14.1040  0.00  0.00     0.000 O
ATOM     55  HD  BGC B   4      67.691  56.983  14.0610  0.00  0.00     0.000 HD
ATOM     55   C  BGC B   4      68.090  55.919   9.1330  0.00  0.00     0.000 C
ATOM     56   O  BGC B   4      69.513  55.851   9.2320  0.00  0.00     0.000 O
ATOM     58  HD  BGC B   4      69.078  56.598   9.1890  0.00  0.00     0.000 HD
BRANCH 45 58
ATOM     58  O4  BGC B   5      67.723  52.160  11.7320  0.00  0.00     0.000 O
BRANCH 58 62
ATOM     59  C1  BGC B   5      66.516  48.229  11.2400  0.00  0.00     0.000 C
ATOM     60  C2  BGC B   5      66.692  49.021   9.9600  0.00  0.00     0.000 C
ATOM     61  C3  BGC B   5      67.515  50.270  10.2140  0.00  0.00     0.000 C
ATOM     62  C4  BGC B   5      66.879  51.077  11.3350  0.00  0.00     0.000 C
ATOM     63  C5  BGC B   5      66.655  50.198  12.5740  0.00  0.00     0.000 C
ATOM     64  O5  BGC B   5      65.871  49.069  12.2030  0.00  0.00     0.000 O
ATOM     65   O  BGC B   5      64.697  51.362  13.1300  0.00  0.00     0.000 O
ATOM     67  HD  BGC B   5      64.299  52.119  12.9950  0.00  0.00     0.000 HD
ATOM     67   O  BGC B   5      64.697  51.362  13.1300  0.00  0.00     0.000 O
ATOM     69  HD  BGC B   5      64.299  52.119  12.9950  0.00  0.00     0.000 HD
ENDBRANCH 58 62
ENDBRANCH 45 58
ENDBRANCH 44 48
ENDBRANCH 31 44
ENDBRANCH 30 34
ENDBRANCH 17 30
ENDBRANCH 16 20
ENDBRANCH 1 16
TORSDOF 8
ENDMDL
MODEL 61
REMARK VINA RESULT:      -0.2     66.179     68.819
ROOT
ATOM      1  C1  BGC B   1      15.854  43.943  59.5060  0.00  0.00     0.000 C
ATOM      2  C2  BGC B   1      14.614  44.712  59.0530  0.00  0.00     0.000 C
ATOM      3  C3  BGC B   1      13.396  44.235  59.8200  0.00  0.00     0.000 C
ATOM      4  C4  BGC B   1      13.268  42.719  59.7400  0.00  0.00     0.000 C
ATOM      5  C5  BGC B   1      14.566  42.099  60.2350  0.00  0.00     0.000 C
ATOM      6  O5  BGC B   1      15.619  42.549  59.3620  0.00  0.00     0.000 O
ATOM      7   O  BGC B   1      14.810  46.114  59.3020  0.00  0.00     0.000 O
ATOM      9  HD  BGC B   1      14.107  46.601  59.4420  0.00  0.00     0.000 HD
ATOM      9   O  BGC B   1      12.233  44.874  59.2860  0.00  0.00     0.000 O
ATOM     11  HD  BGC B   1      11.530  45.360  59.4250  0.00  0.00     0.000 HD
ATOM     11   O  BGC B   1      12.192  42.290  60.5460  0.00  0.00     0.000 O
ATOM     13  HD  BGC B   1      11.489  42.777  60.6850  0.00  0.00     0.000 HD
ATOM     13   C  BGC B   1      14.578  40.577  60.2610  0.00  0.00     0.000 C
ATOM     14   O  BGC B   1      14.260  40.010  58.9940  0.00  0.00     0.000 O
ATOM     16  HD  BGC B   1      13.557  40.497  59.1330  0.00  0.00     0.000 HD
ENDROOT
BRANCH 1 16
ATOM     16  O4  BGC B   2      16.878  44.247  58.5610  0.00  0.00     0.000 O
BRANCH 16 20
ATOM     17  C1  BGC B   2      20.902  44.758  58.2760  0.00  0.00     0.000 C
ATOM     18  C2  BGC B   2      20.479  43.304  58.4190  0.00  0.00     0.000 C
ATOM     19  C3  BGC B   2      18.979  43.206  58.1500  0.00  0.00     0.000 C
ATOM     20  C4  BGC B   2      18.218  44.167  59.0400  0.00  0.00     0.000 C
ATOM     21  C5  BGC B   2      18.801  45.580  59.0050  0.00  0.00     0.000 C
ATOM     22  O5  BGC B   2      20.203  45.501  59.2920  0.00  0.00     0.000 O
ATOM     23   O  BGC B   2      21.182  42.489  57.4670  0.00  0.00     0.000 O
ATOM     25  HD  BGC B   2      20.377  42.806  57.5010  0.00  0.00     0.000 HD
ATOM     25   O  BGC B   2      18.534  41.873  58.3700  0.00  0.00     0.000 O
ATOM     27  HD  BGC B   2      17.729  42.190  58.4050  0.00  0.00     0.000 HD
ATOM     27   C  BGC B   2      18.169  46.509  60.0340  0.00  0.00     0.000 C
ATOM     28   O  BGC B   2      18.256  46.021  61.3620  0.00  0.00     0.000 O
ATOM     30  HD  BGC B   2      17.451  46.338  61.3970  0.00  0.00     0.000 HD
BRANCH 17 30
ATOM     30  O4  BGC B   3      22.267  44.826  58.6420  0.00  0.00     0.000 O
BRANCH 30 34
ATOM     31  C1  BGC B   3      25.678  46.937  57.7280  0.00  0.00     0.000 C
ATOM     32  C2  BGC B   3      24.597  47.753  58.4350  0.00  0.00     0.000 C
ATOM     33  C3  BGC B   3      23.593  46.801  59.0620  0.00  0.00     0.000 C
ATOM     34  C4  BGC B   3      23.033  45.852  58.0030  0.00  0.00     0.000 C
ATOM     35  C5  BGC B   3      24.163  45.182  57.2420  0.00  0.00     0.000 C
ATOM     36  O5  BGC B   3      25.038  46.183  56.7100  0.00  0.00     0.000 O
ATOM     37   O  BGC B   3      25.190  48.530  59.4730  0.00  0.00     0.000 O
ATOM     39  HD  BGC B   3      24.436  48.945  59.5710  0.00  0.00     0.000 HD
ATOM     39   O  BGC B   3      22.553  47.567  59.6500  0.00  0.00     0.000 O
ATOM     41  HD  BGC B   3      21.798  47.981  59.7480  0.00  0.00     0.000 HD
ATOM     41   C  BGC B   3      23.696  44.285  56.1020  0.00  0.00     0.000 C
ATOM     42   O  BGC B   3      22.919  45.024  55.1890  0.00  0.00     0.000 O
ATOM     44  HD  BGC B   3      22.165  45.438  55.2880  0.00  0.00     0.000 HD
BRANCH 31 44
ATOM     44  O4  BGC B   4      26.526  47.847  57.0770  0.00  0.00     0.000 O
BRANCH 44 48
ATOM     45  C1  BGC B   4      30.453  48.298  55.9890  0.00  0.00     0.000 C
ATOM     46  C2  BGC B   4      29.653  47.347  55.1100  0.00  0.00     0.000 C
ATOM     47  C3  BGC B   4      28.179  47.561  55.3500  0.00  0.00     0.000 C
ATOM     48  C4  BGC B   4      27.859  47.440  56.8430  0.00  0.00     0.000 C
ATOM     49  C5  BGC B   4      28.776  48.353  57.6660  0.00  0.00     0.000 C
ATOM     50  O5  BGC B   4      30.148  48.061  57.3650  0.00  0.00     0.000 O
ATOM     51   O  BGC B   4      29.945  47.595  53.7220  0.00  0.00     0.000 O
ATOM     53  HD  BGC B   4      29.177  47.993  53.7740  0.00  0.00     0.000 HD
ATOM     53   O  BGC B   4      27.443  46.572  54.6160  0.00  0.00     0.000 O
ATOM     55  HD  BGC B   4      26.676  46.970  54.6680  0.00  0.00     0.000 HD
ATOM     55   C  BGC B   4      28.613  48.216  59.1690  0.00  0.00     0.000 C
ATOM     56   O  BGC B   4      28.801  46.840  59.5040  0.00  0.00     0.000 O
ATOM     58  HD  BGC B   4      28.033  47.238  59.5560  0.00  0.00     0.000 HD
BRANCH 45 58
ATOM     58  O4  BGC B   5      31.810  47.864  55.9010  0.00  0.00     0.000 O
BRANCH 58 62
ATOM     59  C1  BGC B   5      35.628  49.308  55.2060  0.00  0.00     0.000 C
ATOM     60  C2  BGC B   5      35.098  49.522  56.6090  0.00  0.00     0.000 C
ATOM     61  C3  BGC B   5      33.910  48.616  56.8740  0.00  0.00     0.000 C
ATOM     62  C4  BGC B   5      32.859  48.830  55.7970  0.00  0.00     0.000 C
ATOM     63  C5  BGC B   5      33.477  48.678  54.3990  0.00  0.00     0.000 C
ATOM     64  O5  BGC B   5      34.572  49.580  54.2800  0.00  0.00     0.000 O
ATOM     65   O  BGC B   5      32.047  50.312  53.5140  0.00  0.00     0.000 O
ATOM     67  HD  BGC B   5      31.290  50.704  53.6680  0.00  0.00     0.000 HD
ATOM     67   O  BGC B   5      32.047  50.312  53.5140  0.00  0.00     0.000 O
ATOM     69  HD  BGC B   5      31.290  50.704  53.6680  0.00  0.00     0.000 HD
ENDBRANCH 58 62
ENDBRANCH 45 58
ENDBRANCH 44 48
ENDBRANCH 31 44
ENDBRANCH 30 34
ENDBRANCH 17 30
ENDBRANCH 16 20
ENDBRANCH 1 16
TORSDOF 8
ENDMDL
MODEL 62
REMARK VINA RESULT:      -0.2     82.241     87.037
ROOT
ATOM      1  C1  BGC B   1      52.256  50.045  67.9250  0.00  0.00     0.000 C
ATOM      2  C2  BGC B   1      52.893  48.827  67.2600  0.00  0.00     0.000 C
ATOM      3  C3  BGC B   1      54.340  48.694  67.6940  0.00  0.00     0.000 C
ATOM      4  C4  BGC B   1      55.091  50.002  67.4770  0.00  0.00     0.000 C
ATOM      5  C5  BGC B   1      54.348  51.111  68.2080  0.00  0.00     0.000 C
ATOM      6  O5  BGC B   1      53.031  51.199  67.6320  0.00  0.00     0.000 O
ATOM      7   O  BGC B   1      52.173  47.645  67.6470  0.00  0.00     0.000 O
ATOM      9  HD  BGC B   1      52.606  46.895  67.6580  0.00  0.00     0.000 HD
ATOM      9   O  BGC B   1      54.948  47.629  66.9570  0.00  0.00     0.000 O
ATOM     11  HD  BGC B   1      55.381  46.879  66.9680  0.00  0.00     0.000 HD
ATOM     11   O  BGC B   1      56.402  49.886  67.9850  0.00  0.00     0.000 O
ATOM     13  HD  BGC B   1      56.835  49.136  67.9960  0.00  0.00     0.000 HD
ATOM     13   C  BGC B   1      55.004  52.481  68.1260  0.00  0.00     0.000 C
ATOM     14   O  BGC B   1      55.228  52.896  66.7820  0.00  0.00     0.000 O
ATOM     16  HD  BGC B   1      55.661  52.146  66.7930  0.00  0.00     0.000 HD
ENDROOT
BRANCH 1 16
ATOM     16  O4  BGC B   2      51.011  50.256  67.2620  0.00  0.00     0.000 O
BRANCH 16 20
ATOM     17  C1  BGC B   2      47.220  51.562  67.9380  0.00  0.00     0.000 C
ATOM     18  C2  BGC B   2      48.250  52.680  67.8780  0.00  0.00     0.000 C
ATOM     19  C3  BGC B   2      49.534  52.124  67.2680  0.00  0.00     0.000 C
ATOM     20  C4  BGC B   2      49.992  50.894  68.0260  0.00  0.00     0.000 C
ATOM     21  C5  BGC B   2      48.865  49.880  68.2260  0.00  0.00     0.000 C
ATOM     22  O5  BGC B   2      47.746  50.552  68.8180  0.00  0.00     0.000 O
ATOM     23   O  BGC B   2      47.766  53.754  67.0550  0.00  0.00     0.000 O
ATOM     25  HD  BGC B   2      48.337  53.117  66.9280  0.00  0.00     0.000 HD
ATOM     25   O  BGC B   2      50.550  53.120  67.2850  0.00  0.00     0.000 O
ATOM     27  HD  BGC B   2      51.122  52.482  67.1580  0.00  0.00     0.000 HD
ATOM     27   C  BGC B   2      49.257  48.731  69.1460  0.00  0.00     0.000 C
ATOM     28   O  BGC B   2      49.705  49.159  70.4220  0.00  0.00     0.000 O
ATOM     30  HD  BGC B   2      50.277  48.521  70.2950  0.00  0.00     0.000 HD
BRANCH 17 30
ATOM     30  O4  BGC B   3      46.088  52.084  68.6090  0.00  0.00     0.000 O
BRANCH 30 34
ATOM     31  C1  BGC B   3      41.996  51.670  68.6690  0.00  0.00     0.000 C
ATOM     32  C2  BGC B   3      42.762  50.488  69.2620  0.00  0.00     0.000 C
ATOM     33  C3  BGC B   3      44.190  50.920  69.5460  0.00  0.00     0.000 C
ATOM     34  C4  BGC B   3      44.834  51.479  68.2780  0.00  0.00     0.000 C
ATOM     35  C5  BGC B   3      43.951  52.550  67.6630  0.00  0.00     0.000 C
ATOM     36  O5  BGC B   3      42.637  52.021  67.4540  0.00  0.00     0.000 O
ATOM     37   O  BGC B   3      42.156  50.096  70.4920  0.00  0.00     0.000 O
ATOM     39  HD  BGC B   3      42.664  49.395  70.5000  0.00  0.00     0.000 HD
ATOM     39   O  BGC B   3      44.914  49.796  70.0230  0.00  0.00     0.000 O
ATOM     41  HD  BGC B   3      45.422  49.094  70.0300  0.00  0.00     0.000 HD
ATOM     41   C  BGC B   3      44.473  53.101  66.3410  0.00  0.00     0.000 C
ATOM     42   O  BGC B   3      44.627  52.058  65.4080  0.00  0.00     0.000 O
ATOM     44  HD  BGC B   3      45.135  51.356  65.4160  0.00  0.00     0.000 HD
BRANCH 31 44
ATOM     44  O4  BGC B   4      40.715  51.205  68.3260  0.00  0.00     0.000 O
BRANCH 44 48
ATOM     45  C1  BGC B   4      36.835  52.497  68.0520  0.00  0.00     0.000 C
ATOM     46  C2  BGC B   4      37.755  53.003  66.9500  0.00  0.00     0.000 C
ATOM     47  C3  BGC B   4      39.014  52.172  66.9240  0.00  0.00     0.000 C
ATOM     48  C4  BGC B   4      39.664  52.149  68.3110  0.00  0.00     0.000 C
ATOM     49  C5  BGC B   4      38.645  51.728  69.3770  0.00  0.00     0.000 C
ATOM     50  O5  BGC B   4      37.496  52.585  69.3150  0.00  0.00     0.000 O
ATOM     51   O  BGC B   4      37.098  52.900  65.6720  0.00  0.00     0.000 O
ATOM     53  HD  BGC B   4      37.616  52.209  65.6160  0.00  0.00     0.000 HD
ATOM     53   O  BGC B   4      39.924  52.740  65.9720  0.00  0.00     0.000 O
ATOM     55  HD  BGC B   4      40.443  52.049  65.9160  0.00  0.00     0.000 HD
ATOM     55   C  BGC B   4      39.167  51.788  70.8020  0.00  0.00     0.000 C
ATOM     56   O  BGC B   4      39.655  53.111  71.0320  0.00  0.00     0.000 O
ATOM     58  HD  BGC B   4      40.173  52.419  70.9750  0.00  0.00     0.000 HD
BRANCH 45 58
ATOM     58  O4  BGC B   5      35.805  53.476  68.1810  0.00  0.00     0.000 O
BRANCH 58 62
ATOM     59  C1  BGC B   5      31.685  53.833  68.3960  0.00  0.00     0.000 C
ATOM     60  C2  BGC B   5      32.368  53.403  69.6790  0.00  0.00     0.000 C
ATOM     61  C3  BGC B   5      33.853  53.703  69.6180  0.00  0.00     0.000 C
ATOM     62  C4  BGC B   5      34.451  53.061  68.3760  0.00  0.00     0.000 C
ATOM     63  C5  BGC B   5      33.665  53.474  67.1220  0.00  0.00     0.000 C
ATOM     64  O5  BGC B   5      32.295  53.135  67.3060  0.00  0.00     0.000 O
ATOM     65   O  BGC B   5      34.036  51.387  66.1200  0.00  0.00     0.000 O
ATOM     67  HD  BGC B   5      34.568  50.705  66.1550  0.00  0.00     0.000 HD
ATOM     67   O  BGC B   5      34.036  51.387  66.1200  0.00  0.00     0.000 O
ATOM     69  HD  BGC B   5      34.568  50.705  66.1550  0.00  0.00     0.000 HD
ENDBRANCH 58 62
ENDBRANCH 45 58
ENDBRANCH 44 48
ENDBRANCH 31 44
ENDBRANCH 30 34
ENDBRANCH 17 30
ENDBRANCH 16 20
ENDBRANCH 1 16
TORSDOF 8
ENDMDL
MODEL 63
REMARK VINA RESULT:      -0.2     85.296     88.757
ROOT
ATOM      1  C1  BGC B   1      53.639  49.544  68.3710  0.00  0.00     0.000 C
ATOM      2  C2  BGC B   1      54.057  48.289  67.6070  0.00  0.00     0.000 C
ATOM      3  C3  BGC B   1      55.499  47.943  67.9230  0.00  0.00     0.000 C
ATOM      4  C4  BGC B   1      56.403  49.149  67.7040  0.00  0.00     0.000 C
ATOM      5  C5  BGC B   1      55.871  50.307  68.5370  0.00  0.00     0.000 C
ATOM      6  O5  BGC B   1      54.542  50.599  68.0680  0.00  0.00     0.000 O
ATOM      7   O  BGC B   1      53.211  47.194  67.9980  0.00  0.00     0.000 O
ATOM      9  HD  BGC B   1      53.538  46.394  67.9440  0.00  0.00     0.000 HD
ATOM      9   O  BGC B   1      55.903  46.847  67.0960  0.00  0.00     0.000 O
ATOM     11  HD  BGC B   1      56.230  46.047  67.0420  0.00  0.00     0.000 HD
ATOM     11   O  BGC B   1      57.719  48.834  68.1040  0.00  0.00     0.000 O
ATOM     13  HD  BGC B   1      58.046  48.034  68.0500  0.00  0.00     0.000 HD
ATOM     13   C  BGC B   1      56.701  51.581  68.4630  0.00  0.00     0.000 C
ATOM     14   O  BGC B   1      56.884  52.032  67.1250  0.00  0.00     0.000 O
ATOM     16  HD  BGC B   1      57.210  51.232  67.0710  0.00  0.00     0.000 HD
ENDROOT
BRANCH 1 16
ATOM     16  O4  BGC B   2      52.391  49.952  67.8150  0.00  0.00     0.000 O
BRANCH 16 20
ATOM     17  C1  BGC B   2      48.870  51.711  68.8360  0.00  0.00     0.000 C
ATOM     18  C2  BGC B   2      50.036  52.685  68.7450  0.00  0.00     0.000 C
ATOM     19  C3  BGC B   2      51.186  51.996  68.0140  0.00  0.00     0.000 C
ATOM     20  C4  BGC B   2      51.524  50.679  68.6820  0.00  0.00     0.000 C
ATOM     21  C5  BGC B   2      50.287  49.813  68.9250  0.00  0.00     0.000 C
ATOM     22  O5  BGC B   2      49.315  50.595  69.6300  0.00  0.00     0.000 O
ATOM     23   O  BGC B   2      49.645  53.855  68.0080  0.00  0.00     0.000 O
ATOM     25  HD  BGC B   2      50.114  53.155  67.8100  0.00  0.00     0.000 HD
ATOM     25   O  BGC B   2      52.326  52.846  67.9960  0.00  0.00     0.000 O
ATOM     27  HD  BGC B   2      52.796  52.146  67.7980  0.00  0.00     0.000 HD
ATOM     27   C  BGC B   2      50.583  48.576  69.7620  0.00  0.00     0.000 C
ATOM     28   O  BGC B   2      51.174  48.873  71.0160  0.00  0.00     0.000 O
ATOM     30  HD  BGC B   2      51.644  48.173  70.8180  0.00  0.00     0.000 HD
BRANCH 17 30
ATOM     30  O4  BGC B   3      47.870  52.342  69.6140  0.00  0.00     0.000 O
BRANCH 30 34
ATOM     31  C1  BGC B   3      43.774  52.471  69.9720  0.00  0.00     0.000 C
ATOM     32  C2  BGC B   3      44.412  51.168  70.4520  0.00  0.00     0.000 C
ATOM     33  C3  BGC B   3      45.902  51.392  70.6440  0.00  0.00     0.000 C
ATOM     34  C4  BGC B   3      46.525  51.926  69.3550  0.00  0.00     0.000 C
ATOM     35  C5  BGC B   3      45.754  53.136  68.8560  0.00  0.00     0.000 C
ATOM     36  O5  BGC B   3      44.369  52.797  68.7260  0.00  0.00     0.000 O
ATOM     37   O  BGC B   3      43.847  50.796  71.7080  0.00  0.00     0.000 O
ATOM     39  HD  BGC B   3      44.254  50.034  71.6460  0.00  0.00     0.000 HD
ATOM     39   O  BGC B   3      46.498  50.158  71.0150  0.00  0.00     0.000 O
ATOM     41  HD  BGC B   3      46.905  49.396  70.9540  0.00  0.00     0.000 HD
ATOM     41   C  BGC B   3      46.252  53.681  67.5230  0.00  0.00     0.000 C
ATOM     42   O  BGC B   3      46.197  52.678  66.5370  0.00  0.00     0.000 O
ATOM     44  HD  BGC B   3      46.604  51.916  66.4750  0.00  0.00     0.000 HD
BRANCH 31 44
ATOM     44  O4  BGC B   4      42.421  52.198  69.7090  0.00  0.00     0.000 O
BRANCH 44 48
ATOM     45  C1  BGC B   4      38.742  54.005  69.7890  0.00  0.00     0.000 C
ATOM     46  C2  BGC B   4      39.643  54.442  68.6420  0.00  0.00     0.000 C
ATOM     47  C3  BGC B   4      40.772  53.454  68.4850  0.00  0.00     0.000 C
ATOM     48  C4  BGC B   4      41.509  53.273  69.8150  0.00  0.00     0.000 C
ATOM     49  C5  BGC B   4      40.521  52.934  70.9380  0.00  0.00     0.000 C
ATOM     50  O5  BGC B   4      39.497  53.938  71.0000  0.00  0.00     0.000 O
ATOM     51   O  BGC B   4      38.889  54.494  67.4160  0.00  0.00     0.000 O
ATOM     53  HD  BGC B   4      39.304  53.744  67.2900  0.00  0.00     0.000 HD
ATOM     53   O  BGC B   4      41.682  53.946  67.4900  0.00  0.00     0.000 O
ATOM     55  HD  BGC B   4      42.096  53.196  67.3650  0.00  0.00     0.000 HD
ATOM     55   C  BGC B   4      41.145  52.850  72.3190  0.00  0.00     0.000 C
ATOM     56   O  BGC B   4      41.823  54.082  72.5670  0.00  0.00     0.000 O
ATOM     58  HD  BGC B   4      42.237  53.333  72.4410  0.00  0.00     0.000 HD
BRANCH 45 58
ATOM     58  O4  BGC B   5      37.867  55.104  70.0400  0.00  0.00     0.000 O
BRANCH 58 62
ATOM     59  C1  BGC B   5      33.859  55.991  70.5860  0.00  0.00     0.000 C
ATOM     60  C2  BGC B   5      34.566  55.407  71.7930  0.00  0.00     0.000 C
ATOM     61  C3  BGC B   5      36.070  55.511  71.6300  0.00  0.00     0.000 C
ATOM     62  C4  BGC B   5      36.486  54.862  70.3200  0.00  0.00     0.000 C
ATOM     63  C5  BGC B   5      35.677  55.440  69.1490  0.00  0.00     0.000 C
ATOM     64  O5  BGC B   5      34.290  55.277  69.4230  0.00  0.00     0.000 O
ATOM     65   O  BGC B   5      35.689  53.378  68.0330  0.00  0.00     0.000 O
ATOM     67  HD  BGC B   5      36.125  52.631  67.9980  0.00  0.00     0.000 HD
ATOM     67   O  BGC B   5      35.689  53.378  68.0330  0.00  0.00     0.000 O
ATOM     69  HD  BGC B   5      36.125  52.631  67.9980  0.00  0.00     0.000 HD
ENDBRANCH 58 62
ENDBRANCH 45 58
ENDBRANCH 44 48
ENDBRANCH 31 44
ENDBRANCH 30 34
ENDBRANCH 17 30
ENDBRANCH 16 20
ENDBRANCH 1 16
TORSDOF 8
ENDMDL
MODEL 64
REMARK VINA RESULT:      -0.2     44.333     48.100
ROOT
ATOM      1  C1  BGC B   1      18.246  26.552  36.9290  0.00  0.00     0.000 C
ATOM      2  C2  BGC B   1      18.872  25.879  35.7090  0.00  0.00     0.000 C
ATOM      3  C3  BGC B   1      17.792  25.490  34.7180  0.00  0.00     0.000 C
ATOM      4  C4  BGC B   1      16.700  24.677  35.4010  0.00  0.00     0.000 C
ATOM      5  C5  BGC B   1      16.168  25.479  36.5790  0.00  0.00     0.000 C
ATOM      6  O5  BGC B   1      17.264  25.690  37.4880  0.00  0.00     0.000 O
ATOM      7   O  BGC B   1      19.784  26.794  35.0800  0.00  0.00     0.000 O
ATOM      9  HD  BGC B   1      19.920  26.706  34.2290  0.00  0.00     0.000 HD
ATOM      9   O  BGC B   1      18.390  24.746  33.6520  0.00  0.00     0.000 O
ATOM     11  HD  BGC B   1      18.525  24.658  32.8010  0.00  0.00     0.000 HD
ATOM     11   O  BGC B   1      15.659  24.418  34.4860  0.00  0.00     0.000 O
ATOM     13  HD  BGC B   1      15.794  24.330  33.6350  0.00  0.00     0.000 HD
ATOM     13   C  BGC B   1      15.029  24.817  37.3410  0.00  0.00     0.000 C
ATOM     14   O  BGC B   1      15.369  23.512  37.7990  0.00  0.00     0.000 O
ATOM     16  HD  BGC B   1      15.505  23.424  36.9490  0.00  0.00     0.000 HD
ENDROOT
BRANCH 1 16
ATOM     16  O4  BGC B   2      19.276  26.629  37.9130  0.00  0.00     0.000 O
BRANCH 16 20
ATOM     17  C1  BGC B   2      20.615  28.991  40.9400  0.00  0.00     0.000 C
ATOM     18  C2  BGC B   2      19.374  28.187  41.2960  0.00  0.00     0.000 C
ATOM     19  C3  BGC B   2      19.187  27.094  40.2470  0.00  0.00     0.000 C
ATOM     20  C4  BGC B   2      19.164  27.693  38.8560  0.00  0.00     0.000 C
ATOM     21  C5  BGC B   2      20.336  28.645  38.6120  0.00  0.00     0.000 C
ATOM     22  O5  BGC B   2      20.363  29.614  39.6670  0.00  0.00     0.000 O
ATOM     23   O  BGC B   2      19.533  27.577  42.5880  0.00  0.00     0.000 O
ATOM     25  HD  BGC B   2      19.587  27.279  41.7760  0.00  0.00     0.000 HD
ATOM     25   O  BGC B   2      17.980  26.384  40.4970  0.00  0.00     0.000 O
ATOM     27  HD  BGC B   2      18.034  26.086  39.6860  0.00  0.00     0.000 HD
ATOM     27   C  BGC B   2      20.225  29.399  37.2930  0.00  0.00     0.000 C
ATOM     28   O  BGC B   2      19.018  30.132  37.1640  0.00  0.00     0.000 O
ATOM     30  HD  BGC B   2      19.072  29.834  36.3520  0.00  0.00     0.000 HD
BRANCH 17 30
ATOM     30  O4  BGC B   3      20.691  30.059  41.8660  0.00  0.00     0.000 O
BRANCH 30 34
ATOM     31  C1  BGC B   3      23.500  32.401  43.7500  0.00  0.00     0.000 C
ATOM     32  C2  BGC B   3      23.338  32.682  42.2560  0.00  0.00     0.000 C
ATOM     33  C3  BGC B   3      22.036  32.064  41.7790  0.00  0.00     0.000 C
ATOM     34  C4  BGC B   3      22.002  30.574  42.1160  0.00  0.00     0.000 C
ATOM     35  C5  BGC B   3      22.312  30.358  43.5870  0.00  0.00     0.000 C
ATOM     36  O5  BGC B   3      23.555  30.992  43.9100  0.00  0.00     0.000 O
ATOM     37   O  BGC B   3      23.275  34.090  42.0410  0.00  0.00     0.000 O
ATOM     39  HD  BGC B   3      23.331  33.946  41.1890  0.00  0.00     0.000 HD
ATOM     39   O  BGC B   3      21.931  32.263  40.3770  0.00  0.00     0.000 O
ATOM     41  HD  BGC B   3      21.987  32.118  39.5250  0.00  0.00     0.000 HD
ATOM     41   C  BGC B   3      22.391  28.892  43.9950  0.00  0.00     0.000 C
ATOM     42   O  BGC B   3      23.368  28.226  43.2300  0.00  0.00     0.000 O
ATOM     44  HD  BGC B   3      23.423  28.082  42.3780  0.00  0.00     0.000 HD
BRANCH 31 44
ATOM     44  O4  BGC B   4      24.758  32.896  44.1320  0.00  0.00     0.000 O
BRANCH 44 48
ATOM     45  C1  BGC B   4      26.688  34.509  47.3680  0.00  0.00     0.000 C
ATOM     46  C2  BGC B   4      26.427  33.013  47.4620  0.00  0.00     0.000 C
ATOM     47  C3  BGC B   4      26.087  32.474  46.0940  0.00  0.00     0.000 C
ATOM     48  C4  BGC B   4      24.926  33.267  45.4840  0.00  0.00     0.000 C
ATOM     49  C5  BGC B   4      25.224  34.772  45.5200  0.00  0.00     0.000 C
ATOM     50  O5  BGC B   4      25.529  35.174  46.8630  0.00  0.00     0.000 O
ATOM     51   O  BGC B   4      27.600  32.337  47.9540  0.00  0.00     0.000 O
ATOM     53  HD  BGC B   4      27.674  32.145  47.1130  0.00  0.00     0.000 HD
ATOM     53   O  BGC B   4      25.716  31.094  46.2200  0.00  0.00     0.000 O
ATOM     55  HD  BGC B   4      25.790  30.902  45.3790  0.00  0.00     0.000 HD
ATOM     55   C  BGC B   4      24.081  35.649  45.0420  0.00  0.00     0.000 C
ATOM     56   O  BGC B   4      22.927  35.321  45.8180  0.00  0.00     0.000 O
ATOM     58  HD  BGC B   4      23.001  35.128  44.9760  0.00  0.00     0.000 HD
BRANCH 45 58
ATOM     58  O4  BGC B   5      26.745  34.982  48.7140  0.00  0.00     0.000 O
BRANCH 58 62
ATOM     59  C1  BGC B   5      29.059  37.313  51.2350  0.00  0.00     0.000 C
ATOM     60  C2  BGC B   5      28.169  38.078  50.2770  0.00  0.00     0.000 C
ATOM     61  C3  BGC B   5      27.089  37.173  49.7140  0.00  0.00     0.000 C
ATOM     62  C4  BGC B   5      27.732  35.947  49.0860  0.00  0.00     0.000 C
ATOM     63  C5  BGC B   5      28.681  35.263  50.0810  0.00  0.00     0.000 C
ATOM     64  O5  BGC B   5      29.642  36.214  50.5280  0.00  0.00     0.000 O
ATOM     65   O  BGC B   5      30.134  34.619  48.3580  0.00  0.00     0.000 O
ATOM     67  HD  BGC B   5      30.152  34.485  47.5020  0.00  0.00     0.000 HD
ATOM     67   O  BGC B   5      30.134  34.619  48.3580  0.00  0.00     0.000 O
ATOM     69  HD  BGC B   5      30.152  34.485  47.5020  0.00  0.00     0.000 HD
ENDBRANCH 58 62
ENDBRANCH 45 58
ENDBRANCH 44 48
ENDBRANCH 31 44
ENDBRANCH 30 34
ENDBRANCH 17 30
ENDBRANCH 16 20
ENDBRANCH 1 16
TORSDOF 8
ENDMDL
MODEL 65
REMARK VINA RESULT:      -0.2     42.946     46.805
ROOT
ATOM      1  C1  BGC B   1      18.246  26.552  36.9290  0.00  0.00     0.000 C
ATOM      2  C2  BGC B   1      18.417  25.819  35.6000  0.00  0.00     0.000 C
ATOM      3  C3  BGC B   1      17.076  25.685  34.9030  0.00  0.00     0.000 C
ATOM      4  C4  BGC B   1      16.041  25.073  35.8380  0.00  0.00     0.000 C
ATOM      5  C5  BGC B   1      15.975  25.917  37.1020  0.00  0.00     0.000 C
ATOM      6  O5  BGC B   1      17.276  25.875  37.7160  0.00  0.00     0.000 O
ATOM      7   O  BGC B   1      19.314  26.564  34.7610  0.00  0.00     0.000 O
ATOM      9  HD  BGC B   1      19.223  26.485  33.9030  0.00  0.00     0.000 HD
ATOM      9   O  BGC B   1      17.243  24.882  33.7310  0.00  0.00     0.000 O
ATOM     11  HD  BGC B   1      17.151  24.803  32.8730  0.00  0.00     0.000 HD
ATOM     11   O  BGC B   1      14.781  25.057  35.2040  0.00  0.00     0.000 O
ATOM     13  HD  BGC B   1      14.689  24.977  34.3460  0.00  0.00     0.000 HD
ATOM     13   C  BGC B   1      14.943  25.458  38.1230  0.00  0.00     0.000 C
ATOM     14   O  BGC B   1      15.119  24.095  38.4970  0.00  0.00     0.000 O
ATOM     16  HD  BGC B   1      15.027  24.016  37.6400  0.00  0.00     0.000 HD
ENDROOT
BRANCH 1 16
ATOM     16  O4  BGC B   2      19.475  26.390  37.6340  0.00  0.00     0.000 O
BRANCH 16 20
ATOM     17  C1  BGC B   2      21.939  28.327  40.2260  0.00  0.00     0.000 C
ATOM     18  C2  BGC B   2      20.684  27.765  40.8780  0.00  0.00     0.000 C
ATOM     19  C3  BGC B   2      20.040  26.771  39.9150  0.00  0.00     0.000 C
ATOM     20  C4  BGC B   2      19.805  27.417  38.5660  0.00  0.00     0.000 C
ATOM     21  C5  BGC B   2      21.048  28.133  38.0370  0.00  0.00     0.000 C
ATOM     22  O5  BGC B   2      21.517  29.037  39.0460  0.00  0.00     0.000 O
ATOM     23   O  BGC B   2      21.024  27.086  42.0980  0.00  0.00     0.000 O
ATOM     25  HD  BGC B   2      20.823  26.815  41.3010  0.00  0.00     0.000 HD
ATOM     25   O  BGC B   2      18.812  26.298  40.4570  0.00  0.00     0.000 O
ATOM     27  HD  BGC B   2      18.611  26.028  39.6590  0.00  0.00     0.000 HD
ATOM     27   C  BGC B   2      20.776  28.945  36.7770  0.00  0.00     0.000 C
ATOM     28   O  BGC B   2      19.742  29.903  36.9380  0.00  0.00     0.000 O
ATOM     30  HD  BGC B   2      19.541  29.632  36.1400  0.00  0.00     0.000 HD
BRANCH 17 30
ATOM     30  O4  BGC B   3      22.442  29.323  41.0960  0.00  0.00     0.000 O
BRANCH 30 34
ATOM     31  C1  BGC B   3      26.026  31.001  42.2230  0.00  0.00     0.000 C
ATOM     32  C2  BGC B   3      25.570  31.366  40.8100  0.00  0.00     0.000 C
ATOM     33  C3  BGC B   3      24.096  31.031  40.6680  0.00  0.00     0.000 C
ATOM     34  C4  BGC B   3      23.851  29.564  41.0170  0.00  0.00     0.000 C
ATOM     35  C5  BGC B   3      24.455  29.235  42.3710  0.00  0.00     0.000 C
ATOM     36  O5  BGC B   3      25.838  29.603  42.3770  0.00  0.00     0.000 O
ATOM     37   O  BGC B   3      25.737  32.767  40.6040  0.00  0.00     0.000 O
ATOM     39  HD  BGC B   3      25.558  32.648  39.7650  0.00  0.00     0.000 HD
ATOM     39   O  BGC B   3      23.701  31.301  39.3310  0.00  0.00     0.000 O
ATOM     41  HD  BGC B   3      23.521  31.182  38.4920  0.00  0.00     0.000 HD
ATOM     41   C  BGC B   3      24.337  27.766  42.7610  0.00  0.00     0.000 C
ATOM     42   O  BGC B   3      24.952  26.955  41.7880  0.00  0.00     0.000 O
ATOM     44  HD  BGC B   3      24.772  26.836  40.9490  0.00  0.00     0.000 HD
BRANCH 31 44
ATOM     44  O4  BGC B   4      27.410  31.227  42.2840  0.00  0.00     0.000 O
BRANCH 44 48
ATOM     45  C1  BGC B   4      30.338  32.308  44.9430  0.00  0.00     0.000 C
ATOM     46  C2  BGC B   4      29.817  30.888  45.1100  0.00  0.00     0.000 C
ATOM     47  C3  BGC B   4      29.060  30.480  43.8700  0.00  0.00     0.000 C
ATOM     48  C4  BGC B   4      27.967  31.506  43.5530  0.00  0.00     0.000 C
ATOM     49  C5  BGC B   4      28.556  32.921  43.5010  0.00  0.00     0.000 C
ATOM     50  O5  BGC B   4      29.246  33.204  44.7270  0.00  0.00     0.000 O
ATOM     51   O  BGC B   4      30.916  29.980  45.3100  0.00  0.00     0.000 O
ATOM     53  HD  BGC B   4      30.747  29.810  44.4780  0.00  0.00     0.000 HD
ATOM     53   O  BGC B   4      28.465  29.194  44.0940  0.00  0.00     0.000 O
ATOM     55  HD  BGC B   4      28.296  29.024  43.2620  0.00  0.00     0.000 HD
ATOM     55   C  BGC B   4      27.528  34.022  43.3070  0.00  0.00     0.000 C
ATOM     56   O  BGC B   4      26.551  33.893  44.3410  0.00  0.00     0.000 O
ATOM     58  HD  BGC B   4      26.382  33.723  43.5090  0.00  0.00     0.000 HD
BRANCH 45 58
ATOM     58  O4  BGC B   5      30.806  32.708  46.2300  0.00  0.00     0.000 O
BRANCH 58 62
ATOM     59  C1  BGC B   5      34.069  34.446  48.0960  0.00  0.00     0.000 C
ATOM     60  C2  BGC B   5      33.145  35.406  47.3750  0.00  0.00     0.000 C
ATOM     61  C3  BGC B   5      31.806  34.750  47.0980  0.00  0.00     0.000 C
ATOM     62  C4  BGC B   5      32.024  33.448  46.3440  0.00  0.00     0.000 C
ATOM     63  C5  BGC B   5      33.030  32.555  47.0860  0.00  0.00     0.000 C
ATOM     64  O5  BGC B   5      34.238  33.284  47.2780  0.00  0.00     0.000 O
ATOM     65   O  BGC B   5      33.872  31.710  45.0680  0.00  0.00     0.000 O
ATOM     67  HD  BGC B   5      33.658  31.609  44.2350  0.00  0.00     0.000 HD
ATOM     67   O  BGC B   5      33.872  31.710  45.0680  0.00  0.00     0.000 O
ATOM     69  HD  BGC B   5      33.658  31.609  44.2350  0.00  0.00     0.000 HD
ENDBRANCH 58 62
ENDBRANCH 45 58
ENDBRANCH 44 48
ENDBRANCH 31 44
ENDBRANCH 30 34
ENDBRANCH 17 30
ENDBRANCH 16 20
ENDBRANCH 1 16
TORSDOF 8
ENDMDL
MODEL 66
REMARK VINA RESULT:      -0.2     80.536     88.252
ROOT
ATOM      1  C1  BGC B   1      55.618  50.651  55.8840  0.00  0.00     0.000 C
ATOM      2  C2  BGC B   1      54.632  50.845  54.7330  0.00  0.00     0.000 C
ATOM      3  C3  BGC B   1      53.251  50.375  55.1460  0.00  0.00     0.000 C
ATOM      4  C4  BGC B   1      53.307  48.958  55.7030  0.00  0.00     0.000 C
ATOM      5  C5  BGC B   1      54.314  48.928  56.8440  0.00  0.00     0.000 C
ATOM      6  O5  BGC B   1      55.595  49.292  56.2970  0.00  0.00     0.000 O
ATOM      7   O  BGC B   1      54.574  52.239  54.3900  0.00  0.00     0.000 O
ATOM      9  HD  BGC B   1      53.840  52.538  54.0420  0.00  0.00     0.000 HD
ATOM      9   O  BGC B   1      52.381  50.443  54.0130  0.00  0.00     0.000 O
ATOM     11  HD  BGC B   1      51.646  50.742  53.6650  0.00  0.00     0.000 HD
ATOM     11   O  BGC B   1      52.032  48.583  56.1760  0.00  0.00     0.000 O
ATOM     13  HD  BGC B   1      51.297  48.882  55.8290  0.00  0.00     0.000 HD
ATOM     13   C  BGC B   1      54.450  47.581  57.5400  0.00  0.00     0.000 C
ATOM     14   O  BGC B   1      54.763  46.530  56.6320  0.00  0.00     0.000 O
ATOM     16  HD  BGC B   1      54.029  46.829  56.2840  0.00  0.00     0.000 HD
ENDROOT
BRANCH 1 16
ATOM     16  O4  BGC B   2      56.918  50.849  55.3320  0.00  0.00     0.000 O
BRANCH 16 20
ATOM     17  C1  BGC B   2      60.605  52.266  56.2990  0.00  0.00     0.000 C
ATOM     18  C2  BGC B   2      60.303  50.896  56.8880  0.00  0.00     0.000 C
ATOM     19  C3  BGC B   2      59.081  50.321  56.1750  0.00  0.00     0.000 C
ATOM     20  C4  BGC B   2      57.923  51.296  56.2390  0.00  0.00     0.000 C
ATOM     21  C5  BGC B   2      58.327  52.709  55.8150  0.00  0.00     0.000 C
ATOM     22  O5  BGC B   2      59.470  53.105  56.5830  0.00  0.00     0.000 O
ATOM     23   O  BGC B   2      61.421  50.015  56.6890  0.00  0.00     0.000 O
ATOM     25  HD  BGC B   2      60.653  50.102  56.2980  0.00  0.00     0.000 HD
ATOM     25   O  BGC B   2      58.714  49.081  56.7680  0.00  0.00     0.000 O
ATOM     27  HD  BGC B   2      57.946  49.167  56.3770  0.00  0.00     0.000 HD
ATOM     27   C  BGC B   2      57.229  53.737  56.0530  0.00  0.00     0.000 C
ATOM     28   O  BGC B   2      56.783  53.783  57.3990  0.00  0.00     0.000 O
ATOM     30  HD  BGC B   2      56.015  53.869  57.0080  0.00  0.00     0.000 HD
BRANCH 17 30
ATOM     30  O4  BGC B   3      61.668  52.812  57.0580  0.00  0.00     0.000 O
BRANCH 30 34
ATOM     31  C1  BGC B   3      64.888  55.333  56.6070  0.00  0.00     0.000 C
ATOM     32  C2  BGC B   3      63.528  56.029  56.5710  0.00  0.00     0.000 C
ATOM     33  C3  BGC B   3      62.479  55.087  57.1360  0.00  0.00     0.000 C
ATOM     34  C4  BGC B   3      62.495  53.761  56.3770  0.00  0.00     0.000 C
ATOM     35  C5  BGC B   3      63.904  53.197  56.3280  0.00  0.00     0.000 C
ATOM     36  O5  BGC B   3      64.792  54.180  55.7860  0.00  0.00     0.000 O
ATOM     37   O  BGC B   3      63.570  57.198  57.3860  0.00  0.00     0.000 O
ATOM     39  HD  BGC B   3      62.794  57.424  57.0740  0.00  0.00     0.000 HD
ATOM     39   O  BGC B   3      61.209  55.711  57.0280  0.00  0.00     0.000 O
ATOM     41  HD  BGC B   3      60.433  55.936  56.7160  0.00  0.00     0.000 HD
ATOM     41   C  BGC B   3      64.031  51.917  55.5090  0.00  0.00     0.000 C
ATOM     42   O  BGC B   3      63.593  52.140  54.1890  0.00  0.00     0.000 O
ATOM     44  HD  BGC B   3      62.817  52.366  53.8770  0.00  0.00     0.000 HD
BRANCH 31 44
ATOM     44  O4  BGC B   4      65.810  56.191  55.9850  0.00  0.00     0.000 O
BRANCH 44 48
ATOM     45  C1  BGC B   4      69.770  57.239  56.1320  0.00  0.00     0.000 C
ATOM     46  C2  BGC B   4      69.490  55.891  55.4810  0.00  0.00     0.000 C
ATOM     47  C3  BGC B   4      68.026  55.796  55.1320  0.00  0.00     0.000 C
ATOM     48  C4  BGC B   4      67.165  56.076  56.3680  0.00  0.00     0.000 C
ATOM     49  C5  BGC B   4      67.577  57.400  57.0230  0.00  0.00     0.000 C
ATOM     50  O5  BGC B   4      68.982  57.379  57.3150  0.00  0.00     0.000 O
ATOM     51   O  BGC B   4      70.271  55.753  54.2790  0.00  0.00     0.000 O
ATOM     53  HD  BGC B   4      69.504  55.943  53.9240  0.00  0.00     0.000 HD
ATOM     53   O  BGC B   4      67.753  54.475  54.6410  0.00  0.00     0.000 O
ATOM     55  HD  BGC B   4      66.986  54.665  54.2860  0.00  0.00     0.000 HD
ATOM     55   C  BGC B   4      66.857  57.707  58.3230  0.00  0.00     0.000 C
ATOM     56   O  BGC B   4      67.055  56.599  59.2030  0.00  0.00     0.000 O
ATOM     58  HD  BGC B   4      66.288  56.789  58.8480  0.00  0.00     0.000 HD
BRANCH 45 58
ATOM     58  O4  BGC B   5      71.093  57.151  56.6600  0.00  0.00     0.000 O
BRANCH 58 62
ATOM     59  C1  BGC B   5      74.684  59.212  56.7600  0.00  0.00     0.000 C
ATOM     60  C2  BGC B   5      73.612  59.728  57.6980  0.00  0.00     0.000 C
ATOM     61  C3  BGC B   5      72.525  58.687  57.8900  0.00  0.00     0.000 C
ATOM     62  C4  BGC B   5      71.983  58.263  56.5340  0.00  0.00     0.000 C
ATOM     63  C5  BGC B   5      73.126  57.828  55.6060  0.00  0.00     0.000 C
ATOM     64  O5  BGC B   5      74.069  58.889  55.5080  0.00  0.00     0.000 O
ATOM     65   O  BGC B   5      72.006  58.663  53.7230  0.00  0.00     0.000 O
ATOM     67  HD  BGC B   5      71.214  58.878  53.4470  0.00  0.00     0.000 HD
ATOM     67   O  BGC B   5      72.006  58.663  53.7230  0.00  0.00     0.000 O
ATOM     69  HD  BGC B   5      71.214  58.878  53.4470  0.00  0.00     0.000 HD
ENDBRANCH 58 62
ENDBRANCH 45 58
ENDBRANCH 44 48
ENDBRANCH 31 44
ENDBRANCH 30 34
ENDBRANCH 17 30
ENDBRANCH 16 20
ENDBRANCH 1 16
TORSDOF 8
ENDMDL
MODEL 67
REMARK VINA RESULT:      -0.2     80.821     88.150
ROOT
ATOM      1  C1  BGC B   1      52.553  52.413  56.9530  0.00  0.00     0.000 C
ATOM      2  C2  BGC B   1      51.567  52.607  55.8020  0.00  0.00     0.000 C
ATOM      3  C3  BGC B   1      50.186  52.137  56.2150  0.00  0.00     0.000 C
ATOM      4  C4  BGC B   1      50.242  50.720  56.7720  0.00  0.00     0.000 C
ATOM      5  C5  BGC B   1      51.249  50.690  57.9120  0.00  0.00     0.000 C
ATOM      6  O5  BGC B   1      52.530  51.054  57.3660  0.00  0.00     0.000 O
ATOM      7   O  BGC B   1      51.510  54.002  55.4590  0.00  0.00     0.000 O
ATOM      9  HD  BGC B   1      50.775  54.300  55.1110  0.00  0.00     0.000 HD
ATOM      9   O  BGC B   1      49.316  52.205  55.0810  0.00  0.00     0.000 O
ATOM     11  HD  BGC B   1      48.581  52.504  54.7340  0.00  0.00     0.000 HD
ATOM     11   O  BGC B   1      48.967  50.346  57.2450  0.00  0.00     0.000 O
ATOM     13  HD  BGC B   1      48.232  50.645  56.8980  0.00  0.00     0.000 HD
ATOM     13   C  BGC B   1      51.385  49.344  58.6090  0.00  0.00     0.000 C
ATOM     14   O  BGC B   1      51.699  48.292  57.7010  0.00  0.00     0.000 O
ATOM     16  HD  BGC B   1      50.964  48.591  57.3530  0.00  0.00     0.000 HD
ENDROOT
BRANCH 1 16
ATOM     16  O4  BGC B   2      53.853  52.612  56.4010  0.00  0.00     0.000 O
BRANCH 16 20
ATOM     17  C1  BGC B   2      57.541  54.028  57.3680  0.00  0.00     0.000 C
ATOM     18  C2  BGC B   2      57.238  52.658  57.9570  0.00  0.00     0.000 C
ATOM     19  C3  BGC B   2      56.017  52.083  57.2440  0.00  0.00     0.000 C
ATOM     20  C4  BGC B   2      54.859  53.058  57.3070  0.00  0.00     0.000 C
ATOM     21  C5  BGC B   2      55.263  54.471  56.8840  0.00  0.00     0.000 C
ATOM     22  O5  BGC B   2      56.406  54.868  57.6520  0.00  0.00     0.000 O
ATOM     23   O  BGC B   2      58.357  51.778  57.7580  0.00  0.00     0.000 O
ATOM     25  HD  BGC B   2      57.589  51.864  57.3670  0.00  0.00     0.000 HD
ATOM     25   O  BGC B   2      55.649  50.843  57.8370  0.00  0.00     0.000 O
ATOM     27  HD  BGC B   2      54.881  50.929  57.4460  0.00  0.00     0.000 HD
ATOM     27   C  BGC B   2      54.164  55.499  57.1220  0.00  0.00     0.000 C
ATOM     28   O  BGC B   2      53.718  55.545  58.4680  0.00  0.00     0.000 O
ATOM     30  HD  BGC B   2      52.950  55.632  58.0770  0.00  0.00     0.000 HD
BRANCH 17 30
ATOM     30  O4  BGC B   3      58.603  54.575  58.1270  0.00  0.00     0.000 O
BRANCH 30 34
ATOM     31  C1  BGC B   3      61.823  57.095  57.6750  0.00  0.00     0.000 C
ATOM     32  C2  BGC B   3      60.463  57.791  57.6400  0.00  0.00     0.000 C
ATOM     33  C3  BGC B   3      59.414  56.849  58.2050  0.00  0.00     0.000 C
ATOM     34  C4  BGC B   3      59.431  55.523  57.4450  0.00  0.00     0.000 C
ATOM     35  C5  BGC B   3      60.840  54.959  57.3970  0.00  0.00     0.000 C
ATOM     36  O5  BGC B   3      61.728  55.942  56.8540  0.00  0.00     0.000 O
ATOM     37   O  BGC B   3      60.505  58.960  58.4550  0.00  0.00     0.000 O
ATOM     39  HD  BGC B   3      59.730  59.186  58.1430  0.00  0.00     0.000 HD
ATOM     39   O  BGC B   3      58.144  57.473  58.0970  0.00  0.00     0.000 O
ATOM     41  HD  BGC B   3      57.368  57.699  57.7850  0.00  0.00     0.000 HD
ATOM     41   C  BGC B   3      60.967  53.679  56.5770  0.00  0.00     0.000 C
ATOM     42   O  BGC B   3      60.528  53.902  55.2580  0.00  0.00     0.000 O
ATOM     44  HD  BGC B   3      59.752  54.128  54.9460  0.00  0.00     0.000 HD
BRANCH 31 44
ATOM     44  O4  BGC B   4      62.745  57.953  57.0530  0.00  0.00     0.000 O
BRANCH 44 48
ATOM     45  C1  BGC B   4      66.705  59.001  57.2010  0.00  0.00     0.000 C
ATOM     46  C2  BGC B   4      66.426  57.654  56.5500  0.00  0.00     0.000 C
ATOM     47  C3  BGC B   4      64.961  57.558  56.2010  0.00  0.00     0.000 C
ATOM     48  C4  BGC B   4      64.100  57.838  57.4360  0.00  0.00     0.000 C
ATOM     49  C5  BGC B   4      64.512  59.162  58.0910  0.00  0.00     0.000 C
ATOM     50  O5  BGC B   4      65.917  59.142  58.3840  0.00  0.00     0.000 O
ATOM     51   O  BGC B   4      67.206  57.515  55.3470  0.00  0.00     0.000 O
ATOM     53  HD  BGC B   4      66.439  57.705  54.9920  0.00  0.00     0.000 HD
ATOM     53   O  BGC B   4      64.688  56.237  55.7100  0.00  0.00     0.000 O
ATOM     55  HD  BGC B   4      63.921  56.427  55.3550  0.00  0.00     0.000 HD
ATOM     55   C  BGC B   4      63.792  59.470  59.3920  0.00  0.00     0.000 C
ATOM     56   O  BGC B   4      63.990  58.362  60.2720  0.00  0.00     0.000 O
ATOM     58  HD  BGC B   4      63.224  58.551  59.9170  0.00  0.00     0.000 HD
BRANCH 45 58
ATOM     58  O4  BGC B   5      68.029  58.913  57.7290  0.00  0.00     0.000 O
BRANCH 58 62
ATOM     59  C1  BGC B   5      71.619  60.974  57.8280  0.00  0.00     0.000 C
ATOM     60  C2  BGC B   5      70.547  61.490  58.7670  0.00  0.00     0.000 C
ATOM     61  C3  BGC B   5      69.461  60.449  58.9580  0.00  0.00     0.000 C
ATOM     62  C4  BGC B   5      68.918  60.026  57.6030  0.00  0.00     0.000 C
ATOM     63  C5  BGC B   5      70.061  59.590  56.6750  0.00  0.00     0.000 C
ATOM     64  O5  BGC B   5      71.004  60.652  56.5770  0.00  0.00     0.000 O
ATOM     65   O  BGC B   5      68.941  60.425  54.7920  0.00  0.00     0.000 O
ATOM     67  HD  BGC B   5      68.149  60.640  54.5150  0.00  0.00     0.000 HD
ATOM     67   O  BGC B   5      68.941  60.425  54.7920  0.00  0.00     0.000 O
ATOM     69  HD  BGC B   5      68.149  60.640  54.5150  0.00  0.00     0.000 HD
ENDBRANCH 58 62
ENDBRANCH 45 58
ENDBRANCH 44 48
ENDBRANCH 31 44
ENDBRANCH 30 34
ENDBRANCH 17 30
ENDBRANCH 16 20
ENDBRANCH 1 16
TORSDOF 8
ENDMDL
MODEL 68
REMARK VINA RESULT:      -0.2     48.623     53.861
ROOT
ATOM      1  C1  BGC B   1      65.094  13.644  18.6980  0.00  0.00     0.000 C
ATOM      2  C2  BGC B   1      65.305  12.234  18.1480  0.00  0.00     0.000 C
ATOM      3  C3  BGC B   1      65.878  11.335  19.2260  0.00  0.00     0.000 C
ATOM      4  C4  BGC B   1      67.117  11.965  19.8520  0.00  0.00     0.000 C
ATOM      5  C5  BGC B   1      66.746  13.350  20.3640  0.00  0.00     0.000 C
ATOM      6  O5  BGC B   1      66.319  14.128  19.2300  0.00  0.00     0.000 O
ATOM      7   O  BGC B   1      64.043  11.704  17.7110  0.00  0.00     0.000 O
ATOM      9  HD  BGC B   1      63.941  10.844  17.7260  0.00  0.00     0.000 HD
ATOM      9   O  BGC B   1      66.190  10.063  18.6500  0.00  0.00     0.000 O
ATOM     11  HD  BGC B   1      66.088   9.203  18.6650  0.00  0.00     0.000 HD
ATOM     11   O  BGC B   1      67.568  11.162  20.9200  0.00  0.00     0.000 O
ATOM     13  HD  BGC B   1      67.467  10.302  20.9350  0.00  0.00     0.000 HD
ATOM     13   C  BGC B   1      67.874  14.094  21.0640  0.00  0.00     0.000 C
ATOM     14   O  BGC B   1      69.037  14.209  20.2500  0.00  0.00     0.000 O
ATOM     16  HD  BGC B   1      68.935  13.349  20.2650  0.00  0.00     0.000 HD
ENDROOT
BRANCH 1 16
ATOM     16  O4  BGC B   2      64.825  14.475  17.5700  0.00  0.00     0.000 O
BRANCH 16 20
ATOM     17  C1  BGC B   2      62.676  17.749  16.4730  0.00  0.00     0.000 C
ATOM     18  C2  BGC B   2      63.927  18.079  17.2740  0.00  0.00     0.000 C
ATOM     19  C3  BGC B   2      64.822  16.842  17.3080  0.00  0.00     0.000 C
ATOM     20  C4  BGC B   2      64.050  15.644  17.8230  0.00  0.00     0.000 C
ATOM     21  C5  BGC B   2      62.707  15.466  17.1120  0.00  0.00     0.000 C
ATOM     22  O5  BGC B   2      61.987  16.703  17.1830  0.00  0.00     0.000 O
ATOM     23   O  BGC B   2      64.642  19.159  16.6500  0.00  0.00     0.000 O
ATOM     25  HD  BGC B   2      64.759  18.301  16.6750  0.00  0.00     0.000 HD
ATOM     25   O  BGC B   2      65.957  17.087  18.1300  0.00  0.00     0.000 O
ATOM     27  HD  BGC B   2      66.074  16.229  18.1540  0.00  0.00     0.000 HD
ATOM     27   C  BGC B   2      61.839  14.386  17.7450  0.00  0.00     0.000 C
ATOM     28   O  BGC B   2      61.590  14.601  19.1250  0.00  0.00     0.000 O
ATOM     30  HD  BGC B   2      61.708  13.743  19.1490  0.00  0.00     0.000 HD
BRANCH 17 30
ATOM     30  O4  BGC B   3      61.826  18.877  16.5600  0.00  0.00     0.000 O
BRANCH 30 34
ATOM     31  C1  BGC B   3      58.983  20.857  14.3400  0.00  0.00     0.000 C
ATOM     32  C2  BGC B   3      58.540  19.492  14.8670  0.00  0.00     0.000 C
ATOM     33  C3  BGC B   3      59.490  19.059  15.9690  0.00  0.00     0.000 C
ATOM     34  C4  BGC B   3      60.930  19.066  15.4590  0.00  0.00     0.000 C
ATOM     35  C5  BGC B   3      61.258  20.405  14.8200  0.00  0.00     0.000 C
ATOM     36  O5  BGC B   3      60.289  20.699  13.8080  0.00  0.00     0.000 O
ATOM     37   O  BGC B   3      57.229  19.597  15.4160  0.00  0.00     0.000 O
ATOM     39  HD  BGC B   3      57.205  18.734  15.4820  0.00  0.00     0.000 HD
ATOM     39   O  BGC B   3      59.117  17.758  16.3990  0.00  0.00     0.000 O
ATOM     41  HD  BGC B   3      59.094  16.895  16.4640  0.00  0.00     0.000 HD
ATOM     41   C  BGC B   3      62.649  20.471  14.2000  0.00  0.00     0.000 C
ATOM     42   O  BGC B   3      62.796  19.464  13.2280  0.00  0.00     0.000 O
ATOM     44  HD  BGC B   3      62.772  18.600  13.2940  0.00  0.00     0.000 HD
BRANCH 31 44
ATOM     44  O4  BGC B   4      58.147  21.176  13.2580  0.00  0.00     0.000 O
BRANCH 44 48
ATOM     45  C1  BGC B   4      56.473  24.418  11.3900  0.00  0.00     0.000 C
ATOM     46  C2  BGC B   4      57.957  24.219  11.1140  0.00  0.00     0.000 C
ATOM     47  C3  BGC B   4      58.359  22.821  11.5130  0.00  0.00     0.000 C
ATOM     48  C4  BGC B   4      57.957  22.545  12.9660  0.00  0.00     0.000 C
ATOM     49  C5  BGC B   4      56.474  22.867  13.1850  0.00  0.00     0.000 C
ATOM     50  O5  BGC B   4      56.206  24.217  12.7790  0.00  0.00     0.000 O
ATOM     51   O  BGC B   4      58.227  24.404   9.7120  0.00  0.00     0.000 O
ATOM     53  HD  BGC B   4      58.244  23.539   9.7420  0.00  0.00     0.000 HD
ATOM     53   O  BGC B   4      59.781  22.691  11.3710  0.00  0.00     0.000 O
ATOM     55  HD  BGC B   4      59.798  21.825  11.4010  0.00  0.00     0.000 HD
ATOM     55   C  BGC B   4      56.009  22.736  14.6240  0.00  0.00     0.000 C
ATOM     56   O  BGC B   4      56.853  23.560  15.4310  0.00  0.00     0.000 O
ATOM     58  HD  BGC B   4      56.870  22.694  15.4610  0.00  0.00     0.000 HD
BRANCH 45 58
ATOM     58  O4  BGC B   5      56.231  25.816  11.2350  0.00  0.00     0.000 O
BRANCH 58 62
ATOM     59  C1  BGC B   5      53.610  28.490   9.4660  0.00  0.00     0.000 C
ATOM     60  C2  BGC B   5      53.075  27.766  10.6850  0.00  0.00     0.000 C
ATOM     61  C3  BGC B   5      54.212  27.153  11.4810  0.00  0.00     0.000 C
ATOM     62  C4  BGC B   5      55.045  26.262  10.5730  0.00  0.00     0.000 C
ATOM     63  C5  BGC B   5      55.487  27.031   9.3190  0.00  0.00     0.000 C
ATOM     64  O5  BGC B   5      54.333  27.549   8.6660  0.00  0.00     0.000 O
ATOM     65   O  BGC B   5      55.352  25.096   8.0020  0.00  0.00     0.000 O
ATOM     67  HD  BGC B   5      55.355  24.233   8.0660  0.00  0.00     0.000 HD
ATOM     67   O  BGC B   5      55.352  25.096   8.0020  0.00  0.00     0.000 O
ATOM     69  HD  BGC B   5      55.355  24.233   8.0660  0.00  0.00     0.000 HD
ENDBRANCH 58 62
ENDBRANCH 45 58
ENDBRANCH 44 48
ENDBRANCH 31 44
ENDBRANCH 30 34
ENDBRANCH 17 30
ENDBRANCH 16 20
ENDBRANCH 1 16
TORSDOF 8
ENDMDL
MODEL 69
REMARK VINA RESULT:      -0.2     44.634     55.962
ROOT
ATOM      1  C1  BGC B   1      64.312  10.867  35.7210  0.00  0.00     0.000 C
ATOM      2  C2  BGC B   1      64.366  10.726  37.2410  0.00  0.00     0.000 C
ATOM      3  C3  BGC B   1      65.479  11.588  37.8040  0.00  0.00     0.000 C
ATOM      4  C4  BGC B   1      66.795  11.303  37.0920  0.00  0.00     0.000 C
ATOM      5  C5  BGC B   1      66.587  11.500  35.5970  0.00  0.00     0.000 C
ATOM      6  O5  BGC B   1      65.586  10.555  35.1750  0.00  0.00     0.000 O
ATOM      7   O  BGC B   1      63.111  11.147  37.8010  0.00  0.00     0.000 O
ATOM      9  HD  BGC B   1      63.116  11.462  38.6080  0.00  0.00     0.000 HD
ATOM      9   O  BGC B   1      65.594  11.336  39.2080  0.00  0.00     0.000 O
ATOM     11  HD  BGC B   1      65.599  11.651  40.0150  0.00  0.00     0.000 HD
ATOM     11   O  BGC B   1      67.789  12.190  37.5590  0.00  0.00     0.000 O
ATOM     13  HD  BGC B   1      67.793  12.505  38.3660  0.00  0.00     0.000 HD
ATOM     13   C  BGC B   1      67.832  11.298  34.7460  0.00  0.00     0.000 C
ATOM     14   O  BGC B   1      68.431  10.023  34.9560  0.00  0.00     0.000 O
ATOM     16  HD  BGC B   1      68.436  10.337  35.7630  0.00  0.00     0.000 HD
ENDROOT
BRANCH 1 16
ATOM     16  O4  BGC B   2      63.445   9.833  35.2560  0.00  0.00     0.000 O
BRANCH 16 20
ATOM     17  C1  BGC B   2      60.709   9.038  32.3550  0.00  0.00     0.000 C
ATOM     18  C2  BGC B   2      62.149   9.008  31.8620  0.00  0.00     0.000 C
ATOM     19  C3  BGC B   2      63.075   8.953  33.0750  0.00  0.00     0.000 C
ATOM     20  C4  BGC B   2      62.766  10.088  34.0290  0.00  0.00     0.000 C
ATOM     21  C5  BGC B   2      61.273  10.194  34.3460  0.00  0.00     0.000 C
ATOM     22  O5  BGC B   2      60.549  10.253  33.1110  0.00  0.00     0.000 O
ATOM     23   O  BGC B   2      62.368   7.843  31.0500  0.00  0.00     0.000 O
ATOM     25  HD  BGC B   2      62.571   8.048  31.8660  0.00  0.00     0.000 HD
ATOM     25   O  BGC B   2      64.431   9.020  32.6520  0.00  0.00     0.000 O
ATOM     27  HD  BGC B   2      64.634   9.225  33.4690  0.00  0.00     0.000 HD
ATOM     27   C  BGC B   2      60.923  11.441  35.1490  0.00  0.00     0.000 C
ATOM     28   O  BGC B   2      61.336  12.646  34.5250  0.00  0.00     0.000 O
ATOM     30  HD  BGC B   2      61.538  12.850  35.3420  0.00  0.00     0.000 HD
BRANCH 17 30
ATOM     30  O4  BGC B   3      59.890   9.203  31.2130  0.00  0.00     0.000 O
BRANCH 30 34
ATOM     31  C1  BGC B   3      56.147   8.172  29.8500  0.00  0.00     0.000 C
ATOM     32  C2  BGC B   3      56.152   9.235  30.9480  0.00  0.00     0.000 C
ATOM     33  C3  BGC B   3      57.554   9.805  31.0730  0.00  0.00     0.000 C
ATOM     34  C4  BGC B   3      58.561   8.682  31.3200  0.00  0.00     0.000 C
ATOM     35  C5  BGC B   3      58.404   7.592  30.2750  0.00  0.00     0.000 C
ATOM     36  O5  BGC B   3      57.043   7.148  30.2510  0.00  0.00     0.000 O
ATOM     37   O  BGC B   3      55.265  10.292  30.5900  0.00  0.00     0.000 O
ATOM     39  HD  BGC B   3      55.363  10.621  31.3850  0.00  0.00     0.000 HD
ATOM     39   O  BGC B   3      57.567  10.734  32.1460  0.00  0.00     0.000 O
ATOM     41  HD  BGC B   3      57.664  11.063  32.9420  0.00  0.00     0.000 HD
ATOM     41   C  BGC B   3      59.309   6.385  30.4970  0.00  0.00     0.000 C
ATOM     42   O  BGC B   3      59.069   5.826  31.7670  0.00  0.00     0.000 O
ATOM     44  HD  BGC B   3      59.166   6.154  32.5620  0.00  0.00     0.000 HD
BRANCH 31 44
ATOM     44  O4  BGC B   4      54.866   7.598  29.8330  0.00  0.00     0.000 O
BRANCH 44 48
ATOM     45  C1  BGC B   4      52.180   5.897  27.2440  0.00  0.00     0.000 C
ATOM     46  C2  BGC B   4      53.374   5.019  27.5920  0.00  0.00     0.000 C
ATOM     47  C3  BGC B   4      54.062   5.568  28.8180  0.00  0.00     0.000 C
ATOM     48  C4  BGC B   4      54.418   7.044  28.6120  0.00  0.00     0.000 C
ATOM     49  C5  BGC B   4      53.185   7.839  28.1650  0.00  0.00     0.000 C
ATOM     50  O5  BGC B   4      52.617   7.234  26.9940  0.00  0.00     0.000 O
ATOM     51   O  BGC B   4      52.936   3.674  27.8610  0.00  0.00     0.000 O
ATOM     53  HD  BGC B   4      53.056   3.945  28.6750  0.00  0.00     0.000 HD
ATOM     53   O  BGC B   4      55.256   4.810  29.0560  0.00  0.00     0.000 O
ATOM     55  HD  BGC B   4      55.377   5.081  29.8700  0.00  0.00     0.000 HD
ATOM     55   C  BGC B   4      53.465   9.291  27.8230  0.00  0.00     0.000 C
ATOM     56   O  BGC B   4      54.496   9.315  26.8340  0.00  0.00     0.000 O
ATOM     58  HD  BGC B   4      54.616   9.586  27.6480  0.00  0.00     0.000 HD
BRANCH 45 58
ATOM     58  O4  BGC B   5      51.748   5.474  25.9510  0.00  0.00     0.000 O
BRANCH 58 62
ATOM     59  C1  BGC B   5      48.331   4.388  23.8790  0.00  0.00     0.000 C
ATOM     60  C2  BGC B   5      48.545   5.879  24.0430  0.00  0.00     0.000 C
ATOM     61  C3  BGC B   5      49.984   6.172  24.4270  0.00  0.00     0.000 C
ATOM     62  C4  BGC B   5      50.351   5.373  25.6680  0.00  0.00     0.000 C
ATOM     63  C5  BGC B   5      50.035   3.884  25.4650  0.00  0.00     0.000 C
ATOM     64  O5  BGC B   5      48.662   3.748  25.1160  0.00  0.00     0.000 O
ATOM     65   O  BGC B   5      49.474   3.626  27.7270  0.00  0.00     0.000 O
ATOM     67  HD  BGC B   5      49.599   3.993  28.5010  0.00  0.00     0.000 HD
ATOM     67   O  BGC B   5      49.474   3.626  27.7270  0.00  0.00     0.000 O
ATOM     69  HD  BGC B   5      49.599   3.993  28.5010  0.00  0.00     0.000 HD
ENDBRANCH 58 62
ENDBRANCH 45 58
ENDBRANCH 44 48
ENDBRANCH 31 44
ENDBRANCH 30 34
ENDBRANCH 17 30
ENDBRANCH 16 20
ENDBRANCH 1 16
TORSDOF 8
ENDMDL
MODEL 70
REMARK VINA RESULT:      -0.2     46.703     53.429
ROOT
ATOM      1  C1  BGC B   1      35.132  34.770  35.2700  0.00  0.00     0.000 C
ATOM      2  C2  BGC B   1      33.781  35.335  35.7040  0.00  0.00     0.000 C
ATOM      3  C3  BGC B   1      33.053  34.333  36.5790  0.00  0.00     0.000 C
ATOM      4  C4  BGC B   1      32.983  32.972  35.8970  0.00  0.00     0.000 C
ATOM      5  C5  BGC B   1      34.398  32.538  35.5410  0.00  0.00     0.000 C
ATOM      6  O5  BGC B   1      34.932  33.517  34.6300  0.00  0.00     0.000 O
ATOM      7   O  BGC B   1      33.992  36.547  36.4470  0.00  0.00     0.000 O
ATOM      9  HD  BGC B   1      33.398  36.765  37.0390  0.00  0.00     0.000 HD
ATOM      9   O  BGC B   1      31.742  34.830  36.8600  0.00  0.00     0.000 O
ATOM     11  HD  BGC B   1      31.148  35.048  37.4520  0.00  0.00     0.000 HD
ATOM     11   O  BGC B   1      32.398  32.033  36.7720  0.00  0.00     0.000 O
ATOM     13  HD  BGC B   1      31.804  32.251  37.3640  0.00  0.00     0.000 HD
ATOM     13   C  BGC B   1      34.500  31.166  34.8910  0.00  0.00     0.000 C
ATOM     14   O  BGC B   1      33.686  31.054  33.7280  0.00  0.00     0.000 O
ATOM     16  HD  BGC B   1      33.092  31.272  34.3190  0.00  0.00     0.000 HD
ENDROOT
BRANCH 1 16
ATOM     16  O4  BGC B   2      35.616  35.637  34.2460  0.00  0.00     0.000 O
BRANCH 16 20
ATOM     17  C1  BGC B   2      39.075  37.172  32.7580  0.00  0.00     0.000 C
ATOM     18  C2  BGC B   2      38.809  35.736  32.3290  0.00  0.00     0.000 C
ATOM     19  C3  BGC B   2      37.350  35.403  32.6310  0.00  0.00     0.000 C
ATOM     20  C4  BGC B   2      37.031  35.689  34.0840  0.00  0.00     0.000 C
ATOM     21  C5  BGC B   2      37.491  37.081  34.5190  0.00  0.00     0.000 C
ATOM     22  O5  BGC B   2      38.876  37.229  34.1830  0.00  0.00     0.000 O
ATOM     23   O  BGC B   2      39.043  35.591  30.9190  0.00  0.00     0.000 O
ATOM     25  HD  BGC B   2      38.326  35.661  31.4010  0.00  0.00     0.000 HD
ATOM     25   O  BGC B   2      37.093  34.036  32.3300  0.00  0.00     0.000 O
ATOM     27  HD  BGC B   2      36.377  34.106  32.8120  0.00  0.00     0.000 HD
ATOM     27   C  BGC B   2      37.350  37.312  36.0180  0.00  0.00     0.000 C
ATOM     28   O  BGC B   2      38.034  36.349  36.8020  0.00  0.00     0.000 O
ATOM     30  HD  BGC B   2      37.318  36.419  37.2840  0.00  0.00     0.000 HD
BRANCH 17 30
ATOM     30  O4  BGC B   3      40.457  37.406  32.5680  0.00  0.00     0.000 O
BRANCH 30 34
ATOM     31  C1  BGC B   3      43.035  40.480  31.6540  0.00  0.00     0.000 C
ATOM     32  C2  BGC B   3      42.415  40.565  33.0480  0.00  0.00     0.000 C
ATOM     33  C3  BGC B   3      41.825  39.213  33.4070  0.00  0.00     0.000 C
ATOM     34  C4  BGC B   3      40.832  38.768  32.3340  0.00  0.00     0.000 C
ATOM     35  C5  BGC B   3      41.470  38.844  30.9590  0.00  0.00     0.000 C
ATOM     36  O5  BGC B   3      41.991  40.160  30.7470  0.00  0.00     0.000 O
ATOM     37   O  BGC B   3      43.428  40.883  34.0000  0.00  0.00     0.000 O
ATOM     39  HD  BGC B   3      42.809  40.997  34.5950  0.00  0.00     0.000 HD
ATOM     39   O  BGC B   3      41.185  39.322  34.6690  0.00  0.00     0.000 O
ATOM     41  HD  BGC B   3      40.566  39.436  35.2640  0.00  0.00     0.000 HD
ATOM     41   C  BGC B   3      40.520  38.505  29.8150  0.00  0.00     0.000 C
ATOM     42   O  BGC B   3      39.404  39.364  29.8400  0.00  0.00     0.000 O
ATOM     44  HD  BGC B   3      38.786  39.478  30.4350  0.00  0.00     0.000 HD
BRANCH 31 44
ATOM     44  O4  BGC B   4      43.476  41.770  31.3160  0.00  0.00     0.000 O
BRANCH 44 48
ATOM     45  C1  BGC B   4      46.398  43.650  29.1400  0.00  0.00     0.000 C
ATOM     46  C2  BGC B   4      45.259  43.071  28.3120  0.00  0.00     0.000 C
ATOM     47  C3  BGC B   4      44.086  42.768  29.2120  0.00  0.00     0.000 C
ATOM     48  C4  BGC B   4      44.525  41.871  30.3740  0.00  0.00     0.000 C
ATOM     49  C5  BGC B   4      45.738  42.474  31.0920  0.00  0.00     0.000 C
ATOM     50  O5  BGC B   4      46.791  42.716  30.1470  0.00  0.00     0.000 O
ATOM     51   O  BGC B   4      44.849  44.017  27.3070  0.00  0.00     0.000 O
ATOM     53  HD  BGC B   4      44.208  44.136  27.8770  0.00  0.00     0.000 HD
ATOM     53   O  BGC B   4      43.073  42.104  28.4430  0.00  0.00     0.000 O
ATOM     55  HD  BGC B   4      42.432  42.223  29.0130  0.00  0.00     0.000 HD
ATOM     55   C  BGC B   4      46.318  41.598  32.1880  0.00  0.00     0.000 C
ATOM     56   O  BGC B   4      46.623  40.326  31.6130  0.00  0.00     0.000 O
ATOM     58  HD  BGC B   4      45.982  40.445  32.1830  0.00  0.00     0.000 HD
BRANCH 45 58
ATOM     58  O4  BGC B   5      47.538  43.665  28.2810  0.00  0.00     0.000 O
BRANCH 58 62
ATOM     59  C1  BGC B   5      50.596  46.144  26.9960  0.00  0.00     0.000 C
ATOM     60  C2  BGC B   5      50.783  45.542  28.3740  0.00  0.00     0.000 C
ATOM     61  C3  BGC B   5      49.852  44.360  28.5700  0.00  0.00     0.000 C
ATOM     62  C4  BGC B   5      48.420  44.789  28.2920  0.00  0.00     0.000 C
ATOM     63  C5  BGC B   5      48.314  45.463  26.9160  0.00  0.00     0.000 C
ATOM     64  O5  BGC B   5      49.230  46.552  26.8650  0.00  0.00     0.000 O
ATOM     65   O  BGC B   5      46.643  46.918  27.6810  0.00  0.00     0.000 O
ATOM     67  HD  BGC B   5      46.047  46.996  28.3050  0.00  0.00     0.000 HD
ATOM     67   O  BGC B   5      46.643  46.918  27.6810  0.00  0.00     0.000 O
ATOM     69  HD  BGC B   5      46.047  46.996  28.3050  0.00  0.00     0.000 HD
ENDBRANCH 58 62
ENDBRANCH 45 58
ENDBRANCH 44 48
ENDBRANCH 31 44
ENDBRANCH 30 34
ENDBRANCH 17 30
ENDBRANCH 16 20
ENDBRANCH 1 16
TORSDOF 8
ENDMDL
MODEL 71
REMARK VINA RESULT:      -0.2     66.255     74.472
ROOT
ATOM      1  C1  BGC B   1      53.216  37.362  43.6640  0.00  0.00     0.000 C
ATOM      2  C2  BGC B   1      52.495  36.098  44.1310  0.00  0.00     0.000 C
ATOM      3  C3  BGC B   1      51.896  35.370  42.9430  0.00  0.00     0.000 C
ATOM      4  C4  BGC B   1      51.044  36.315  42.1050  0.00  0.00     0.000 C
ATOM      5  C5  BGC B   1      51.900  37.508  41.7050  0.00  0.00     0.000 C
ATOM      6  O5  BGC B   1      52.315  38.166  42.9160  0.00  0.00     0.000 O
ATOM      7   O  BGC B   1      53.434  35.234  44.7920  0.00  0.00     0.000 O
ATOM      9  HD  BGC B   1      53.277  34.383  44.7780  0.00  0.00     0.000 HD
ATOM      9   O  BGC B   1      51.117  34.269  43.4200  0.00  0.00     0.000 O
ATOM     11  HD  BGC B   1      50.959  33.418  43.4060  0.00  0.00     0.000 HD
ATOM     11   O  BGC B   1      50.586  35.643  40.9520  0.00  0.00     0.000 O
ATOM     13  HD  BGC B   1      50.428  34.792  40.9380  0.00  0.00     0.000 HD
ATOM     13   C  BGC B   1      51.199  38.527  40.8170  0.00  0.00     0.000 C
ATOM     14   O  BGC B   1      49.991  39.010  41.3940  0.00  0.00     0.000 O
ATOM     16  HD  BGC B   1      49.833  38.159  41.3800  0.00  0.00     0.000 HD
ENDROOT
BRANCH 1 16
ATOM     16  O4  BGC B   2      53.500  38.116  44.8400  0.00  0.00     0.000 O
BRANCH 16 20
ATOM     17  C1  BGC B   2      56.301  40.603  46.4230  0.00  0.00     0.000 C
ATOM     18  C2  BGC B   2      55.406  41.270  45.3890  0.00  0.00     0.000 C
ATOM     19  C3  BGC B   2      54.194  40.373  45.1460  0.00  0.00     0.000 C
ATOM     20  C4  BGC B   2      54.638  38.973  44.7770  0.00  0.00     0.000 C
ATOM     21  C5  BGC B   2      55.684  38.418  45.7440  0.00  0.00     0.000 C
ATOM     22  O5  BGC B   2      56.755  39.364  45.8490  0.00  0.00     0.000 O
ATOM     23   O  BGC B   2      54.956  42.546  45.8740  0.00  0.00     0.000 O
ATOM     25  HD  BGC B   2      54.583  41.768  45.8080  0.00  0.00     0.000 HD
ATOM     25   O  BGC B   2      53.384  40.923  44.1130  0.00  0.00     0.000 O
ATOM     27  HD  BGC B   2      53.011  40.144  44.0480  0.00  0.00     0.000 HD
ATOM     27   C  BGC B   2      56.277  37.093  45.2820  0.00  0.00     0.000 C
ATOM     28   O  BGC B   2      56.854  37.156  43.9880  0.00  0.00     0.000 O
ATOM     30  HD  BGC B   2      56.480  36.378  43.9220  0.00  0.00     0.000 HD
BRANCH 17 30
ATOM     30  O4  BGC B   3      57.462  41.405  46.5370  0.00  0.00     0.000 O
BRANCH 30 34
ATOM     31  C1  BGC B   3      60.274  42.494  49.3360  0.00  0.00     0.000 C
ATOM     32  C2  BGC B   3      60.376  41.043  48.8650  0.00  0.00     0.000 C
ATOM     33  C3  BGC B   3      59.577  40.885  47.5830  0.00  0.00     0.000 C
ATOM     34  C4  BGC B   3      58.136  41.347  47.7980  0.00  0.00     0.000 C
ATOM     35  C5  BGC B   3      58.112  42.741  48.4010  0.00  0.00     0.000 C
ATOM     36  O5  BGC B   3      58.904  42.758  49.5930  0.00  0.00     0.000 O
ATOM     37   O  BGC B   3      61.739  40.727  48.5890  0.00  0.00     0.000 O
ATOM     39  HD  BGC B   3      61.511  39.896  48.5030  0.00  0.00     0.000 HD
ATOM     39   O  BGC B   3      59.613  39.520  47.1960  0.00  0.00     0.000 O
ATOM     41  HD  BGC B   3      59.385  38.689  47.1090  0.00  0.00     0.000 HD
ATOM     41   C  BGC B   3      56.714  43.248  48.7360  0.00  0.00     0.000 C
ATOM     42   O  BGC B   3      56.078  42.363  49.6280  0.00  0.00     0.000 O
ATOM     44  HD  BGC B   3      55.850  41.532  49.5410  0.00  0.00     0.000 HD
BRANCH 31 44
ATOM     44  O4  BGC B   4      60.937  42.577  50.5710  0.00  0.00     0.000 O
BRANCH 44 48
ATOM     45  C1  BGC B   4      63.110  45.212  52.8370  0.00  0.00     0.000 C
ATOM     46  C2  BGC B   4      61.614  45.487  52.7990  0.00  0.00     0.000 C
ATOM     47  C3  BGC B   4      60.891  44.267  52.2850  0.00  0.00     0.000 C
ATOM     48  C4  BGC B   4      61.474  43.832  50.9370  0.00  0.00     0.000 C
ATOM     49  C5  BGC B   4      62.997  43.675  51.0340  0.00  0.00     0.000 C
ATOM     50  O5  BGC B   4      63.579  44.891  51.5260  0.00  0.00     0.000 O
ATOM     51   O  BGC B   4      61.135  45.795  54.1220  0.00  0.00     0.000 O
ATOM     53  HD  BGC B   4      60.859  44.976  54.0630  0.00  0.00     0.000 HD
ATOM     53   O  BGC B   4      59.500  44.584  52.1310  0.00  0.00     0.000 O
ATOM     55  HD  BGC B   4      59.224  43.765  52.0720  0.00  0.00     0.000 HD
ATOM     55   C  BGC B   4      63.680  43.358  49.7160  0.00  0.00     0.000 C
ATOM     56   O  BGC B   4      63.312  44.372  48.7790  0.00  0.00     0.000 O
ATOM     58  HD  BGC B   4      63.037  43.553  48.7210  0.00  0.00     0.000 HD
BRANCH 45 58
ATOM     58  O4  BGC B   5      63.734  46.473  53.0790  0.00  0.00     0.000 O
BRANCH 58 62
ATOM     59  C1  BGC B   5      66.636  48.264  55.4290  0.00  0.00     0.000 C
ATOM     60  C2  BGC B   5      67.156  47.417  54.2850  0.00  0.00     0.000 C
ATOM     61  C3  BGC B   5      66.060  47.162  53.2690  0.00  0.00     0.000 C
ATOM     62  C4  BGC B   5      64.853  46.553  53.9650  0.00  0.00     0.000 C
ATOM     63  C5  BGC B   5      64.425  47.417  55.1600  0.00  0.00     0.000 C
ATOM     64  O5  BGC B   5      65.537  47.575  56.0350  0.00  0.00     0.000 O
ATOM     65   O  BGC B   5      63.753  45.526  56.3730  0.00  0.00     0.000 O
ATOM     67  HD  BGC B   5      63.515  44.701  56.2620  0.00  0.00     0.000 HD
ATOM     67   O  BGC B   5      63.753  45.526  56.3730  0.00  0.00     0.000 O
ATOM     69  HD  BGC B   5      63.515  44.701  56.2620  0.00  0.00     0.000 HD
ENDBRANCH 58 62
ENDBRANCH 45 58
ENDBRANCH 44 48
ENDBRANCH 31 44
ENDBRANCH 30 34
ENDBRANCH 17 30
ENDBRANCH 16 20
ENDBRANCH 1 16
TORSDOF 8
ENDMDL
MODEL 72
REMARK VINA RESULT:      -0.2     38.185     42.166
ROOT
ATOM      1  C1  BGC B   1       8.542  38.407  18.6770  0.00  0.00     0.000 C
ATOM      2  C2  BGC B   1       9.034  37.478  19.7850  0.00  0.00     0.000 C
ATOM      3  C3  BGC B   1       8.214  36.202  19.7970  0.00  0.00     0.000 C
ATOM      4  C4  BGC B   1       6.725  36.519  19.8470  0.00  0.00     0.000 C
ATOM      5  C5  BGC B   1       6.387  37.435  18.6800  0.00  0.00     0.000 C
ATOM      6  O5  BGC B   1       7.152  38.643  18.8460  0.00  0.00     0.000 O
ATOM      7   O  BGC B   1      10.414  37.151  19.5510  0.00  0.00     0.000 O
ATOM      9  HD  BGC B   1      10.705  36.394  19.8530  0.00  0.00     0.000 HD
ATOM      9   O  BGC B   1       8.606  35.411  20.9230  0.00  0.00     0.000 O
ATOM     11  HD  BGC B   1       8.897  34.654  21.2250  0.00  0.00     0.000 HD
ATOM     11   O  BGC B   1       5.982  35.323  19.7510  0.00  0.00     0.000 O
ATOM     13  HD  BGC B   1       6.274  34.565  20.0530  0.00  0.00     0.000 HD
ATOM     13   C  BGC B   1       4.916  37.806  18.5640  0.00  0.00     0.000 C
ATOM     14   O  BGC B   1       4.408  38.390  19.7600  0.00  0.00     0.000 O
ATOM     16  HD  BGC B   1       4.699  37.632  20.0620  0.00  0.00     0.000 HD
ENDROOT
BRANCH 1 16
ATOM     16  O4  BGC B   2       9.165  39.669  18.9110  0.00  0.00     0.000 O
BRANCH 16 20
ATOM     17  C1  BGC B   2      10.639  42.908  16.9420  0.00  0.00     0.000 C
ATOM     18  C2  BGC B   2       9.119  42.855  16.9800  0.00  0.00     0.000 C
ATOM     19  C3  BGC B   2       8.695  41.831  18.0300  0.00  0.00     0.000 C
ATOM     20  C4  BGC B   2       9.359  40.495  17.7660  0.00  0.00     0.000 C
ATOM     21  C5  BGC B   2      10.867  40.627  17.5460  0.00  0.00     0.000 C
ATOM     22  O5  BGC B   2      11.095  41.607  16.5260  0.00  0.00     0.000 O
ATOM     23   O  BGC B   2       8.589  44.142  17.3370  0.00  0.00     0.000 O
ATOM     25  HD  BGC B   2       8.702  43.402  17.7720  0.00  0.00     0.000 HD
ATOM     25   O  BGC B   2       7.280  41.688  18.0230  0.00  0.00     0.000 O
ATOM     27  HD  BGC B   2       7.393  40.948  18.4580  0.00  0.00     0.000 HD
ATOM     27   C  BGC B   2      11.517  39.326  17.0930  0.00  0.00     0.000 C
ATOM     28   O  BGC B   2      10.938  38.788  15.9160  0.00  0.00     0.000 O
ATOM     30  HD  BGC B   2      11.051  38.047  16.3500  0.00  0.00     0.000 HD
BRANCH 17 30
ATOM     30  O4  BGC B   3      10.993  43.779  15.8850  0.00  0.00     0.000 O
BRANCH 30 34
ATOM     31  C1  BGC B   3      13.973  46.418  14.8460  0.00  0.00     0.000 C
ATOM     32  C2  BGC B   3      14.376  44.945  14.7750  0.00  0.00     0.000 C
ATOM     33  C3  BGC B   3      13.121  44.091  14.7840  0.00  0.00     0.000 C
ATOM     34  C4  BGC B   3      12.266  44.422  16.0070  0.00  0.00     0.000 C
ATOM     35  C5  BGC B   3      12.024  45.918  16.0940  0.00  0.00     0.000 C
ATOM     36  O5  BGC B   3      13.279  46.606  16.0690  0.00  0.00     0.000 O
ATOM     37   O  BGC B   3      15.078  44.702  13.5570  0.00  0.00     0.000 O
ATOM     39  HD  BGC B   3      15.280  43.913  13.8510  0.00  0.00     0.000 HD
ATOM     39   O  BGC B   3      13.506  42.725  14.7960  0.00  0.00     0.000 O
ATOM     41  HD  BGC B   3      13.707  41.935  15.0890  0.00  0.00     0.000 HD
ATOM     41   C  BGC B   3      11.254  46.350  17.3370  0.00  0.00     0.000 C
ATOM     42   O  BGC B   3      11.937  45.939  18.4980  0.00  0.00     0.000 O
ATOM     44  HD  BGC B   3      12.139  45.149  18.7910  0.00  0.00     0.000 HD
BRANCH 31 44
ATOM     44  O4  BGC B   4      15.157  47.168  14.9390  0.00  0.00     0.000 O
BRANCH 44 48
ATOM     45  C1  BGC B   4      16.693  50.814  13.8660  0.00  0.00     0.000 C
ATOM     46  C2  BGC B   4      15.740  50.848  15.0520  0.00  0.00     0.000 C
ATOM     47  C3  BGC B   4      15.558  49.450  15.5910  0.00  0.00     0.000 C
ATOM     48  C4  BGC B   4      15.119  48.501  14.4720  0.00  0.00     0.000 C
ATOM     49  C5  BGC B   4      16.072  48.602  13.2750  0.00  0.00     0.000 C
ATOM     50  O5  BGC B   4      16.166  49.968  12.8430  0.00  0.00     0.000 O
ATOM     51   O  BGC B   4      16.276  51.687  16.0930  0.00  0.00     0.000 O
ATOM     53  HD  BGC B   4      16.468  50.912  16.4290  0.00  0.00     0.000 HD
ATOM     53   O  BGC B   4      14.560  49.478  16.6220  0.00  0.00     0.000 O
ATOM     55  HD  BGC B   4      14.752  48.703  16.9570  0.00  0.00     0.000 HD
ATOM     55   C  BGC B   4      15.653  47.783  12.0670  0.00  0.00     0.000 C
ATOM     56   O  BGC B   4      14.323  48.172  11.7180  0.00  0.00     0.000 O
ATOM     58  HD  BGC B   4      14.516  47.397  12.0540  0.00  0.00     0.000 HD
BRANCH 45 58
ATOM     58  O4  BGC B   5      16.611  52.105  13.2620  0.00  0.00     0.000 O
BRANCH 58 62
ATOM     59  C1  BGC B   5      19.002  55.179  11.8560  0.00  0.00     0.000 C
ATOM     60  C2  BGC B   5      18.854  53.993  10.9250  0.00  0.00     0.000 C
ATOM     61  C3  BGC B   5      17.664  53.143  11.3300  0.00  0.00     0.000 C
ATOM     62  C4  BGC B   5      17.799  52.745  12.7910  0.00  0.00     0.000 C
ATOM     63  C5  BGC B   5      18.026  53.983  13.6700  0.00  0.00     0.000 C
ATOM     64  O5  BGC B   5      19.167  54.686  13.1890  0.00  0.00     0.000 O
ATOM     65   O  BGC B   5      19.401  52.774  15.1350  0.00  0.00     0.000 O
ATOM     67  HD  BGC B   5      19.575  51.964  15.3860  0.00  0.00     0.000 HD
ATOM     67   O  BGC B   5      19.401  52.774  15.1350  0.00  0.00     0.000 O
ATOM     69  HD  BGC B   5      19.575  51.964  15.3860  0.00  0.00     0.000 HD
ENDBRANCH 58 62
ENDBRANCH 45 58
ENDBRANCH 44 48
ENDBRANCH 31 44
ENDBRANCH 30 34
ENDBRANCH 17 30
ENDBRANCH 16 20
ENDBRANCH 1 16
TORSDOF 8
ENDMDL
MODEL 73
REMARK VINA RESULT:      -0.2     60.863     64.333
ROOT
ATOM      1  C1  BGC B   1      11.011  46.705  56.6090  0.00  0.00     0.000 C
ATOM      2  C2  BGC B   1       9.657  47.257  56.1680  0.00  0.00     0.000 C
ATOM      3  C3  BGC B   1       8.723  47.360  57.3590  0.00  0.00     0.000 C
ATOM      4  C4  BGC B   1       8.656  46.034  58.1070  0.00  0.00     0.000 C
ATOM      5  C5  BGC B   1      10.070  45.625  58.4910  0.00  0.00     0.000 C
ATOM      6  O5  BGC B   1      10.817  45.463  57.2710  0.00  0.00     0.000 O
ATOM      7   O  BGC B   1       9.842  48.564  55.5980  0.00  0.00     0.000 O
ATOM      9  HD  BGC B   1       9.181  49.121  55.6450  0.00  0.00     0.000 HD
ATOM      9   O  BGC B   1       7.427  47.752  56.8970  0.00  0.00     0.000 O
ATOM     11  HD  BGC B   1       6.766  48.309  56.9450  0.00  0.00     0.000 HD
ATOM     11   O  BGC B   1       7.867  46.185  59.2670  0.00  0.00     0.000 O
ATOM     13  HD  BGC B   1       7.205  46.742  59.3140  0.00  0.00     0.000 HD
ATOM     13   C  BGC B   1      10.166  44.335  59.2930  0.00  0.00     0.000 C
ATOM     14   O  BGC B   1       9.541  43.239  58.6330  0.00  0.00     0.000 O
ATOM     16  HD  BGC B   1       8.880  43.796  58.6800  0.00  0.00     0.000 HD
ENDROOT
BRANCH 1 16
ATOM     16  O4  BGC B   2      11.719  46.383  55.4140  0.00  0.00     0.000 O
BRANCH 16 20
ATOM     17  C1  BGC B   2      15.478  46.289  53.8650  0.00  0.00     0.000 C
ATOM     18  C2  BGC B   2      15.185  45.148  54.8270  0.00  0.00     0.000 C
ATOM     19  C3  BGC B   2      13.675  45.076  55.0490  0.00  0.00     0.000 C
ATOM     20  C4  BGC B   2      13.141  46.421  55.4960  0.00  0.00     0.000 C
ATOM     21  C5  BGC B   2      13.621  47.565  54.6020  0.00  0.00     0.000 C
ATOM     22  O5  BGC B   2      15.050  47.503  54.5090  0.00  0.00     0.000 O
ATOM     23   O  BGC B   2      15.638  43.903  54.2700  0.00  0.00     0.000 O
ATOM     25  HD  BGC B   2      14.859  44.272  54.3500  0.00  0.00     0.000 HD
ATOM     25   O  BGC B   2      13.375  44.080  56.0200  0.00  0.00     0.000 O
ATOM     27  HD  BGC B   2      12.596  44.449  56.0990  0.00  0.00     0.000 HD
ATOM     27   C  BGC B   2      13.250  48.939  55.1450  0.00  0.00     0.000 C
ATOM     28   O  BGC B   2      13.725  49.171  56.4610  0.00  0.00     0.000 O
ATOM     30  HD  BGC B   2      12.945  49.540  56.5410  0.00  0.00     0.000 HD
BRANCH 17 30
ATOM     30  O4  BGC B   3      16.886  46.396  53.7730  0.00  0.00     0.000 O
BRANCH 30 34
ATOM     31  C1  BGC B   3      19.792  47.457  51.0610  0.00  0.00     0.000 C
ATOM     32  C2  BGC B   3      18.973  48.627  51.6040  0.00  0.00     0.000 C
ATOM     33  C3  BGC B   3      18.237  48.175  52.8530  0.00  0.00     0.000 C
ATOM     34  C4  BGC B   3      17.390  46.939  52.5490  0.00  0.00     0.000 C
ATOM     35  C5  BGC B   3      18.236  45.870  51.8810  0.00  0.00     0.000 C
ATOM     36  O5  BGC B   3      18.879  46.423  50.7270  0.00  0.00     0.000 O
ATOM     37   O  BGC B   3      19.847  49.696  51.9580  0.00  0.00     0.000 O
ATOM     39  HD  BGC B   3      19.155  50.203  52.0730  0.00  0.00     0.000 HD
ATOM     39   O  BGC B   3      17.420  49.243  53.3060  0.00  0.00     0.000 O
ATOM     41  HD  BGC B   3      16.727  49.750  53.4210  0.00  0.00     0.000 HD
ATOM     41   C  BGC B   3      17.451  44.634  51.4570  0.00  0.00     0.000 C
ATOM     42   O  BGC B   3      16.412  44.995  50.5800  0.00  0.00     0.000 O
ATOM     44  HD  BGC B   3      15.719  45.502  50.6950  0.00  0.00     0.000 HD
BRANCH 31 44
ATOM     44  O4  BGC B   4      20.373  47.881  49.8550  0.00  0.00     0.000 O
BRANCH 44 48
ATOM     45  C1  BGC B   4      23.732  47.312  47.5750  0.00  0.00     0.000 C
ATOM     46  C2  BGC B   4      22.741  46.157  47.5500  0.00  0.00     0.000 C
ATOM     47  C3  BGC B   4      21.409  46.626  48.0810  0.00  0.00     0.000 C
ATOM     48  C4  BGC B   4      21.582  47.262  49.4640  0.00  0.00     0.000 C
ATOM     49  C5  BGC B   4      22.668  48.344  49.4270  0.00  0.00     0.000 C
ATOM     50  O5  BGC B   4      23.888  47.790  48.9130  0.00  0.00     0.000 O
ATOM     51   O  BGC B   4      22.569  45.684  46.2010  0.00  0.00     0.000 O
ATOM     53  HD  BGC B   4      21.840  46.144  46.2790  0.00  0.00     0.000 HD
ATOM     53   O  BGC B   4      20.526  45.499  48.1740  0.00  0.00     0.000 O
ATOM     55  HD  BGC B   4      19.797  45.959  48.2520  0.00  0.00     0.000 HD
ATOM     55   C  BGC B   4      22.993  48.953  50.7790  0.00  0.00     0.000 C
ATOM     56   O  BGC B   4      23.340  47.887  51.6650  0.00  0.00     0.000 O
ATOM     58  HD  BGC B   4      22.611  48.347  51.7430  0.00  0.00     0.000 HD
BRANCH 45 58
ATOM     58  O4  BGC B   5      25.011  46.736  47.3100  0.00  0.00     0.000 O
BRANCH 58 62
ATOM     59  C1  BGC B   5      28.386  47.258  44.9680  0.00  0.00     0.000 C
ATOM     60  C2  BGC B   5      28.259  48.204  46.1450  0.00  0.00     0.000 C
ATOM     61  C3  BGC B   5      27.250  47.675  47.1470  0.00  0.00     0.000 C
ATOM     62  C4  BGC B   5      25.928  47.410  46.4450  0.00  0.00     0.000 C
ATOM     63  C5  BGC B   5      26.138  46.511  45.2180  0.00  0.00     0.000 C
ATOM     64  O5  BGC B   5      27.098  47.119  44.3600  0.00  0.00     0.000 O
ATOM     65   O  BGC B   5      24.420  47.595  44.0460  0.00  0.00     0.000 O
ATOM     67  HD  BGC B   5      23.715  48.080  44.1740  0.00  0.00     0.000 HD
ATOM     67   O  BGC B   5      24.420  47.595  44.0460  0.00  0.00     0.000 O
ATOM     69  HD  BGC B   5      23.715  48.080  44.1740  0.00  0.00     0.000 HD
ENDBRANCH 58 62
ENDBRANCH 45 58
ENDBRANCH 44 48
ENDBRANCH 31 44
ENDBRANCH 30 34
ENDBRANCH 17 30
ENDBRANCH 16 20
ENDBRANCH 1 16
TORSDOF 8
ENDMDL
MODEL 74
REMARK VINA RESULT:      -0.2     49.909     52.434
ROOT
ATOM      1  C1  BGC B   1      29.696  30.564  44.3330  0.00  0.00     0.000 C
ATOM      2  C2  BGC B   1      29.422  30.685  45.8310  0.00  0.00     0.000 C
ATOM      3  C3  BGC B   1      28.037  30.158  46.1520  0.00  0.00     0.000 C
ATOM      4  C4  BGC B   1      26.990  30.814  45.2590  0.00  0.00     0.000 C
ATOM      5  C5  BGC B   1      27.391  30.597  43.8070  0.00  0.00     0.000 C
ATOM      6  O5  BGC B   1      28.668  31.231  43.6140  0.00  0.00     0.000 O
ATOM      7   O  BGC B   1      30.399  29.918  46.5540  0.00  0.00     0.000 O
ATOM      9  HD  BGC B   1      30.171  29.602  47.3270  0.00  0.00     0.000 HD
ATOM      9   O  BGC B   1      27.756  30.405  47.5320  0.00  0.00     0.000 O
ATOM     11  HD  BGC B   1      27.528  30.088  48.3060  0.00  0.00     0.000 HD
ATOM     11   O  BGC B   1      25.728  30.232  45.5030  0.00  0.00     0.000 O
ATOM     13  HD  BGC B   1      25.500  29.916  46.2760  0.00  0.00     0.000 HD
ATOM     13   C  BGC B   1      26.412  31.156  42.7840  0.00  0.00     0.000 C
ATOM     14   O  BGC B   1      26.157  32.543  42.9810  0.00  0.00     0.000 O
ATOM     16  HD  BGC B   1      25.929  32.227  43.7540  0.00  0.00     0.000 HD
ENDROOT
BRANCH 1 16
ATOM     16  O4  BGC B   2      30.878  31.323  44.0820  0.00  0.00     0.000 O
BRANCH 16 20
ATOM     17  C1  BGC B   2      34.179  31.382  41.7080  0.00  0.00     0.000 C
ATOM     18  C2  BGC B   2      32.906  31.816  40.9960  0.00  0.00     0.000 C
ATOM     19  C3  BGC B   2      31.837  32.103  42.0470  0.00  0.00     0.000 C
ATOM     20  C4  BGC B   2      31.662  30.911  42.9650  0.00  0.00     0.000 C
ATOM     21  C5  BGC B   2      32.995  30.393  43.5080  0.00  0.00     0.000 C
ATOM     22  O5  BGC B   2      33.876  30.157  42.4030  0.00  0.00     0.000 O
ATOM     23   O  BGC B   2      33.149  33.009  40.2330  0.00  0.00     0.000 O
ATOM     25  HD  BGC B   2      32.763  32.855  40.9930  0.00  0.00     0.000 HD
ATOM     25   O  BGC B   2      30.605  32.419  41.4100  0.00  0.00     0.000 O
ATOM     27  HD  BGC B   2      30.218  32.265  42.1700  0.00  0.00     0.000 HD
ATOM     27   C  BGC B   2      32.855  29.085  44.2770  0.00  0.00     0.000 C
ATOM     28   O  BGC B   2      32.247  28.051  43.5210  0.00  0.00     0.000 O
ATOM     30  HD  BGC B   2      31.860  27.896  44.2810  0.00  0.00     0.000 HD
BRANCH 17 30
ATOM     30  O4  BGC B   3      35.107  31.017  40.7040  0.00  0.00     0.000 O
BRANCH 30 34
ATOM     31  C1  BGC B   3      39.165  30.985  40.0310  0.00  0.00     0.000 C
ATOM     32  C2  BGC B   3      38.678  29.928  41.0220  0.00  0.00     0.000 C
ATOM     33  C3  BGC B   3      37.173  29.778  40.8800  0.00  0.00     0.000 C
ATOM     34  C4  BGC B   3      36.488  31.132  41.0600  0.00  0.00     0.000 C
ATOM     35  C5  BGC B   3      37.118  32.169  40.1470  0.00  0.00     0.000 C
ATOM     36  O5  BGC B   3      38.531  32.207  40.3730  0.00  0.00     0.000 O
ATOM     37   O  BGC B   3      39.287  28.675  40.7190  0.00  0.00     0.000 O
ATOM     39  HD  BGC B   3      38.967  28.359  41.4590  0.00  0.00     0.000 HD
ATOM     39   O  BGC B   3      36.719  28.853  41.8560  0.00  0.00     0.000 O
ATOM     41  HD  BGC B   3      36.399  28.537  42.5960  0.00  0.00     0.000 HD
ATOM     41   C  BGC B   3      36.556  33.575  40.3260  0.00  0.00     0.000 C
ATOM     42   O  BGC B   3      36.717  33.996  41.6600  0.00  0.00     0.000 O
ATOM     44  HD  BGC B   3      36.397  33.681  42.4000  0.00  0.00     0.000 HD
BRANCH 31 44
ATOM     44  O4  BGC B   4      40.538  31.169  40.2620  0.00  0.00     0.000 O
BRANCH 44 48
ATOM     45  C1  BGC B   4      43.994  32.129  38.2760  0.00  0.00     0.000 C
ATOM     46  C2  BGC B   4      43.045  33.297  38.5070  0.00  0.00     0.000 C
ATOM     47  C3  BGC B   4      42.032  32.921  39.5600  0.00  0.00     0.000 C
ATOM     48  C4  BGC B   4      41.325  31.617  39.1780  0.00  0.00     0.000 C
ATOM     49  C5  BGC B   4      42.351  30.521  38.8630  0.00  0.00     0.000 C
ATOM     50  O5  BGC B   4      43.257  30.982  37.8500  0.00  0.00     0.000 O
ATOM     51   O  BGC B   4      43.782  34.450  38.9540  0.00  0.00     0.000 O
ATOM     53  HD  BGC B   4      43.453  34.195  39.7130  0.00  0.00     0.000 HD
ATOM     53   O  BGC B   4      41.069  33.979  39.6720  0.00  0.00     0.000 O
ATOM     55  HD  BGC B   4      40.739  33.724  40.4320  0.00  0.00     0.000 HD
ATOM     55   C  BGC B   4      41.746  29.222  38.3600  0.00  0.00     0.000 C
ATOM     56   O  BGC B   4      40.936  29.529  37.2240  0.00  0.00     0.000 O
ATOM     58  HD  BGC B   4      40.607  29.274  37.9840  0.00  0.00     0.000 HD
BRANCH 45 58
ATOM     58  O4  BGC B   5      44.743  32.458  37.1070  0.00  0.00     0.000 O
BRANCH 58 62
ATOM     59  C1  BGC B   5      48.606  32.502  35.6170  0.00  0.00     0.000 C
ATOM     60  C2  BGC B   5      47.984  31.129  35.7690  0.00  0.00     0.000 C
ATOM     61  C3  BGC B   5      46.478  31.240  35.9120  0.00  0.00     0.000 C
ATOM     62  C4  BGC B   5      46.144  32.180  37.0600  0.00  0.00     0.000 C
ATOM     63  C5  BGC B   5      46.868  33.523  36.8870  0.00  0.00     0.000 C
ATOM     64  O5  BGC B   5      48.266  33.281  36.7690  0.00  0.00     0.000 O
ATOM     65   O  BGC B   5      47.115  33.766  39.2050  0.00  0.00     0.000 O
ATOM     67  HD  BGC B   5      46.779  33.491  39.9540  0.00  0.00     0.000 HD
ATOM     67   O  BGC B   5      47.115  33.766  39.2050  0.00  0.00     0.000 O
ATOM     69  HD  BGC B   5      46.779  33.491  39.9540  0.00  0.00     0.000 HD
ENDBRANCH 58 62
ENDBRANCH 45 58
ENDBRANCH 44 48
ENDBRANCH 31 44
ENDBRANCH 30 34
ENDBRANCH 17 30
ENDBRANCH 16 20
ENDBRANCH 1 16
TORSDOF 8
ENDMDL
MODEL 75
REMARK VINA RESULT:      -0.2     38.696     43.065
ROOT
ATOM      1  C1  BGC B   1      32.125  30.981  33.5840  0.00  0.00     0.000 C
ATOM      2  C2  BGC B   1      33.478  30.333  33.8730  0.00  0.00     0.000 C
ATOM      3  C3  BGC B   1      33.392  29.487  35.1290  0.00  0.00     0.000 C
ATOM      4  C4  BGC B   1      32.813  30.294  36.2840  0.00  0.00     0.000 C
ATOM      5  C5  BGC B   1      31.468  30.858  35.8520  0.00  0.00     0.000 C
ATOM      6  O5  BGC B   1      31.705  31.719  34.7230  0.00  0.00     0.000 O
ATOM      7   O  BGC B   1      33.850  29.498  32.7640  0.00  0.00     0.000 O
ATOM      9  HD  BGC B   1      34.365  28.821  32.9250  0.00  0.00     0.000 HD
ATOM      9   O  BGC B   1      34.700  29.003  35.4500  0.00  0.00     0.000 O
ATOM     11  HD  BGC B   1      35.215  28.326  35.6110  0.00  0.00     0.000 HD
ATOM     11   O  BGC B   1      32.646  29.458  37.4090  0.00  0.00     0.000 O
ATOM     13  HD  BGC B   1      33.161  28.781  37.5700  0.00  0.00     0.000 HD
ATOM     13   C  BGC B   1      30.735  31.654  36.9220  0.00  0.00     0.000 C
ATOM     14   O  BGC B   1      31.526  32.718  37.4430  0.00  0.00     0.000 O
ATOM     16  HD  BGC B   1      32.041  32.041  37.6040  0.00  0.00     0.000 HD
ENDROOT
BRANCH 1 16
ATOM     16  O4  BGC B   2      32.360  31.959  32.5730  0.00  0.00     0.000 O
BRANCH 16 20
ATOM     17  C1  BGC B   2      30.609  33.657  29.3190  0.00  0.00     0.000 C
ATOM     18  C2  BGC B   2      30.049  34.154  30.6430  0.00  0.00     0.000 C
ATOM     19  C3  BGC B   2      31.005  33.740  31.7600  0.00  0.00     0.000 C
ATOM     20  C4  BGC B   2      31.261  32.248  31.7120  0.00  0.00     0.000 C
ATOM     21  C5  BGC B   2      31.639  31.766  30.3100  0.00  0.00     0.000 C
ATOM     22  O5  BGC B   2      30.640  32.220  29.3880  0.00  0.00     0.000 O
ATOM     23   O  BGC B   2      29.938  35.587  30.6260  0.00  0.00     0.000 O
ATOM     25  HD  BGC B   2      30.503  35.037  30.9840  0.00  0.00     0.000 HD
ATOM     25   O  BGC B   2      30.462  34.107  33.0230  0.00  0.00     0.000 O
ATOM     27  HD  BGC B   2      31.027  33.557  33.3800  0.00  0.00     0.000 HD
ATOM     27   C  BGC B   2      31.714  30.248  30.2040  0.00  0.00     0.000 C
ATOM     28   O  BGC B   2      30.516  29.597  30.5940  0.00  0.00     0.000 O
ATOM     30  HD  BGC B   2      31.081  29.047  30.9510  0.00  0.00     0.000 HD
BRANCH 17 30
ATOM     30  O4  BGC B   3      29.645  33.959  28.3280  0.00  0.00     0.000 O
BRANCH 30 34
ATOM     31  C1  BGC B   3      29.432  34.927  24.3350  0.00  0.00     0.000 C
ATOM     32  C2  BGC B   3      29.818  33.476  24.6160  0.00  0.00     0.000 C
ATOM     33  C3  BGC B   3      29.477  33.147  26.0580  0.00  0.00     0.000 C
ATOM     34  C4  BGC B   3      30.152  34.142  27.0020  0.00  0.00     0.000 C
ATOM     35  C5  BGC B   3      29.841  35.566  26.5780  0.00  0.00     0.000 C
ATOM     36  O5  BGC B   3      30.201  35.744  25.2040  0.00  0.00     0.000 O
ATOM     37   O  BGC B   3      29.069  32.611  23.7660  0.00  0.00     0.000 O
ATOM     39  HD  BGC B   3      29.565  31.951  24.0270  0.00  0.00     0.000 HD
ATOM     39   O  BGC B   3      29.909  31.823  26.3330  0.00  0.00     0.000 O
ATOM     41  HD  BGC B   3      30.406  31.163  26.5940  0.00  0.00     0.000 HD
ATOM     41   C  BGC B   3      30.551  36.629  27.4110  0.00  0.00     0.000 C
ATOM     42   O  BGC B   3      31.945  36.439  27.3540  0.00  0.00     0.000 O
ATOM     44  HD  BGC B   3      32.441  35.779  27.6150  0.00  0.00     0.000 HD
BRANCH 31 44
ATOM     44  O4  BGC B   4      29.855  35.225  23.0290  0.00  0.00     0.000 O
BRANCH 44 48
ATOM     45  C1  BGC B   4      28.785  37.489  19.7840  0.00  0.00     0.000 C
ATOM     46  C2  BGC B   4      29.399  38.274  20.9340  0.00  0.00     0.000 C
ATOM     47  C3  BGC B   4      30.098  37.323  21.8750  0.00  0.00     0.000 C
ATOM     48  C4  BGC B   4      29.138  36.217  22.3240  0.00  0.00     0.000 C
ATOM     49  C5  BGC B   4      28.485  35.545  21.1100  0.00  0.00     0.000 C
ATOM     50  O5  BGC B   4      27.848  36.536  20.2910  0.00  0.00     0.000 O
ATOM     51   O  BGC B   4      30.356  39.223  20.4280  0.00  0.00     0.000 O
ATOM     53  HD  BGC B   4      30.904  38.616  20.7140  0.00  0.00     0.000 HD
ATOM     53   O  BGC B   4      30.558  38.059  23.0180  0.00  0.00     0.000 O
ATOM     55  HD  BGC B   4      31.105  37.452  23.3040  0.00  0.00     0.000 HD
ATOM     55   C  BGC B   4      27.428  34.512  21.4580  0.00  0.00     0.000 C
ATOM     56   O  BGC B   4      26.459  35.145  22.2950  0.00  0.00     0.000 O
ATOM     58  HD  BGC B   4      27.006  34.538  22.5820  0.00  0.00     0.000 HD
BRANCH 45 58
ATOM     58  O4  BGC B   5      27.937  38.406  19.0930  0.00  0.00     0.000 O
BRANCH 58 62
ATOM     59  C1  BGC B   5      27.068  39.773  15.2810  0.00  0.00     0.000 C
ATOM     60  C2  BGC B   5      26.462  38.432  15.6450  0.00  0.00     0.000 C
ATOM     61  C3  BGC B   5      26.485  38.228  17.1480  0.00  0.00     0.000 C
ATOM     62  C4  BGC B   5      27.904  38.404  17.6630  0.00  0.00     0.000 C
ATOM     63  C5  BGC B   5      28.488  39.745  17.1940  0.00  0.00     0.000 C
ATOM     64  O5  BGC B   5      28.412  39.808  15.7740  0.00  0.00     0.000 O
ATOM     65   O  BGC B   5      30.639  38.828  17.0270  0.00  0.00     0.000 O
ATOM     67  HD  BGC B   5      31.118  38.168  17.3190  0.00  0.00     0.000 HD
ATOM     67   O  BGC B   5      30.639  38.828  17.0270  0.00  0.00     0.000 O
ATOM     69  HD  BGC B   5      31.118  38.168  17.3190  0.00  0.00     0.000 HD
ENDBRANCH 58 62
ENDBRANCH 45 58
ENDBRANCH 44 48
ENDBRANCH 31 44
ENDBRANCH 30 34
ENDBRANCH 17 30
ENDBRANCH 16 20
ENDBRANCH 1 16
TORSDOF 8
ENDMDL
MODEL 76
REMARK VINA RESULT:      -0.2     48.966     52.211
ROOT
ATOM      1  C1  BGC B   1      38.619  36.289  31.5310  0.00  0.00     0.000 C
ATOM      2  C2  BGC B   1      38.042  37.546  32.1790  0.00  0.00     0.000 C
ATOM      3  C3  BGC B   1      37.058  38.213  31.2380  0.00  0.00     0.000 C
ATOM      4  C4  BGC B   1      37.688  38.436  29.8690  0.00  0.00     0.000 C
ATOM      5  C5  BGC B   1      38.198  37.100  29.3500  0.00  0.00     0.000 C
ATOM      6  O5  BGC B   1      39.194  36.630  30.2770  0.00  0.00     0.000 O
ATOM      7   O  BGC B   1      37.364  37.184  33.3940  0.00  0.00     0.000 O
ATOM      9  HD  BGC B   1      36.712  37.689  33.6570  0.00  0.00     0.000 HD
ATOM      9   O  BGC B   1      36.636  39.454  31.8130  0.00  0.00     0.000 O
ATOM     11  HD  BGC B   1      35.984  39.959  32.0760  0.00  0.00     0.000 HD
ATOM     11   O  BGC B   1      36.723  38.959  28.9830  0.00  0.00     0.000 O
ATOM     13  HD  BGC B   1      36.071  39.465  29.2460  0.00  0.00     0.000 HD
ATOM     13   C  BGC B   1      38.816  37.148  27.9600  0.00  0.00     0.000 C
ATOM     14   O  BGC B   1      39.870  38.101  27.8680  0.00  0.00     0.000 O
ATOM     16  HD  BGC B   1      39.218  38.607  28.1310  0.00  0.00     0.000 HD
ENDROOT
BRANCH 1 16
ATOM     16  O4  BGC B   2      39.717  35.888  32.3470  0.00  0.00     0.000 O
BRANCH 16 20
ATOM     17  C1  BGC B   2      41.671  32.568  33.6520  0.00  0.00     0.000 C
ATOM     18  C2  BGC B   2      41.971  32.924  32.2030  0.00  0.00     0.000 C
ATOM     19  C3  BGC B   2      41.491  34.351  31.9450  0.00  0.00     0.000 C
ATOM     20  C4  BGC B   2      40.034  34.498  32.3350  0.00  0.00     0.000 C
ATOM     21  C5  BGC B   2      39.747  33.950  33.7330  0.00  0.00     0.000 C
ATOM     22  O5  BGC B   2      40.240  32.607  33.8070  0.00  0.00     0.000 O
ATOM     23   O  BGC B   2      43.385  32.853  31.9590  0.00  0.00     0.000 O
ATOM     25  HD  BGC B   2      42.834  33.509  32.0870  0.00  0.00     0.000 HD
ATOM     25   O  BGC B   2      41.670  34.681  30.5730  0.00  0.00     0.000 O
ATOM     27  HD  BGC B   2      41.119  35.337  30.7000  0.00  0.00     0.000 HD
ATOM     27   C  BGC B   2      38.260  33.917  34.0640  0.00  0.00     0.000 C
ATOM     28   O  BGC B   2      37.492  33.180  33.1280  0.00  0.00     0.000 O
ATOM     30  HD  BGC B   2      36.941  33.836  33.2550  0.00  0.00     0.000 HD
BRANCH 17 30
ATOM     30  O4  BGC B   3      42.025  31.208  33.8200  0.00  0.00     0.000 O
BRANCH 30 34
ATOM     31  C1  BGC B   3      43.439  28.662  36.7260  0.00  0.00     0.000 C
ATOM     32  C2  BGC B   3      41.987  29.099  36.9170  0.00  0.00     0.000 C
ATOM     33  C3  BGC B   3      41.475  29.685  35.6130  0.00  0.00     0.000 C
ATOM     34  C4  BGC B   3      42.387  30.820  35.1490  0.00  0.00     0.000 C
ATOM     35  C5  BGC B   3      43.833  30.357  35.1200  0.00  0.00     0.000 C
ATOM     36  O5  BGC B   3      44.188  29.822  36.3990  0.00  0.00     0.000 O
ATOM     37   O  BGC B   3      41.188  27.964  37.2460  0.00  0.00     0.000 O
ATOM     39  HD  BGC B   3      40.530  28.499  37.4200  0.00  0.00     0.000 HD
ATOM     39   O  BGC B   3      40.152  30.158  35.8210  0.00  0.00     0.000 O
ATOM     41  HD  BGC B   3      39.494  30.692  35.9950  0.00  0.00     0.000 HD
ATOM     41   C  BGC B   3      44.827  31.455  34.7560  0.00  0.00     0.000 C
ATOM     42   O  BGC B   3      44.719  32.528  35.6610  0.00  0.00     0.000 O
ATOM     44  HD  BGC B   3      44.060  33.062  35.8350  0.00  0.00     0.000 HD
BRANCH 31 44
ATOM     44  O4  BGC B   4      43.908  28.222  37.9740  0.00  0.00     0.000 O
BRANCH 44 48
ATOM     45  C1  BGC B   4      46.555  25.550  39.6060  0.00  0.00     0.000 C
ATOM     46  C2  BGC B   4      47.192  26.799  39.0140  0.00  0.00     0.000 C
ATOM     47  C3  BGC B   4      46.135  27.857  38.8120  0.00  0.00     0.000 C
ATOM     48  C4  BGC B   4      44.978  27.299  37.9780  0.00  0.00     0.000 C
ATOM     49  C5  BGC B   4      44.459  25.989  38.5840  0.00  0.00     0.000 C
ATOM     50  O5  BGC B   4      45.543  25.058  38.7260  0.00  0.00     0.000 O
ATOM     51   O  BGC B   4      48.202  27.308  39.9070  0.00  0.00     0.000 O
ATOM     53  HD  BGC B   4      47.566  27.869  40.0850  0.00  0.00     0.000 HD
ATOM     53   O  BGC B   4      46.724  28.976  38.1350  0.00  0.00     0.000 O
ATOM     55  HD  BGC B   4      46.089  29.537  38.3130  0.00  0.00     0.000 HD
ATOM     55   C  BGC B   4      43.386  25.298  37.7610  0.00  0.00     0.000 C
ATOM     56   O  BGC B   4      43.906  25.102  36.4450  0.00  0.00     0.000 O
ATOM     58  HD  BGC B   4      43.270  25.663  36.6220  0.00  0.00     0.000 HD
BRANCH 45 58
ATOM     58  O4  BGC B   5      47.548  24.528  39.5260  0.00  0.00     0.000 O
BRANCH 58 62
ATOM     59  C1  BGC B   5      49.406  21.645  41.8450  0.00  0.00     0.000 C
ATOM     60  C2  BGC B   5      48.052  21.256  41.2860  0.00  0.00     0.000 C
ATOM     61  C3  BGC B   5      47.662  22.178  40.1460  0.00  0.00     0.000 C
ATOM     62  C4  BGC B   5      47.724  23.622  40.6170  0.00  0.00     0.000 C
ATOM     63  C5  BGC B   5      49.092  23.929  41.2450  0.00  0.00     0.000 C
ATOM     64  O5  BGC B   5      49.333  23.001  42.2970  0.00  0.00     0.000 O
ATOM     65   O  BGC B   5      48.129  25.410  42.7860  0.00  0.00     0.000 O
ATOM     67  HD  BGC B   5      47.421  25.895  42.9080  0.00  0.00     0.000 HD
ATOM     67   O  BGC B   5      48.129  25.410  42.7860  0.00  0.00     0.000 O
ATOM     69  HD  BGC B   5      47.421  25.895  42.9080  0.00  0.00     0.000 HD
ENDBRANCH 58 62
ENDBRANCH 45 58
ENDBRANCH 44 48
ENDBRANCH 31 44
ENDBRANCH 30 34
ENDBRANCH 17 30
ENDBRANCH 16 20
ENDBRANCH 1 16
TORSDOF 8
ENDMDL
MODEL 77
REMARK VINA RESULT:      -0.2     55.391     58.583
ROOT
ATOM      1  C1  BGC B   1      17.092  32.339  61.9100  0.00  0.00     0.000 C
ATOM      2  C2  BGC B   1      17.150  33.845  61.6570  0.00  0.00     0.000 C
ATOM      3  C3  BGC B   1      17.955  34.526  62.7470  0.00  0.00     0.000 C
ATOM      4  C4  BGC B   1      17.438  34.132  64.1250  0.00  0.00     0.000 C
ATOM      5  C5  BGC B   1      17.454  32.614  64.2310  0.00  0.00     0.000 C
ATOM      6  O5  BGC B   1      16.575  32.103  63.2120  0.00  0.00     0.000 O
ATOM      7   O  BGC B   1      17.776  34.087  60.3860  0.00  0.00     0.000 O
ATOM      9  HD  BGC B   1      18.193  34.839  60.2790  0.00  0.00     0.000 HD
ATOM      9   O  BGC B   1      17.882  35.942  62.5610  0.00  0.00     0.000 O
ATOM     11  HD  BGC B   1      18.299  36.694  62.4540  0.00  0.00     0.000 HD
ATOM     11   O  BGC B   1      18.266  34.693  65.1200  0.00  0.00     0.000 O
ATOM     13  HD  BGC B   1      18.684  35.444  65.0140  0.00  0.00     0.000 HD
ATOM     13   C  BGC B   1      17.007  32.063  65.5770  0.00  0.00     0.000 C
ATOM     14   O  BGC B   1      15.715  32.529  65.9520  0.00  0.00     0.000 O
ATOM     16  HD  BGC B   1      16.132  33.280  65.8450  0.00  0.00     0.000 HD
ENDROOT
BRANCH 1 16
ATOM     16  O4  BGC B   2      16.106  31.824  61.0190  0.00  0.00     0.000 O
BRANCH 16 20
ATOM     17  C1  BGC B   2      15.208  28.518  58.8270  0.00  0.00     0.000 C
ATOM     18  C2  BGC B   2      14.971  28.344  60.3200  0.00  0.00     0.000 C
ATOM     19  C3  BGC B   2      14.986  29.723  60.9770  0.00  0.00     0.000 C
ATOM     20  C4  BGC B   2      16.262  30.461  60.6300  0.00  0.00     0.000 C
ATOM     21  C5  BGC B   2      16.556  30.444  59.1290  0.00  0.00     0.000 C
ATOM     22  O5  BGC B   2      16.522  29.086  58.6730  0.00  0.00     0.000 O
ATOM     23   O  BGC B   2      13.693  27.728  60.5500  0.00  0.00     0.000 O
ATOM     25  HD  BGC B   2      13.983  28.542  60.6120  0.00  0.00     0.000 HD
ATOM     25   O  BGC B   2      14.863  29.589  62.3880  0.00  0.00     0.000 O
ATOM     27  HD  BGC B   2      15.152  30.402  62.4500  0.00  0.00     0.000 HD
ATOM     27   C  BGC B   2      17.926  31.015  58.7850  0.00  0.00     0.000 C
ATOM     28   O  BGC B   2      18.991  30.364  59.4570  0.00  0.00     0.000 O
ATOM     30  HD  BGC B   2      19.281  31.178  59.5190  0.00  0.00     0.000 HD
BRANCH 17 30
ATOM     30  O4  BGC B   3      15.300  27.218  58.2740  0.00  0.00     0.000 O
BRANCH 30 34
ATOM     31  C1  BGC B   3      14.416  25.206  54.7970  0.00  0.00     0.000 C
ATOM     32  C2  BGC B   3      15.581  26.188  54.6830  0.00  0.00     0.000 C
ATOM     33  C3  BGC B   3      16.056  26.551  56.0780  0.00  0.00     0.000 C
ATOM     34  C4  BGC B   3      14.892  27.094  56.9080  0.00  0.00     0.000 C
ATOM     35  C5  BGC B   3      13.717  26.133  56.8610  0.00  0.00     0.000 C
ATOM     36  O5  BGC B   3      13.374  25.867  55.4970  0.00  0.00     0.000 O
ATOM     37   O  BGC B   3      16.659  25.568  53.9860  0.00  0.00     0.000 O
ATOM     39  HD  BGC B   3      17.058  26.335  53.9540  0.00  0.00     0.000 HD
ATOM     39   O  BGC B   3      17.085  27.522  55.9650  0.00  0.00     0.000 O
ATOM     41  HD  BGC B   3      17.485  28.290  55.9330  0.00  0.00     0.000 HD
ATOM     41   C  BGC B   3      12.475  26.638  57.5880  0.00  0.00     0.000 C
ATOM     42   O  BGC B   3      12.066  27.873  57.0510  0.00  0.00     0.000 O
ATOM     44  HD  BGC B   3      12.465  28.641  57.0190  0.00  0.00     0.000 HD
BRANCH 31 44
ATOM     44  O4  BGC B   4      13.939  24.973  53.4960  0.00  0.00     0.000 O
BRANCH 44 48
ATOM     45  C1  BGC B   4      12.130  22.063  51.2460  0.00  0.00     0.000 C
ATOM     46  C2  BGC B   4      11.223  22.736  52.2670  0.00  0.00     0.000 C
ATOM     47  C3  BGC B   4      11.863  24.018  52.7400  0.00  0.00     0.000 C
ATOM     48  C4  BGC B   4      13.280  23.747  53.2550  0.00  0.00     0.000 C
ATOM     49  C5  BGC B   4      14.096  22.978  52.2090  0.00  0.00     0.000 C
ATOM     50  O5  BGC B   4      13.400  21.780  51.8360  0.00  0.00     0.000 O
ATOM     51   O  BGC B   4       9.948  23.039  51.6700  0.00  0.00     0.000 O
ATOM     53  HD  BGC B   4      10.301  23.830  51.6480  0.00  0.00     0.000 HD
ATOM     53   O  BGC B   4      11.062  24.572  53.7940  0.00  0.00     0.000 O
ATOM     55  HD  BGC B   4      11.415  25.363  53.7720  0.00  0.00     0.000 HD
ATOM     55   C  BGC B   4      15.479  22.561  52.6750  0.00  0.00     0.000 C
ATOM     56   O  BGC B   4      15.325  21.810  53.8800  0.00  0.00     0.000 O
ATOM     58  HD  BGC B   4      15.678  22.600  53.8580  0.00  0.00     0.000 HD
BRANCH 45 58
ATOM     58  O4  BGC B   5      11.592  20.757  51.0450  0.00  0.00     0.000 O
BRANCH 58 62
ATOM     59  C1  BGC B   5      10.543  18.102  48.0460  0.00  0.00     0.000 C
ATOM     60  C2  BGC B   5      12.029  18.226  48.3140  0.00  0.00     0.000 C
ATOM     61  C3  BGC B   5      12.275  18.874  49.6630  0.00  0.00     0.000 C
ATOM     62  C4  BGC B   5      11.541  20.204  49.7280  0.00  0.00     0.000 C
ATOM     63  C5  BGC B   5      10.059  20.023  49.3690  0.00  0.00     0.000 C
ATOM     64  O5  BGC B   5       9.968  19.412  48.0860  0.00  0.00     0.000 O
ATOM     65   O  BGC B   5       9.975  22.136  48.3570  0.00  0.00     0.000 O
ATOM     67  HD  BGC B   5      10.384  22.899  48.3480  0.00  0.00     0.000 HD
ATOM     67   O  BGC B   5       9.975  22.136  48.3570  0.00  0.00     0.000 O
ATOM     69  HD  BGC B   5      10.384  22.899  48.3480  0.00  0.00     0.000 HD
ENDBRANCH 58 62
ENDBRANCH 45 58
ENDBRANCH 44 48
ENDBRANCH 31 44
ENDBRANCH 30 34
ENDBRANCH 17 30
ENDBRANCH 16 20
ENDBRANCH 1 16
TORSDOF 8
ENDMDL
MODEL 78
REMARK VINA RESULT:      -0.2     61.868     65.832
ROOT
ATOM      1  C1  BGC B   1      31.135  20.996  60.6480  0.00  0.00     0.000 C
ATOM      2  C2  BGC B   1      32.028  22.031  59.9660  0.00  0.00     0.000 C
ATOM      3  C3  BGC B   1      33.075  21.336  59.1170  0.00  0.00     0.000 C
ATOM      4  C4  BGC B   1      33.824  20.290  59.9330  0.00  0.00     0.000 C
ATOM      5  C5  BGC B   1      32.808  19.329  60.5320  0.00  0.00     0.000 C
ATOM      6  O5  BGC B   1      31.945  20.096  61.3920  0.00  0.00     0.000 O
ATOM      7   O  BGC B   1      31.220  22.872  59.1260  0.00  0.00     0.000 O
ATOM      9  HD  BGC B   1      31.598  23.234  58.4360  0.00  0.00     0.000 HD
ATOM      9   O  BGC B   1      33.976  22.319  58.5980  0.00  0.00     0.000 O
ATOM     11  HD  BGC B   1      34.354  22.681  57.9080  0.00  0.00     0.000 HD
ATOM     11   O  BGC B   1      34.717  19.587  59.0970  0.00  0.00     0.000 O
ATOM     13  HD  BGC B   1      35.095  19.948  58.4060  0.00  0.00     0.000 HD
ATOM     13   C  BGC B   1      33.408  18.189  61.3420  0.00  0.00     0.000 C
ATOM     14   O  BGC B   1      34.261  18.654  62.3840  0.00  0.00     0.000 O
ATOM     16  HD  BGC B   1      34.639  19.015  61.6930  0.00  0.00     0.000 HD
ENDROOT
BRANCH 1 16
ATOM     16  O4  BGC B   2      30.376  21.707  61.6240  0.00  0.00     0.000 O
BRANCH 16 20
ATOM     17  C1  BGC B   2      26.728  21.734  63.4210  0.00  0.00     0.000 C
ATOM     18  C2  BGC B   2      27.648  20.631  63.9220  0.00  0.00     0.000 C
ATOM     19  C3  BGC B   2      29.071  20.940  63.4620  0.00  0.00     0.000 C
ATOM     20  C4  BGC B   2      29.109  21.149  61.9620  0.00  0.00     0.000 C
ATOM     21  C5  BGC B   2      28.036  22.128  61.4830  0.00  0.00     0.000 C
ATOM     22  O5  BGC B   2      26.765  21.691  61.9820  0.00  0.00     0.000 O
ATOM     23   O  BGC B   2      27.619  20.578  65.3580  0.00  0.00     0.000 O
ATOM     25  HD  BGC B   2      28.185  20.895  64.7840  0.00  0.00     0.000 HD
ATOM     25   O  BGC B   2      29.941  19.877  63.8330  0.00  0.00     0.000 O
ATOM     27  HD  BGC B   2      30.507  20.193  63.2590  0.00  0.00     0.000 HD
ATOM     27   C  BGC B   2      27.937  22.204  59.9650  0.00  0.00     0.000 C
ATOM     28   O  BGC B   2      27.701  20.947  59.3520  0.00  0.00     0.000 O
ATOM     30  HD  BGC B   2      28.267  21.263  58.7780  0.00  0.00     0.000 HD
BRANCH 17 30
ATOM     30  O4  BGC B   3      25.409  21.357  63.7670  0.00  0.00     0.000 O
BRANCH 30 34
ATOM     31  C1  BGC B   3      21.810  23.068  64.7900  0.00  0.00     0.000 C
ATOM     32  C2  BGC B   3      22.201  23.242  63.3230  0.00  0.00     0.000 C
ATOM     33  C3  BGC B   3      23.306  22.254  62.9880  0.00  0.00     0.000 C
ATOM     34  C4  BGC B   3      24.481  22.431  63.9490  0.00  0.00     0.000 C
ATOM     35  C5  BGC B   3      23.999  22.390  65.3880  0.00  0.00     0.000 C
ATOM     36  O5  BGC B   3      22.959  23.357  65.5700  0.00  0.00     0.000 O
ATOM     37   O  BGC B   3      21.077  22.959  62.4930  0.00  0.00     0.000 O
ATOM     39  HD  BGC B   3      21.523  23.258  61.8140  0.00  0.00     0.000 HD
ATOM     39   O  BGC B   3      23.716  22.476  61.6480  0.00  0.00     0.000 O
ATOM     41  HD  BGC B   3      24.162  22.775  60.9680  0.00  0.00     0.000 HD
ATOM     41   C  BGC B   3      25.094  22.650  66.4160  0.00  0.00     0.000 C
ATOM     42   O  BGC B   3      25.694  23.902  66.1810  0.00  0.00     0.000 O
ATOM     44  HD  BGC B   3      26.140  24.202  65.5010  0.00  0.00     0.000 HD
BRANCH 31 44
ATOM     44  O4  BGC B   4      20.864  24.062  65.0880  0.00  0.00     0.000 O
BRANCH 44 48
ATOM     45  C1  BGC B   4      17.593  24.718  67.4700  0.00  0.00     0.000 C
ATOM     46  C2  BGC B   4      18.930  24.756  68.1980  0.00  0.00     0.000 C
ATOM     47  C3  BGC B   4      20.046  24.898  67.1920  0.00  0.00     0.000 C
ATOM     48  C4  BGC B   4      19.949  23.796  66.1320  0.00  0.00     0.000 C
ATOM     49  C5  BGC B   4      18.543  23.758  65.5200  0.00  0.00     0.000 C
ATOM     50  O5  BGC B   4      17.566  23.616  66.5620  0.00  0.00     0.000 O
ATOM     51   O  BGC B   4      18.967  25.876  69.1020  0.00  0.00     0.000 O
ATOM     53  HD  BGC B   4      19.449  26.202  68.4610  0.00  0.00     0.000 HD
ATOM     53   O  BGC B   4      21.302  24.801  67.8790  0.00  0.00     0.000 O
ATOM     55  HD  BGC B   4      21.783  25.127  67.2370  0.00  0.00     0.000 HD
ATOM     55   C  BGC B   4      18.316  22.621  64.5410  0.00  0.00     0.000 C
ATOM     56   O  BGC B   4      18.634  21.399  65.2100  0.00  0.00     0.000 O
ATOM     58  HD  BGC B   4      19.116  21.725  64.5680  0.00  0.00     0.000 HD
BRANCH 45 58
ATOM     58  O4  BGC B   5      16.628  24.328  68.4470  0.00  0.00     0.000 O
BRANCH 58 62
ATOM     59  C1  BGC B   5      12.953  25.471  69.9750  0.00  0.00     0.000 C
ATOM     60  C2  BGC B   5      12.900  24.642  68.7080  0.00  0.00     0.000 C
ATOM     61  C3  BGC B   5      14.225  23.941  68.4750  0.00  0.00     0.000 C
ATOM     62  C4  BGC B   5      15.349  24.966  68.4750  0.00  0.00     0.000 C
ATOM     63  C5  BGC B   5      15.298  25.825  69.7470  0.00  0.00     0.000 C
ATOM     64  O5  BGC B   5      14.011  26.426  69.8440  0.00  0.00     0.000 O
ATOM     65   O  BGC B   5      16.078  27.708  68.5880  0.00  0.00     0.000 O
ATOM     67  HD  BGC B   5      16.510  27.930  67.8720  0.00  0.00     0.000 HD
ATOM     67   O  BGC B   5      16.078  27.708  68.5880  0.00  0.00     0.000 O
ATOM     69  HD  BGC B   5      16.510  27.930  67.8720  0.00  0.00     0.000 HD
ENDBRANCH 58 62
ENDBRANCH 45 58
ENDBRANCH 44 48
ENDBRANCH 31 44
ENDBRANCH 30 34
ENDBRANCH 17 30
ENDBRANCH 16 20
ENDBRANCH 1 16
TORSDOF 8
ENDMDL
MODEL 79
REMARK VINA RESULT:      -0.2     36.669     39.210
ROOT
ATOM      1  C1  BGC B   1      39.658   4.708  29.5180  0.00  0.00     0.000 C
ATOM      2  C2  BGC B   1      38.609   4.754  30.6280  0.00  0.00     0.000 C
ATOM      3  C3  BGC B   1      38.543   3.416  31.3390  0.00  0.00     0.000 C
ATOM      4  C4  BGC B   1      38.359   2.283  30.3380  0.00  0.00     0.000 C
ATOM      5  C5  BGC B   1      39.480   2.359  29.3120  0.00  0.00     0.000 C
ATOM      6  O5  BGC B   1      39.365   3.628  28.6420  0.00  0.00     0.000 O
ATOM      7   O  BGC B   1      38.967   5.775  31.5750  0.00  0.00     0.000 O
ATOM      9  HD  BGC B   1      38.702   5.677  32.3930  0.00  0.00     0.000 HD
ATOM      9   O  BGC B   1      37.466   3.445  32.2800  0.00  0.00     0.000 O
ATOM     11  HD  BGC B   1      37.200   3.347  33.0980  0.00  0.00     0.000 HD
ATOM     11   O  BGC B   1      38.406   1.044  31.0110  0.00  0.00     0.000 O
ATOM     13  HD  BGC B   1      38.140   0.945  31.8290  0.00  0.00     0.000 HD
ATOM     13   C  BGC B   1      39.463   1.256  28.2630  0.00  0.00     0.000 C
ATOM     14   O  BGC B   1      38.220   1.185  27.5710  0.00  0.00     0.000 O
ATOM     16  HD  BGC B   1      37.954   1.086  28.3900  0.00  0.00     0.000 HD
ENDROOT
BRANCH 1 16
ATOM     16  O4  BGC B   2      39.463   5.885  28.7360  0.00  0.00     0.000 O
BRANCH 16 20
ATOM     17  C1  BGC B   2      41.519   8.644  26.5690  0.00  0.00     0.000 C
ATOM     18  C2  BGC B   2      41.354   7.308  25.8590  0.00  0.00     0.000 C
ATOM     19  C3  BGC B   2      40.282   6.501  26.5870  0.00  0.00     0.000 C
ATOM     20  C4  BGC B   2      40.613   6.388  28.0610  0.00  0.00     0.000 C
ATOM     21  C5  BGC B   2      40.957   7.740  28.6870  0.00  0.00     0.000 C
ATOM     22  O5  BGC B   2      41.983   8.358  27.9010  0.00  0.00     0.000 O
ATOM     23   O  BGC B   2      40.942   7.518  24.4990  0.00  0.00     0.000 O
ATOM     25  HD  BGC B   2      40.525   7.275  25.2180  0.00  0.00     0.000 HD
ATOM     25   O  BGC B   2      40.171   5.207  26.0060  0.00  0.00     0.000 O
ATOM     27  HD  BGC B   2      39.754   4.964  26.7250  0.00  0.00     0.000 HD
ATOM     27   C  BGC B   2      41.474   7.619  30.1150  0.00  0.00     0.000 C
ATOM     28   O  BGC B   2      42.604   6.771  30.2340  0.00  0.00     0.000 O
ATOM     30  HD  BGC B   2      42.187   6.527  30.9530  0.00  0.00     0.000 HD
BRANCH 17 30
ATOM     30  O4  BGC B   3      42.594   9.313  25.9380  0.00  0.00     0.000 O
BRANCH 30 34
ATOM     31  C1  BGC B   3      43.849  13.133  25.0670  0.00  0.00     0.000 C
ATOM     32  C2  BGC B   3      43.938  12.757  26.5460  0.00  0.00     0.000 C
ATOM     33  C3  BGC B   3      43.839  11.248  26.6760  0.00  0.00     0.000 C
ATOM     34  C4  BGC B   3      42.563  10.742  26.0040  0.00  0.00     0.000 C
ATOM     35  C5  BGC B   3      42.468  11.270  24.5840  0.00  0.00     0.000 C
ATOM     36  O5  BGC B   3      42.583  12.697  24.5980  0.00  0.00     0.000 O
ATOM     37   O  BGC B   3      45.199  13.173  27.0670  0.00  0.00     0.000 O
ATOM     39  HD  BGC B   3      44.915  12.980  27.8620  0.00  0.00     0.000 HD
ATOM     39   O  BGC B   3      43.845  10.914  28.0560  0.00  0.00     0.000 O
ATOM     41  HD  BGC B   3      43.561  10.720  28.8510  0.00  0.00     0.000 HD
ATOM     41   C  BGC B   3      41.178  10.890  23.8660  0.00  0.00     0.000 C
ATOM     42   O  BGC B   3      40.064  11.355  24.5910  0.00  0.00     0.000 O
ATOM     44  HD  BGC B   3      39.780  11.161  25.3860  0.00  0.00     0.000 HD
BRANCH 31 44
ATOM     44  O4  BGC B   4      43.841  14.535  24.9940  0.00  0.00     0.000 O
BRANCH 44 48
ATOM     45  C1  BGC B   4      45.043  17.594  22.5440  0.00  0.00     0.000 C
ATOM     46  C2  BGC B   4      43.812  16.839  22.0650  0.00  0.00     0.000 C
ATOM     47  C3  BGC B   4      43.243  16.029  23.2030  0.00  0.00     0.000 C
ATOM     48  C4  BGC B   4      44.326  15.127  23.8060  0.00  0.00     0.000 C
ATOM     49  C5  BGC B   4      45.570  15.947  24.1680  0.00  0.00     0.000 C
ATOM     50  O5  BGC B   4      46.026  16.671  23.0160  0.00  0.00     0.000 O
ATOM     51   O  BGC B   4      42.812  17.768  21.6040  0.00  0.00     0.000 O
ATOM     53  HD  BGC B   4      42.475  17.576  22.3780  0.00  0.00     0.000 HD
ATOM     53   O  BGC B   4      42.165  15.224  22.7050  0.00  0.00     0.000 O
ATOM     55  HD  BGC B   4      41.828  15.032  23.4790  0.00  0.00     0.000 HD
ATOM     55   C  BGC B   4      46.742  15.121  24.6670  0.00  0.00     0.000 C
ATOM     56   O  BGC B   4      47.031  14.133  23.6760  0.00  0.00     0.000 O
ATOM     58  HD  BGC B   4      46.694  13.941  24.4500  0.00  0.00     0.000 HD
BRANCH 45 58
ATOM     58  O4  BGC B   5      45.662  18.119  21.3700  0.00  0.00     0.000 O
BRANCH 58 62
ATOM     59  C1  BGC B   5      47.253  21.626  19.8460  0.00  0.00     0.000 C
ATOM     60  C2  BGC B   5      48.163  20.849  20.7750  0.00  0.00     0.000 C
ATOM     61  C3  BGC B   5      47.670  19.423  20.9350  0.00  0.00     0.000 C
ATOM     62  C4  BGC B   5      46.220  19.436  21.3900  0.00  0.00     0.000 C
ATOM     63  C5  BGC B   5      45.366  20.304  20.4540  0.00  0.00     0.000 C
ATOM     64  O5  BGC B   5      45.931  21.609  20.3950  0.00  0.00     0.000 O
ATOM     65   O  BGC B   5      43.994  20.988  22.2270  0.00  0.00     0.000 O
ATOM     67  HD  BGC B   5      43.750  20.752  23.0240  0.00  0.00     0.000 HD
ATOM     67   O  BGC B   5      43.994  20.988  22.2270  0.00  0.00     0.000 O
ATOM     69  HD  BGC B   5      43.750  20.752  23.0240  0.00  0.00     0.000 HD
ENDBRANCH 58 62
ENDBRANCH 45 58
ENDBRANCH 44 48
ENDBRANCH 31 44
ENDBRANCH 30 34
ENDBRANCH 17 30
ENDBRANCH 16 20
ENDBRANCH 1 16
TORSDOF 8
ENDMDL
MODEL 80
REMARK VINA RESULT:      -0.2     62.565     66.767
ROOT
ATOM      1  C1  BGC B   1      28.975  28.607  57.5060  0.00  0.00     0.000 C
ATOM      2  C2  BGC B   1      28.821  28.781  55.9960  0.00  0.00     0.000 C
ATOM      3  C3  BGC B   1      29.949  28.071  55.2720  0.00  0.00     0.000 C
ATOM      4  C4  BGC B   1      31.301  28.503  55.8270  0.00  0.00     0.000 C
ATOM      5  C5  BGC B   1      31.306  28.256  57.3290  0.00  0.00     0.000 C
ATOM      6  O5  BGC B   1      30.261  29.063  57.9010  0.00  0.00     0.000 O
ATOM      7   O  BGC B   1      27.565  28.218  55.5810  0.00  0.00     0.000 O
ATOM      9  HD  BGC B   1      27.505  27.921  54.7700  0.00  0.00     0.000 HD
ATOM      9   O  BGC B   1      29.856  28.361  53.8750  0.00  0.00     0.000 O
ATOM     11  HD  BGC B   1      29.796  28.063  53.0630  0.00  0.00     0.000 HD
ATOM     11   O  BGC B   1      32.326  27.753  55.2130  0.00  0.00     0.000 O
ATOM     13  HD  BGC B   1      32.267  27.456  54.4010  0.00  0.00     0.000 HD
ATOM     13   C  BGC B   1      32.616  28.594  58.0270  0.00  0.00     0.000 C
ATOM     14   O  BGC B   1      33.027  29.937  57.7870  0.00  0.00     0.000 O
ATOM     16  HD  BGC B   1      32.968  29.639  56.9760  0.00  0.00     0.000 HD
ENDROOT
BRANCH 1 16
ATOM     16  O4  BGC B   2      28.056  29.518  58.1070  0.00  0.00     0.000 O
BRANCH 16 20
ATOM     17  C1  BGC B   2      25.625  29.919  61.3420  0.00  0.00     0.000 C
ATOM     18  C2  BGC B   2      27.101  30.099  61.6610  0.00  0.00     0.000 C
ATOM     19  C3  BGC B   2      27.861  30.292  60.3510  0.00  0.00     0.000 C
ATOM     20  C4  BGC B   2      27.564  29.155  59.3950  0.00  0.00     0.000 C
ATOM     21  C5  BGC B   2      26.065  28.888  59.2530  0.00  0.00     0.000 C
ATOM     22  O5  BGC B   2      25.507  28.714  60.5620  0.00  0.00     0.000 O
ATOM     23   O  BGC B   2      27.289  31.259  62.4880  0.00  0.00     0.000 O
ATOM     25  HD  BGC B   2      27.412  31.101  61.6460  0.00  0.00     0.000 HD
ATOM     25   O  BGC B   2      29.258  30.368  60.6070  0.00  0.00     0.000 O
ATOM     27  HD  BGC B   2      29.380  30.210  59.7650  0.00  0.00     0.000 HD
ATOM     27   C  BGC B   2      25.758  27.632  58.4480  0.00  0.00     0.000 C
ATOM     28   O  BGC B   2      26.374  26.465  58.9690  0.00  0.00     0.000 O
ATOM     30  HD  BGC B   2      26.496  26.307  58.1270  0.00  0.00     0.000 HD
BRANCH 17 30
ATOM     30  O4  BGC B   3      24.974  29.631  62.5650  0.00  0.00     0.000 O
BRANCH 30 34
ATOM     31  C1  BGC B   3      21.331  30.182  64.3960  0.00  0.00     0.000 C
ATOM     32  C2  BGC B   3      21.326  29.147  63.2710  0.00  0.00     0.000 C
ATOM     33  C3  BGC B   3      22.759  28.751  62.9610  0.00  0.00     0.000 C
ATOM     34  C4  BGC B   3      23.590  29.991  62.6330  0.00  0.00     0.000 C
ATOM     35  C5  BGC B   3      23.435  31.035  63.7250  0.00  0.00     0.000 C
ATOM     36  O5  BGC B   3      22.045  31.313  63.9240  0.00  0.00     0.000 O
ATOM     37   O  BGC B   3      20.619  27.984  63.6970  0.00  0.00     0.000 O
ATOM     39  HD  BGC B   3      20.656  27.684  62.8860  0.00  0.00     0.000 HD
ATOM     39   O  BGC B   3      22.749  27.850  61.8650  0.00  0.00     0.000 O
ATOM     41  HD  BGC B   3      22.787  27.550  61.0530  0.00  0.00     0.000 HD
ATOM     41   C  BGC B   3      24.159  32.346  63.4360  0.00  0.00     0.000 C
ATOM     42   O  BGC B   3      23.703  32.895  62.2220  0.00  0.00     0.000 O
ATOM     44  HD  BGC B   3      23.740  32.595  61.4110  0.00  0.00     0.000 HD
BRANCH 31 44
ATOM     44  O4  BGC B   4      20.002  30.598  64.5840  0.00  0.00     0.000 O
BRANCH 44 48
ATOM     45  C1  BGC B   4      17.474  31.918  67.5280  0.00  0.00     0.000 C
ATOM     46  C2  BGC B   4      18.497  32.943  67.0580  0.00  0.00     0.000 C
ATOM     47  C3  BGC B   4      19.087  32.499  65.7420  0.00  0.00     0.000 C
ATOM     48  C4  BGC B   4      19.647  31.078  65.8640  0.00  0.00     0.000 C
ATOM     49  C5  BGC B   4      18.588  30.129  66.4390  0.00  0.00     0.000 C
ATOM     50  O5  BGC B   4      18.102  30.645  67.6870  0.00  0.00     0.000 O
ATOM     51   O  BGC B   4      17.864  34.225  66.8800  0.00  0.00     0.000 O
ATOM     53  HD  BGC B   4      17.913  33.980  66.0510  0.00  0.00     0.000 HD
ATOM     53   O  BGC B   4      20.138  33.404  65.3780  0.00  0.00     0.000 O
ATOM     55  HD  BGC B   4      20.188  33.159  64.5490  0.00  0.00     0.000 HD
ATOM     55   C  BGC B   4      19.087  28.720  66.7060  0.00  0.00     0.000 C
ATOM     56   O  BGC B   4      20.229  28.817  67.5590  0.00  0.00     0.000 O
ATOM     58  HD  BGC B   4      20.279  28.572  66.7300  0.00  0.00     0.000 HD
BRANCH 45 58
ATOM     58  O4  BGC B   5      17.159  32.270  68.8750  0.00  0.00     0.000 O
BRANCH 58 62
ATOM     59  C1  BGC B   5      13.927  32.857  71.3960  0.00  0.00     0.000 C
ATOM     60  C2  BGC B   5      14.306  31.410  71.1510  0.00  0.00     0.000 C
ATOM     61  C3  BGC B   5      15.708  31.316  70.5810  0.00  0.00     0.000 C
ATOM     62  C4  BGC B   5      15.808  32.181  69.3340  0.00  0.00     0.000 C
ATOM     63  C5  BGC B   5      15.335  33.612  69.6290  0.00  0.00     0.000 C
ATOM     64  O5  BGC B   5      14.012  33.561  70.1530  0.00  0.00     0.000 O
ATOM     65   O  BGC B   5      14.459  33.841  67.4670  0.00  0.00     0.000 O
ATOM     67  HD  BGC B   5      14.529  33.510  66.6700  0.00  0.00     0.000 HD
ATOM     67   O  BGC B   5      14.459  33.841  67.4670  0.00  0.00     0.000 O
ATOM     69  HD  BGC B   5      14.529  33.510  66.6700  0.00  0.00     0.000 HD
ENDBRANCH 58 62
ENDBRANCH 45 58
ENDBRANCH 44 48
ENDBRANCH 31 44
ENDBRANCH 30 34
ENDBRANCH 17 30
ENDBRANCH 16 20
ENDBRANCH 1 16
TORSDOF 8
ENDMDL
MODEL 81
REMARK VINA RESULT:      -0.2     64.618     68.539
ROOT
ATOM      1  C1  BGC B   1      27.185  28.483  59.8610  0.00  0.00     0.000 C
ATOM      2  C2  BGC B   1      27.031  28.656  58.3510  0.00  0.00     0.000 C
ATOM      3  C3  BGC B   1      28.159  27.947  57.6270  0.00  0.00     0.000 C
ATOM      4  C4  BGC B   1      29.511  28.379  58.1820  0.00  0.00     0.000 C
ATOM      5  C5  BGC B   1      29.516  28.132  59.6840  0.00  0.00     0.000 C
ATOM      6  O5  BGC B   1      28.471  28.939  60.2560  0.00  0.00     0.000 O
ATOM      7   O  BGC B   1      25.775  28.094  57.9360  0.00  0.00     0.000 O
ATOM      9  HD  BGC B   1      25.716  27.797  57.1250  0.00  0.00     0.000 HD
ATOM      9   O  BGC B   1      28.066  28.236  56.2290  0.00  0.00     0.000 O
ATOM     11  HD  BGC B   1      28.006  27.939  55.4180  0.00  0.00     0.000 HD
ATOM     11   O  BGC B   1      30.536  27.629  57.5680  0.00  0.00     0.000 O
ATOM     13  HD  BGC B   1      30.477  27.332  56.7560  0.00  0.00     0.000 HD
ATOM     13   C  BGC B   1      30.826  28.470  60.3820  0.00  0.00     0.000 C
ATOM     14   O  BGC B   1      31.237  29.812  60.1420  0.00  0.00     0.000 O
ATOM     16  HD  BGC B   1      31.178  29.515  59.3310  0.00  0.00     0.000 HD
ENDROOT
BRANCH 1 16
ATOM     16  O4  BGC B   2      26.266  29.393  60.4620  0.00  0.00     0.000 O
BRANCH 16 20
ATOM     17  C1  BGC B   2      23.835  29.794  63.6970  0.00  0.00     0.000 C
ATOM     18  C2  BGC B   2      25.311  29.975  64.0160  0.00  0.00     0.000 C
ATOM     19  C3  BGC B   2      26.071  30.167  62.7050  0.00  0.00     0.000 C
ATOM     20  C4  BGC B   2      25.774  29.030  61.7500  0.00  0.00     0.000 C
ATOM     21  C5  BGC B   2      24.275  28.763  61.6080  0.00  0.00     0.000 C
ATOM     22  O5  BGC B   2      23.717  28.590  62.9170  0.00  0.00     0.000 O
ATOM     23   O  BGC B   2      25.499  31.135  64.8430  0.00  0.00     0.000 O
ATOM     25  HD  BGC B   2      25.622  30.977  64.0010  0.00  0.00     0.000 HD
ATOM     25   O  BGC B   2      27.468  30.244  62.9620  0.00  0.00     0.000 O
ATOM     27  HD  BGC B   2      27.591  30.086  62.1200  0.00  0.00     0.000 HD
ATOM     27   C  BGC B   2      23.968  27.507  60.8030  0.00  0.00     0.000 C
ATOM     28   O  BGC B   2      24.584  26.341  61.3240  0.00  0.00     0.000 O
ATOM     30  HD  BGC B   2      24.706  26.182  60.4820  0.00  0.00     0.000 HD
BRANCH 17 30
ATOM     30  O4  BGC B   3      23.184  29.507  64.9200  0.00  0.00     0.000 O
BRANCH 30 34
ATOM     31  C1  BGC B   3      19.541  30.057  66.7510  0.00  0.00     0.000 C
ATOM     32  C2  BGC B   3      19.536  29.023  65.6260  0.00  0.00     0.000 C
ATOM     33  C3  BGC B   3      20.969  28.627  65.3160  0.00  0.00     0.000 C
ATOM     34  C4  BGC B   3      21.800  29.867  64.9880  0.00  0.00     0.000 C
ATOM     35  C5  BGC B   3      21.645  30.911  66.0800  0.00  0.00     0.000 C
ATOM     36  O5  BGC B   3      20.255  31.189  66.2790  0.00  0.00     0.000 O
ATOM     37   O  BGC B   3      18.829  27.860  66.0520  0.00  0.00     0.000 O
ATOM     39  HD  BGC B   3      18.866  27.560  65.2410  0.00  0.00     0.000 HD
ATOM     39   O  BGC B   3      20.959  27.725  64.2200  0.00  0.00     0.000 O
ATOM     41  HD  BGC B   3      20.997  27.425  63.4080  0.00  0.00     0.000 HD
ATOM     41   C  BGC B   3      22.369  32.221  65.7910  0.00  0.00     0.000 C
ATOM     42   O  BGC B   3      21.913  32.771  64.5770  0.00  0.00     0.000 O
ATOM     44  HD  BGC B   3      21.950  32.471  63.7660  0.00  0.00     0.000 HD
BRANCH 31 44
ATOM     44  O4  BGC B   4      18.212  30.473  66.9390  0.00  0.00     0.000 O
BRANCH 44 48
ATOM     45  C1  BGC B   4      15.684  31.794  69.8830  0.00  0.00     0.000 C
ATOM     46  C2  BGC B   4      16.707  32.819  69.4130  0.00  0.00     0.000 C
ATOM     47  C3  BGC B   4      17.297  32.374  68.0970  0.00  0.00     0.000 C
ATOM     48  C4  BGC B   4      17.857  30.954  68.2190  0.00  0.00     0.000 C
ATOM     49  C5  BGC B   4      16.798  30.004  68.7940  0.00  0.00     0.000 C
ATOM     50  O5  BGC B   4      16.312  30.520  70.0420  0.00  0.00     0.000 O
ATOM     51   O  BGC B   4      16.074  34.101  69.2350  0.00  0.00     0.000 O
ATOM     53  HD  BGC B   4      16.123  33.856  68.4060  0.00  0.00     0.000 HD
ATOM     53   O  BGC B   4      18.349  33.280  67.7330  0.00  0.00     0.000 O
ATOM     55  HD  BGC B   4      18.398  33.035  66.9040  0.00  0.00     0.000 HD
ATOM     55   C  BGC B   4      17.297  28.596  69.0610  0.00  0.00     0.000 C
ATOM     56   O  BGC B   4      18.439  28.692  69.9140  0.00  0.00     0.000 O
ATOM     58  HD  BGC B   4      18.489  28.447  69.0850  0.00  0.00     0.000 HD
BRANCH 45 58
ATOM     58  O4  BGC B   5      15.369  32.145  71.2300  0.00  0.00     0.000 O
BRANCH 58 62
ATOM     59  C1  BGC B   5      12.137  32.733  73.7510  0.00  0.00     0.000 C
ATOM     60  C2  BGC B   5      12.516  31.286  73.5060  0.00  0.00     0.000 C
ATOM     61  C3  BGC B   5      13.918  31.192  72.9350  0.00  0.00     0.000 C
ATOM     62  C4  BGC B   5      14.018  32.057  71.6890  0.00  0.00     0.000 C
ATOM     63  C5  BGC B   5      13.545  33.488  71.9840  0.00  0.00     0.000 C
ATOM     64  O5  BGC B   5      12.222  33.436  72.5080  0.00  0.00     0.000 O
ATOM     65   O  BGC B   5      12.669  33.717  69.8220  0.00  0.00     0.000 O
ATOM     67  HD  BGC B   5      12.739  33.386  69.0250  0.00  0.00     0.000 HD
ATOM     67   O  BGC B   5      12.669  33.717  69.8220  0.00  0.00     0.000 O
ATOM     69  HD  BGC B   5      12.739  33.386  69.0250  0.00  0.00     0.000 HD
ENDBRANCH 58 62
ENDBRANCH 45 58
ENDBRANCH 44 48
ENDBRANCH 31 44
ENDBRANCH 30 34
ENDBRANCH 17 30
ENDBRANCH 16 20
ENDBRANCH 1 16
TORSDOF 8
ENDMDL
MODEL 82
REMARK VINA RESULT:      -0.2     70.307     73.035
ROOT
ATOM      1  C1  BGC B   1      54.150  43.138  48.0480  0.00  0.00     0.000 C
ATOM      2  C2  BGC B   1      54.154  41.843  48.8580  0.00  0.00     0.000 C
ATOM      3  C3  BGC B   1      52.897  41.753  49.7020  0.00  0.00     0.000 C
ATOM      4  C4  BGC B   1      52.710  43.019  50.5280  0.00  0.00     0.000 C
ATOM      5  C5  BGC B   1      52.712  44.214  49.5860  0.00  0.00     0.000 C
ATOM      6  O5  BGC B   1      53.992  44.242  48.9290  0.00  0.00     0.000 O
ATOM      7   O  BGC B   1      54.202  40.723  47.9590  0.00  0.00     0.000 O
ATOM      9  HD  BGC B   1      53.854  39.976  48.2270  0.00  0.00     0.000 HD
ATOM      9   O  BGC B   1      52.988  40.601  50.5460  0.00  0.00     0.000 O
ATOM     11  HD  BGC B   1      52.640  39.855  50.8140  0.00  0.00     0.000 HD
ATOM     11   O  BGC B   1      51.483  42.955  51.2220  0.00  0.00     0.000 O
ATOM     13  HD  BGC B   1      51.135  42.209  51.4900  0.00  0.00     0.000 HD
ATOM     13   C  BGC B   1      52.485  45.559  50.2610  0.00  0.00     0.000 C
ATOM     14   O  BGC B   1      53.419  45.806  51.3070  0.00  0.00     0.000 O
ATOM     16  HD  BGC B   1      53.071  45.059  51.5750  0.00  0.00     0.000 HD
ENDROOT
BRANCH 1 16
ATOM     16  O4  BGC B   2      55.464  43.276  47.5120  0.00  0.00     0.000 O
BRANCH 16 20
ATOM     17  C1  BGC B   2      57.441  44.672  44.2430  0.00  0.00     0.000 C
ATOM     18  C2  BGC B   2      56.940  45.770  45.1700  0.00  0.00     0.000 C
ATOM     19  C3  BGC B   2      56.555  45.138  46.5060  0.00  0.00     0.000 C
ATOM     20  C4  BGC B   2      55.571  44.006  46.2920  0.00  0.00     0.000 C
ATOM     21  C5  BGC B   2      56.034  43.028  45.2120  0.00  0.00     0.000 C
ATOM     22  O5  BGC B   2      56.340  43.771  44.0250  0.00  0.00     0.000 O
ATOM     23   O  BGC B   2      57.977  46.741  45.3910  0.00  0.00     0.000 O
ATOM     25  HD  BGC B   2      57.659  46.090  45.8650  0.00  0.00     0.000 HD
ATOM     25   O  BGC B   2      55.992  46.125  47.3630  0.00  0.00     0.000 O
ATOM     27  HD  BGC B   2      55.674  45.473  47.8370  0.00  0.00     0.000 HD
ATOM     27   C  BGC B   2      54.974  41.994  44.8520  0.00  0.00     0.000 C
ATOM     28   O  BGC B   2      53.745  42.569  44.4390  0.00  0.00     0.000 O
ATOM     30  HD  BGC B   2      53.427  41.918  44.9130  0.00  0.00     0.000 HD
BRANCH 17 30
ATOM     30  O4  BGC B   3      57.680  45.275  42.9860  0.00  0.00     0.000 O
BRANCH 30 34
ATOM     31  C1  BGC B   3      60.164  44.885  39.7290  0.00  0.00     0.000 C
ATOM     32  C2  BGC B   3      59.115  43.782  39.8630  0.00  0.00     0.000 C
ATOM     33  C3  BGC B   3      58.040  44.241  40.8320  0.00  0.00     0.000 C
ATOM     34  C4  BGC B   3      58.667  44.638  42.1680  0.00  0.00     0.000 C
ATOM     35  C5  BGC B   3      59.796  45.629  41.9470  0.00  0.00     0.000 C
ATOM     36  O5  BGC B   3      60.734  45.083  41.0130  0.00  0.00     0.000 O
ATOM     37   O  BGC B   3      58.508  43.545  38.5940  0.00  0.00     0.000 O
ATOM     39  HD  BGC B   3      58.118  42.848  38.9290  0.00  0.00     0.000 HD
ATOM     39   O  BGC B   3      57.112  43.181  41.0100  0.00  0.00     0.000 O
ATOM     41  HD  BGC B   3      56.722  42.484  41.3450  0.00  0.00     0.000 HD
ATOM     41   C  BGC B   3      60.542  46.013  43.2210  0.00  0.00     0.000 C
ATOM     42   O  BGC B   3      61.070  44.863  43.8390  0.00  0.00     0.000 O
ATOM     44  HD  BGC B   3      60.680  44.166  44.1740  0.00  0.00     0.000 HD
BRANCH 31 44
ATOM     44  O4  BGC B   4      61.189  44.387  38.9090  0.00  0.00     0.000 O
BRANCH 44 48
ATOM     45  C1  BGC B   4      63.900  45.645  36.1030  0.00  0.00     0.000 C
ATOM     46  C2  BGC B   4      64.259  45.996  37.5390  0.00  0.00     0.000 C
ATOM     47  C3  BGC B   4      63.427  45.164  38.4840  0.00  0.00     0.000 C
ATOM     48  C4  BGC B   4      61.938  45.324  38.1630  0.00  0.00     0.000 C
ATOM     49  C5  BGC B   4      61.675  45.053  36.6760  0.00  0.00     0.000 C
ATOM     50  O5  BGC B   4      62.512  45.898  35.8740  0.00  0.00     0.000 O
ATOM     51   O  BGC B   4      65.654  45.726  37.7790  0.00  0.00     0.000 O
ATOM     53  HD  BGC B   4      65.311  45.032  38.1660  0.00  0.00     0.000 HD
ATOM     53   O  BGC B   4      63.682  45.597  39.8280  0.00  0.00     0.000 O
ATOM     55  HD  BGC B   4      63.339  44.903  40.2160  0.00  0.00     0.000 HD
ATOM     55   C  BGC B   4      60.243  45.300  36.2370  0.00  0.00     0.000 C
ATOM     56   O  BGC B   4      59.902  46.640  36.5970  0.00  0.00     0.000 O
ATOM     58  HD  BGC B   4      59.560  45.945  36.9850  0.00  0.00     0.000 HD
BRANCH 45 58
ATOM     58  O4  BGC B   5      64.525  46.637  35.2890  0.00  0.00     0.000 O
BRANCH 58 62
ATOM     59  C1  BGC B   5      66.899  47.038  31.9200  0.00  0.00     0.000 C
ATOM     60  C2  BGC B   5      65.432  46.766  31.6530  0.00  0.00     0.000 C
ATOM     61  C3  BGC B   5      64.604  47.049  32.8920  0.00  0.00     0.000 C
ATOM     62  C4  BGC B   5      65.157  46.255  34.0650  0.00  0.00     0.000 C
ATOM     63  C5  BGC B   5      66.662  46.514  34.2320  0.00  0.00     0.000 C
ATOM     64  O5  BGC B   5      67.320  46.207  33.0070  0.00  0.00     0.000 O
ATOM     65   O  BGC B   5      67.027  44.317  34.9650  0.00  0.00     0.000 O
ATOM     67  HD  BGC B   5      66.611  43.642  35.3130  0.00  0.00     0.000 HD
ATOM     67   O  BGC B   5      67.027  44.317  34.9650  0.00  0.00     0.000 O
ATOM     69  HD  BGC B   5      66.611  43.642  35.3130  0.00  0.00     0.000 HD
ENDBRANCH 58 62
ENDBRANCH 45 58
ENDBRANCH 44 48
ENDBRANCH 31 44
ENDBRANCH 30 34
ENDBRANCH 17 30
ENDBRANCH 16 20
ENDBRANCH 1 16
TORSDOF 8
ENDMDL
MODEL 83
REMARK VINA RESULT:      -0.2     54.134     59.933
ROOT
ATOM      1  C1  BGC B   1      61.249  18.513  25.0210  0.00  0.00     0.000 C
ATOM      2  C2  BGC B   1      60.668  17.306  24.2860  0.00  0.00     0.000 C
ATOM      3  C3  BGC B   1      59.774  16.510  25.2170  0.00  0.00     0.000 C
ATOM      4  C4  BGC B   1      60.504  16.175  26.5110  0.00  0.00     0.000 C
ATOM      5  C5  BGC B   1      61.007  17.471  27.1300  0.00  0.00     0.000 C
ATOM      6  O5  BGC B   1      61.920  18.070  26.1920  0.00  0.00     0.000 O
ATOM      7   O  BGC B   1      59.896  17.762  23.1630  0.00  0.00     0.000 O
ATOM      9  HD  BGC B   1      59.244  17.260  22.8930  0.00  0.00     0.000 HD
ATOM      9   O  BGC B   1      59.352  15.318  24.5470  0.00  0.00     0.000 O
ATOM     11  HD  BGC B   1      58.700  14.817  24.2760  0.00  0.00     0.000 HD
ATOM     11   O  BGC B   1      59.620  15.529  27.4010  0.00  0.00     0.000 O
ATOM     13  HD  BGC B   1      58.967  15.027  27.1310  0.00  0.00     0.000 HD
ATOM     13   C  BGC B   1      61.721  17.307  28.4640  0.00  0.00     0.000 C
ATOM     14   O  BGC B   1      62.809  16.391  28.3870  0.00  0.00     0.000 O
ATOM     16  HD  BGC B   1      62.156  15.889  28.1170  0.00  0.00     0.000 HD
ENDROOT
BRANCH 1 16
ATOM     16  O4  BGC B   2      62.275  19.036  24.1790  0.00  0.00     0.000 O
BRANCH 16 20
ATOM     17  C1  BGC B   2      64.024  22.542  23.0930  0.00  0.00     0.000 C
ATOM     18  C2  BGC B   2      64.435  22.056  24.4750  0.00  0.00     0.000 C
ATOM     19  C3  BGC B   2      64.021  20.594  24.6180  0.00  0.00     0.000 C
ATOM     20  C4  BGC B   2      62.546  20.428  24.3120  0.00  0.00     0.000 C
ATOM     21  C5  BGC B   2      62.145  21.101  22.9980  0.00  0.00     0.000 C
ATOM     22  O5  BGC B   2      62.588  22.463  23.0290  0.00  0.00     0.000 O
ATOM     23   O  BGC B   2      65.860  22.159  24.6320  0.00  0.00     0.000 O
ATOM     25  HD  BGC B   2      65.323  21.498  24.4750  0.00  0.00     0.000 HD
ATOM     25   O  BGC B   2      64.305  20.136  25.9350  0.00  0.00     0.000 O
ATOM     27  HD  BGC B   2      63.768  19.475  25.7780  0.00  0.00     0.000 HD
ATOM     27   C  BGC B   2      60.638  21.108  22.7710  0.00  0.00     0.000 C
ATOM     28   O  BGC B   2      59.913  21.717  23.8260  0.00  0.00     0.000 O
ATOM     30  HD  BGC B   2      59.376  21.056  23.6690  0.00  0.00     0.000 HD
BRANCH 17 30
ATOM     30  O4  BGC B   3      64.320  23.925  23.0410  0.00  0.00     0.000 O
BRANCH 30 34
ATOM     31  C1  BGC B   3      65.433  26.805  20.3210  0.00  0.00     0.000 C
ATOM     32  C2  BGC B   3      63.991  26.321  20.1790  0.00  0.00     0.000 C
ATOM     33  C3  BGC B   3      63.591  25.588  21.4470  0.00  0.00     0.000 C
ATOM     34  C4  BGC B   3      64.577  24.457  21.7370  0.00  0.00     0.000 C
ATOM     35  C5  BGC B   3      66.002  24.982  21.7220  0.00  0.00     0.000 C
ATOM     36  O5  BGC B   3      66.249  25.655  20.4830  0.00  0.00     0.000 O
ATOM     37   O  BGC B   3      63.127  27.444  20.0150  0.00  0.00     0.000 O
ATOM     39  HD  BGC B   3      62.480  26.898  19.8300  0.00  0.00     0.000 HD
ATOM     39   O  BGC B   3      62.278  25.076  21.2760  0.00  0.00     0.000 O
ATOM     41  HD  BGC B   3      61.631  24.530  21.0910  0.00  0.00     0.000 HD
ATOM     41   C  BGC B   3      67.062  23.903  21.9120  0.00  0.00     0.000 C
ATOM     42   O  BGC B   3      66.937  22.919  20.9130  0.00  0.00     0.000 O
ATOM     44  HD  BGC B   3      66.290  22.373  20.7280  0.00  0.00     0.000 HD
BRANCH 31 44
ATOM     44  O4  BGC B   4      65.800  27.385  19.0960  0.00  0.00     0.000 O
BRANCH 44 48
ATOM     45  C1  BGC B   4      68.192  30.347  17.5760  0.00  0.00     0.000 C
ATOM     46  C2  BGC B   4      68.935  29.101  18.0370  0.00  0.00     0.000 C
ATOM     47  C3  BGC B   4      67.957  27.963  18.1980  0.00  0.00     0.000 C
ATOM     48  C4  BGC B   4      66.808  28.376  19.1220  0.00  0.00     0.000 C
ATOM     49  C5  BGC B   4      66.179  29.691  18.6460  0.00  0.00     0.000 C
ATOM     50  O5  BGC B   4      67.194  30.700  18.5340  0.00  0.00     0.000 O
ATOM     51   O  BGC B   4      69.931  28.732  17.0650  0.00  0.00     0.000 O
ATOM     53  HD  BGC B   4      69.324  28.145  16.8690  0.00  0.00     0.000 HD
ATOM     53   O  BGC B   4      68.647  26.836  18.7570  0.00  0.00     0.000 O
ATOM     55  HD  BGC B   4      68.041  26.250  18.5610  0.00  0.00     0.000 HD
ATOM     55   C  BGC B   4      65.105  30.243  19.5670  0.00  0.00     0.000 C
ATOM     56   O  BGC B   4      65.673  30.370  20.8720  0.00  0.00     0.000 O
ATOM     58  HD  BGC B   4      65.066  29.784  20.6760  0.00  0.00     0.000 HD
BRANCH 45 58
ATOM     58  O4  BGC B   5      69.121  31.423  17.6970  0.00  0.00     0.000 O
BRANCH 58 62
ATOM     59  C1  BGC B   5      70.570  34.725  15.6600  0.00  0.00     0.000 C
ATOM     60  C2  BGC B   5      69.151  34.851  16.1770  0.00  0.00     0.000 C
ATOM     61  C3  BGC B   5      68.874  33.800  17.2350  0.00  0.00     0.000 C
ATOM     62  C4  BGC B   5      69.188  32.422  16.6750  0.00  0.00     0.000 C
ATOM     63  C5  BGC B   5      70.610  32.384  16.0970  0.00  0.00     0.000 C
ATOM     64  O5  BGC B   5      70.736  33.411  15.1190  0.00  0.00     0.000 O
ATOM     65   O  BGC B   5      69.960  30.881  14.4190  0.00  0.00     0.000 O
ATOM     67  HD  BGC B   5      69.346  30.299  14.2320  0.00  0.00     0.000 HD
ATOM     67   O  BGC B   5      69.960  30.881  14.4190  0.00  0.00     0.000 O
ATOM     69  HD  BGC B   5      69.346  30.299  14.2320  0.00  0.00     0.000 HD
ENDBRANCH 58 62
ENDBRANCH 45 58
ENDBRANCH 44 48
ENDBRANCH 31 44
ENDBRANCH 30 34
ENDBRANCH 17 30
ENDBRANCH 16 20
ENDBRANCH 1 16
TORSDOF 8
ENDMDL
MODEL 84
REMARK VINA RESULT:      -0.2     49.787     54.331
ROOT
ATOM      1  C1  BGC B   1      31.269  31.904  43.0390  0.00  0.00     0.000 C
ATOM      2  C2  BGC B   1      30.662  32.148  44.4200  0.00  0.00     0.000 C
ATOM      3  C3  BGC B   1      29.246  31.608  44.4700  0.00  0.00     0.000 C
ATOM      4  C4  BGC B   1      28.421  32.150  43.3090  0.00  0.00     0.000 C
ATOM      5  C5  BGC B   1      29.141  31.818  42.0100  0.00  0.00     0.000 C
ATOM      6  O5  BGC B   1      30.423  32.472  42.0490  0.00  0.00     0.000 O
ATOM      7   O  BGC B   1      31.459  31.479  45.4120  0.00  0.00     0.000 O
ATOM      9  HD  BGC B   1      31.066  31.225  46.1400  0.00  0.00     0.000 HD
ATOM      9   O  BGC B   1      28.658  31.968  45.7240  0.00  0.00     0.000 O
ATOM     11  HD  BGC B   1      28.265  31.714  46.4520  0.00  0.00     0.000 HD
ATOM     11   O  BGC B   1      27.143  31.553  43.3170  0.00  0.00     0.000 O
ATOM     13  HD  BGC B   1      26.749  31.299  44.0450  0.00  0.00     0.000 HD
ATOM     13   C  BGC B   1      28.413  32.254  40.7470  0.00  0.00     0.000 C
ATOM     14   O  BGC B   1      28.106  33.645  40.7510  0.00  0.00     0.000 O
ATOM     16  HD  BGC B   1      27.712  33.391  41.4800  0.00  0.00     0.000 HD
ENDROOT
BRANCH 1 16
ATOM     16  O4  BGC B   2      32.469  32.673  42.9890  0.00  0.00     0.000 O
BRANCH 16 20
ATOM     17  C1  BGC B   2      36.209  32.649  41.3950  0.00  0.00     0.000 C
ATOM     18  C2  BGC B   2      35.115  32.948  40.3810  0.00  0.00     0.000 C
ATOM     19  C3  BGC B   2      33.833  33.289  41.1380  0.00  0.00     0.000 C
ATOM     20  C4  BGC B   2      33.489  32.189  42.1210  0.00  0.00     0.000 C
ATOM     21  C5  BGC B   2      34.682  31.792  42.9920  0.00  0.00     0.000 C
ATOM     22  O5  BGC B   2      35.791  31.488  42.1360  0.00  0.00     0.000 O
ATOM     23   O  BGC B   2      35.491  34.069  39.5640  0.00  0.00     0.000 O
ATOM     25  HD  BGC B   2      34.951  33.974  40.2340  0.00  0.00     0.000 HD
ATOM     25   O  BGC B   2      32.764  33.480  40.2190  0.00  0.00     0.000 O
ATOM     27  HD  BGC B   2      32.224  33.385  40.8890  0.00  0.00     0.000 HD
ATOM     27   C  BGC B   2      34.408  30.563  43.8500  0.00  0.00     0.000 C
ATOM     28   O  BGC B   2      34.006  29.430  43.0980  0.00  0.00     0.000 O
ATOM     30  HD  BGC B   2      33.466  29.335  43.7680  0.00  0.00     0.000 HD
BRANCH 17 30
ATOM     30  O4  BGC B   3      37.344  32.229  40.6600  0.00  0.00     0.000 O
BRANCH 30 34
ATOM     31  C1  BGC B   3      41.450  32.287  40.9070  0.00  0.00     0.000 C
ATOM     32  C2  BGC B   3      40.770  31.317  41.8720  0.00  0.00     0.000 C
ATOM     33  C3  BGC B   3      39.338  31.096  41.4190  0.00  0.00     0.000 C
ATOM     34  C4  BGC B   3      38.609  32.433  41.2980  0.00  0.00     0.000 C
ATOM     35  C5  BGC B   3      39.410  33.397  40.4420  0.00  0.00     0.000 C
ATOM     36  O5  BGC B   3      40.736  33.512  40.9680  0.00  0.00     0.000 O
ATOM     37   O  BGC B   3      41.451  30.065  41.8460  0.00  0.00     0.000 O
ATOM     39  HD  BGC B   3      40.978  29.812  42.5270  0.00  0.00     0.000 HD
ATOM     39   O  BGC B   3      38.692  30.256  42.3630  0.00  0.00     0.000 O
ATOM     41  HD  BGC B   3      38.219  30.003  43.0440  0.00  0.00     0.000 HD
ATOM     41   C  BGC B   3      38.801  34.791  40.3420  0.00  0.00     0.000 C
ATOM     42   O  BGC B   3      38.654  35.350  41.6260  0.00  0.00     0.000 O
ATOM     44  HD  BGC B   3      38.181  35.097  42.3070  0.00  0.00     0.000 HD
BRANCH 31 44
ATOM     44  O4  BGC B   4      42.734  32.547  41.4140  0.00  0.00     0.000 O
BRANCH 44 48
ATOM     45  C1  BGC B   4      46.527  33.442  40.1440  0.00  0.00     0.000 C
ATOM     46  C2  BGC B   4      45.538  34.597  40.0640  0.00  0.00     0.000 C
ATOM     47  C3  BGC B   4      44.325  34.279  40.9020  0.00  0.00     0.000 C
ATOM     48  C4  BGC B   4      43.733  32.928  40.4900  0.00  0.00     0.000 C
ATOM     49  C5  BGC B   4      44.814  31.840  40.4990  0.00  0.00     0.000 C
ATOM     50  O5  BGC B   4      45.913  32.243  39.6700  0.00  0.00     0.000 O
ATOM     51   O  BGC B   4      46.148  35.804  40.5580  0.00  0.00     0.000 O
ATOM     53  HD  BGC B   4      45.665  35.603  41.2470  0.00  0.00     0.000 HD
ATOM     53   O  BGC B   4      43.349  35.314  40.7120  0.00  0.00     0.000 O
ATOM     55  HD  BGC B   4      42.865  35.112  41.4020  0.00  0.00     0.000 HD
ATOM     55   C  BGC B   4      44.348  30.487  39.9930  0.00  0.00     0.000 C
ATOM     56   O  BGC B   4      43.800  30.677  38.6860  0.00  0.00     0.000 O
ATOM     58  HD  BGC B   4      43.317  30.475  39.3760  0.00  0.00     0.000 HD
BRANCH 45 58
ATOM     58  O4  BGC B   5      47.509  33.697  39.1400  0.00  0.00     0.000 O
BRANCH 58 62
ATOM     59  C1  BGC B   5      51.612  33.862  38.6040  0.00  0.00     0.000 C
ATOM     60  C2  BGC B   5      51.007  32.473  38.5670  0.00  0.00     0.000 C
ATOM     61  C3  BGC B   5      49.507  32.551  38.3540  0.00  0.00     0.000 C
ATOM     62  C4  BGC B   5      48.889  33.446  39.4160  0.00  0.00     0.000 C
ATOM     63  C5  BGC B   5      49.598  34.808  39.4560  0.00  0.00     0.000 C
ATOM     64  O5  BGC B   5      50.990  34.595  39.6640  0.00  0.00     0.000 O
ATOM     65   O  BGC B   5      49.288  34.978  41.7740  0.00  0.00     0.000 O
ATOM     67  HD  BGC B   5      48.792  34.673  42.4140  0.00  0.00     0.000 HD
ATOM     67   O  BGC B   5      49.288  34.978  41.7740  0.00  0.00     0.000 O
ATOM     69  HD  BGC B   5      48.792  34.673  42.4140  0.00  0.00     0.000 HD
ENDBRANCH 58 62
ENDBRANCH 45 58
ENDBRANCH 44 48
ENDBRANCH 31 44
ENDBRANCH 30 34
ENDBRANCH 17 30
ENDBRANCH 16 20
ENDBRANCH 1 16
TORSDOF 8
ENDMDL
MODEL 85
REMARK VINA RESULT:      -0.2     62.639     70.216
ROOT
ATOM      1  C1  BGC B   1      46.049  40.944  44.0090  0.00  0.00     0.000 C
ATOM      2  C2  BGC B   1      46.250  39.702  44.8760  0.00  0.00     0.000 C
ATOM      3  C3  BGC B   1      45.212  38.652  44.5290  0.00  0.00     0.000 C
ATOM      4  C4  BGC B   1      43.809  39.243  44.5810  0.00  0.00     0.000 C
ATOM      5  C5  BGC B   1      43.762  40.454  43.6610  0.00  0.00     0.000 C
ATOM      6  O5  BGC B   1      44.716  41.411  44.1600  0.00  0.00     0.000 O
ATOM      7   O  BGC B   1      47.563  39.167  44.6380  0.00  0.00     0.000 O
ATOM      9  HD  BGC B   1      47.678  38.317  44.7580  0.00  0.00     0.000 HD
ATOM      9   O  BGC B   1      45.339  37.558  45.4420  0.00  0.00     0.000 O
ATOM     11  HD  BGC B   1      45.455  36.708  45.5620  0.00  0.00     0.000 HD
ATOM     11   O  BGC B   1      42.873  38.278  44.1530  0.00  0.00     0.000 O
ATOM     13  HD  BGC B   1      42.988  37.428  44.2730  0.00  0.00     0.000 HD
ATOM     13   C  BGC B   1      42.403  41.132  43.5660  0.00  0.00     0.000 C
ATOM     14   O  BGC B   1      41.895  41.512  44.8410  0.00  0.00     0.000 O
ATOM     16  HD  BGC B   1      42.011  40.662  44.9610  0.00  0.00     0.000 HD
ENDROOT
BRANCH 1 16
ATOM     16  O4  BGC B   2      46.867  41.964  44.5800  0.00  0.00     0.000 O
BRANCH 16 20
ATOM     17  C1  BGC B   2      49.097  45.207  43.5560  0.00  0.00     0.000 C
ATOM     18  C2  BGC B   2      47.597  45.451  43.4870  0.00  0.00     0.000 C
ATOM     19  C3  BGC B   2      46.887  44.319  44.2270  0.00  0.00     0.000 C
ATOM     20  C4  BGC B   2      47.326  42.974  43.6850  0.00  0.00     0.000 C
ATOM     21  C5  BGC B   2      48.848  42.850  43.5960  0.00  0.00     0.000 C
ATOM     22  O5  BGC B   2      49.355  43.972  42.8620  0.00  0.00     0.000 O
ATOM     23   O  BGC B   2      47.270  46.701  44.1150  0.00  0.00     0.000 O
ATOM     25  HD  BGC B   2      47.202  45.874  44.3620  0.00  0.00     0.000 HD
ATOM     25   O  BGC B   2      45.478  44.466  44.1000  0.00  0.00     0.000 O
ATOM     27  HD  BGC B   2      45.410  43.638  44.3460  0.00  0.00     0.000 HD
ATOM     27   C  BGC B   2      49.299  41.584  42.8790  0.00  0.00     0.000 C
ATOM     28   O  BGC B   2      48.763  41.455  41.5730  0.00  0.00     0.000 O
ATOM     30  HD  BGC B   2      48.695  40.628  41.8190  0.00  0.00     0.000 HD
BRANCH 17 30
ATOM     30  O4  BGC B   3      49.711  46.208  42.7670  0.00  0.00     0.000 O
BRANCH 30 34
ATOM     31  C1  BGC B   3      53.210  48.362  42.5630  0.00  0.00     0.000 C
ATOM     32  C2  BGC B   3      53.369  46.867  42.2880  0.00  0.00     0.000 C
ATOM     33  C3  BGC B   3      52.001  46.273  42.0000  0.00  0.00     0.000 C
ATOM     34  C4  BGC B   3      51.041  46.574  43.1490  0.00  0.00     0.000 C
ATOM     35  C5  BGC B   3      51.041  48.060  43.4630  0.00  0.00     0.000 C
ATOM     36  O5  BGC B   3      52.383  48.495  43.7070  0.00  0.00     0.000 O
ATOM     37   O  BGC B   3      54.194  46.679  41.1410  0.00  0.00     0.000 O
ATOM     39  HD  BGC B   3      54.215  45.831  41.3160  0.00  0.00     0.000 HD
ATOM     39   O  BGC B   3      52.147  44.872  41.8220  0.00  0.00     0.000 O
ATOM     41  HD  BGC B   3      52.169  44.024  41.9970  0.00  0.00     0.000 HD
ATOM     41   C  BGC B   3      50.178  48.441  44.6610  0.00  0.00     0.000 C
ATOM     42   O  BGC B   3      50.602  47.741  45.8070  0.00  0.00     0.000 O
ATOM     44  HD  BGC B   3      50.623  46.893  45.9820  0.00  0.00     0.000 HD
BRANCH 31 44
ATOM     44  O4  BGC B   4      54.475  48.854  42.9250  0.00  0.00     0.000 O
BRANCH 44 48
ATOM     45  C1  BGC B   4      56.746  52.258  42.6810  0.00  0.00     0.000 C
ATOM     46  C2  BGC B   4      55.631  52.308  43.7160  0.00  0.00     0.000 C
ATOM     47  C3  BGC B   4      55.136  50.909  43.9900  0.00  0.00     0.000 C
ATOM     48  C4  BGC B   4      54.734  50.222  42.6810  0.00  0.00     0.000 C
ATOM     49  C5  BGC B   4      55.874  50.304  41.6580  0.00  0.00     0.000 C
ATOM     50  O5  BGC B   4      56.260  51.673  41.4720  0.00  0.00     0.000 O
ATOM     51   O  BGC B   4      56.122  52.882  44.9430  0.00  0.00     0.000 O
ATOM     53  HD  BGC B   4      56.126  52.046  45.1710  0.00  0.00     0.000 HD
ATOM     53   O  BGC B   4      54.001  50.983  44.8650  0.00  0.00     0.000 O
ATOM     55  HD  BGC B   4      54.006  50.148  45.0930  0.00  0.00     0.000 HD
ATOM     55   C  BGC B   4      55.527  49.751  40.2870  0.00  0.00     0.000 C
ATOM     56   O  BGC B   4      54.355  50.427  39.8280  0.00  0.00     0.000 O
ATOM     58  HD  BGC B   4      54.359  49.591  40.0560  0.00  0.00     0.000 HD
BRANCH 45 58
ATOM     58  O4  BGC B   5      56.977  53.611  42.2900  0.00  0.00     0.000 O
BRANCH 58 62
ATOM     59  C1  BGC B   5      60.034  56.344  41.7100  0.00  0.00     0.000 C
ATOM     60  C2  BGC B   5      59.864  55.315  40.6100  0.00  0.00     0.000 C
ATOM     61  C3  BGC B   5      58.503  54.653  40.7060  0.00  0.00     0.000 C
ATOM     62  C4  BGC B   5      58.315  54.077  42.1000  0.00  0.00     0.000 C
ATOM     63  C5  BGC B   5      58.579  55.148  43.1680  0.00  0.00     0.000 C
ATOM     64  O5  BGC B   5      59.883  55.684  42.9700  0.00  0.00     0.000 O
ATOM     65   O  BGC B   5      59.468  53.557  44.6430  0.00  0.00     0.000 O
ATOM     67  HD  BGC B   5      59.465  52.705  44.8020  0.00  0.00     0.000 HD
ATOM     67   O  BGC B   5      59.468  53.557  44.6430  0.00  0.00     0.000 O
ATOM     69  HD  BGC B   5      59.465  52.705  44.8020  0.00  0.00     0.000 HD
ENDBRANCH 58 62
ENDBRANCH 45 58
ENDBRANCH 44 48
ENDBRANCH 31 44
ENDBRANCH 30 34
ENDBRANCH 17 30
ENDBRANCH 16 20
ENDBRANCH 1 16
TORSDOF 8
ENDMDL
MODEL 86
REMARK VINA RESULT:      -0.2     65.356     68.707
ROOT
ATOM      1  C1  BGC B   1      50.795   8.064  57.3410  0.00  0.00     0.000 C
ATOM      2  C2  BGC B   1      52.246   8.086  56.8640  0.00  0.00     0.000 C
ATOM      3  C3  BGC B   1      52.538   6.855  56.0290  0.00  0.00     0.000 C
ATOM      4  C4  BGC B   1      52.134   5.589  56.7740  0.00  0.00     0.000 C
ATOM      5  C5  BGC B   1      50.669   5.709  57.1680  0.00  0.00     0.000 C
ATOM      6  O5  BGC B   1      50.549   6.850  58.0380  0.00  0.00     0.000 O
ATOM      7   O  BGC B   1      52.463   9.262  56.0660  0.00  0.00     0.000 O
ATOM      9  HD  BGC B   1      53.078   9.227  55.4570  0.00  0.00     0.000 HD
ATOM      9   O  BGC B   1      53.932   6.834  55.7080  0.00  0.00     0.000 O
ATOM     11  HD  BGC B   1      54.548   6.800  55.1000  0.00  0.00     0.000 HD
ATOM     11   O  BGC B   1      52.317   4.468  55.9380  0.00  0.00     0.000 O
ATOM     13  HD  BGC B   1      52.932   4.433  55.3300  0.00  0.00     0.000 HD
ATOM     13   C  BGC B   1      50.099   4.493  57.8840  0.00  0.00     0.000 C
ATOM     14   O  BGC B   1      50.851   4.143  59.0410  0.00  0.00     0.000 O
ATOM     16  HD  BGC B   1      51.467   4.108  58.4330  0.00  0.00     0.000 HD
ENDROOT
BRANCH 1 16
ATOM     16  O4  BGC B   2      50.684   9.087  58.3280  0.00  0.00     0.000 O
BRANCH 16 20
ATOM     17  C1  BGC B   2      48.047  11.784  59.8480  0.00  0.00     0.000 C
ATOM     18  C2  BGC B   2      47.752  10.346  60.2510  0.00  0.00     0.000 C
ATOM     19  C3  BGC B   2      48.980   9.494  59.9410  0.00  0.00     0.000 C
ATOM     20  C4  BGC B   2      49.391   9.664  58.4930  0.00  0.00     0.000 C
ATOM     21  C5  BGC B   2      49.490  11.135  58.0840  0.00  0.00     0.000 C
ATOM     22  O5  BGC B   2      48.260  11.786  58.4250  0.00  0.00     0.000 O
ATOM     23   O  BGC B   2      47.473  10.275  61.6590  0.00  0.00     0.000 O
ATOM     25  HD  BGC B   2      48.165  10.079  61.1770  0.00  0.00     0.000 HD
ATOM     25   O  BGC B   2      48.703   8.126  60.2170  0.00  0.00     0.000 O
ATOM     27  HD  BGC B   2      49.396   7.930  59.7350  0.00  0.00     0.000 HD
ATOM     27   C  BGC B   2      49.716  11.321  56.5890  0.00  0.00     0.000 C
ATOM     28   O  BGC B   2      48.724  10.700  55.7880  0.00  0.00     0.000 O
ATOM     30  HD  BGC B   2      49.416  10.504  55.3070  0.00  0.00     0.000 HD
BRANCH 17 30
ATOM     30  O4  BGC B   3      46.852  12.517  60.0440  0.00  0.00     0.000 O
BRANCH 30 34
ATOM     31  C1  BGC B   3      45.616  16.302  61.0790  0.00  0.00     0.000 C
ATOM     32  C2  BGC B   3      46.224  16.193  59.6810  0.00  0.00     0.000 C
ATOM     33  C3  BGC B   3      46.264  14.730  59.2750  0.00  0.00     0.000 C
ATOM     34  C4  BGC B   3      47.016  13.911  60.3230  0.00  0.00     0.000 C
ATOM     35  C5  BGC B   3      46.451  14.177  61.7070  0.00  0.00     0.000 C
ATOM     36  O5  BGC B   3      46.462  15.585  61.9640  0.00  0.00     0.000 O
ATOM     37   O  BGC B   3      45.406  16.898  58.7500  0.00  0.00     0.000 O
ATOM     39  HD  BGC B   3      46.023  16.791  58.1520  0.00  0.00     0.000 HD
ATOM     39   O  BGC B   3      46.900  14.631  58.0100  0.00  0.00     0.000 O
ATOM     41  HD  BGC B   3      47.517  14.524  57.4120  0.00  0.00     0.000 HD
ATOM     41   C  BGC B   3      47.203  13.469  62.8290  0.00  0.00     0.000 C
ATOM     42   O  BGC B   3      48.559  13.847  62.8190  0.00  0.00     0.000 O
ATOM     44  HD  BGC B   3      49.176  13.740  62.2210  0.00  0.00     0.000 HD
BRANCH 31 44
ATOM     44  O4  BGC B   4      45.690  17.651  61.4600  0.00  0.00     0.000 O
BRANCH 44 48
ATOM     45  C1  BGC B   4      43.667  20.435  63.6880  0.00  0.00     0.000 C
ATOM     46  C2  BGC B   4      44.461  19.422  64.5010  0.00  0.00     0.000 C
ATOM     47  C3  BGC B   4      45.451  18.721  63.6030  0.00  0.00     0.000 C
ATOM     48  C4  BGC B   4      44.735  18.117  62.3910  0.00  0.00     0.000 C
ATOM     49  C5  BGC B   4      43.878  19.177  61.6880  0.00  0.00     0.000 C
ATOM     50  O5  BGC B   4      42.973  19.772  62.6300  0.00  0.00     0.000 O
ATOM     51   O  BGC B   4      45.176  20.089  65.5590  0.00  0.00     0.000 O
ATOM     53  HD  BGC B   4      45.830  19.970  65.0040  0.00  0.00     0.000 HD
ATOM     53   O  BGC B   4      46.098  17.682  64.3510  0.00  0.00     0.000 O
ATOM     55  HD  BGC B   4      46.753  17.563  63.7970  0.00  0.00     0.000 HD
ATOM     55   C  BGC B   4      43.037  18.644  60.5420  0.00  0.00     0.000 C
ATOM     56   O  BGC B   4      42.241  17.571  61.0470  0.00  0.00     0.000 O
ATOM     58  HD  BGC B   4      42.895  17.452  60.4930  0.00  0.00     0.000 HD
BRANCH 45 58
ATOM     58  O4  BGC B   5      42.597  20.860  64.5310  0.00  0.00     0.000 O
BRANCH 58 62
ATOM     59  C1  BGC B   5      40.684  24.277  65.8780  0.00  0.00     0.000 C
ATOM     60  C2  BGC B   5      40.349  23.860  64.4600  0.00  0.00     0.000 C
ATOM     61  C3  BGC B   5      40.754  22.419  64.2190  0.00  0.00     0.000 C
ATOM     62  C4  BGC B   5      42.224  22.239  64.5650  0.00  0.00     0.000 C
ATOM     63  C5  BGC B   5      42.513  22.753  65.9820  0.00  0.00     0.000 C
ATOM     64  O5  BGC B   5      42.092  24.110  66.0750  0.00  0.00     0.000 O
ATOM     65   O  BGC B   5      44.656  23.470  65.3600  0.00  0.00     0.000 O
ATOM     67  HD  BGC B   5      45.266  23.337  64.7600  0.00  0.00     0.000 HD
ATOM     67   O  BGC B   5      44.656  23.470  65.3600  0.00  0.00     0.000 O
ATOM     69  HD  BGC B   5      45.266  23.337  64.7600  0.00  0.00     0.000 HD
ENDBRANCH 58 62
ENDBRANCH 45 58
ENDBRANCH 44 48
ENDBRANCH 31 44
ENDBRANCH 30 34
ENDBRANCH 17 30
ENDBRANCH 16 20
ENDBRANCH 1 16
TORSDOF 8
ENDMDL
MODEL 87
REMARK VINA RESULT:      -0.2     54.722     60.320
ROOT
ATOM      1  C1  BGC B   1      44.432  44.167  26.1740  0.00  0.00     0.000 C
ATOM      2  C2  BGC B   1      44.875  45.115  25.0610  0.00  0.00     0.000 C
ATOM      3  C3  BGC B   1      45.021  44.355  23.7560  0.00  0.00     0.000 C
ATOM      4  C4  BGC B   1      45.910  43.132  23.9420  0.00  0.00     0.000 C
ATOM      5  C5  BGC B   1      45.335  42.284  25.0660  0.00  0.00     0.000 C
ATOM      6  O5  BGC B   1      45.349  43.086  26.2610  0.00  0.00     0.000 O
ATOM      7   O  BGC B   1      43.889  46.149  24.8990  0.00  0.00     0.000 O
ATOM      9  HD  BGC B   1      43.814  46.514  24.1170  0.00  0.00     0.000 HD
ATOM      9   O  BGC B   1      45.563  45.235  22.7670  0.00  0.00     0.000 O
ATOM     11  HD  BGC B   1      45.487  45.600  21.9850  0.00  0.00     0.000 HD
ATOM     11   O  BGC B   1      45.945  42.386  22.7450  0.00  0.00     0.000 O
ATOM     13  HD  BGC B   1      45.869  42.751  21.9630  0.00  0.00     0.000 HD
ATOM     13   C  BGC B   1      46.090  40.992  25.3420  0.00  0.00     0.000 C
ATOM     14   O  BGC B   1      47.472  41.217  25.6060  0.00  0.00     0.000 O
ATOM     16  HD  BGC B   1      47.396  41.582  24.8240  0.00  0.00     0.000 HD
ENDROOT
BRANCH 1 16
ATOM     16  O4  BGC B   2      44.588  44.887  27.3950  0.00  0.00     0.000 O
BRANCH 16 20
ATOM     17  C1  BGC B   2      42.931  45.272  31.0890  0.00  0.00     0.000 C
ATOM     18  C2  BGC B   2      43.806  44.036  30.9370  0.00  0.00     0.000 C
ATOM     19  C3  BGC B   2      44.645  44.189  29.6710  0.00  0.00     0.000 C
ATOM     20  C4  BGC B   2      43.757  44.475  28.4770  0.00  0.00     0.000 C
ATOM     21  C5  BGC B   2      42.763  45.605  28.7480  0.00  0.00     0.000 C
ATOM     22  O5  BGC B   2      42.047  45.304  29.9520  0.00  0.00     0.000 O
ATOM     23   O  BGC B   2      44.681  43.908  32.0700  0.00  0.00     0.000 O
ATOM     25  HD  BGC B   2      44.794  44.183  31.2560  0.00  0.00     0.000 HD
ATOM     25   O  BGC B   2      45.405  43.007  29.4480  0.00  0.00     0.000 O
ATOM     27  HD  BGC B   2      45.519  43.282  28.6340  0.00  0.00     0.000 HD
ATOM     27   C  BGC B   2      41.741  45.777  27.6310  0.00  0.00     0.000 C
ATOM     28   O  BGC B   2      41.010  44.594  27.3510  0.00  0.00     0.000 O
ATOM     30  HD  BGC B   2      41.123  44.868  26.5380  0.00  0.00     0.000 HD
BRANCH 17 30
ATOM     30  O4  BGC B   3      42.090  45.043  32.2040  0.00  0.00     0.000 O
BRANCH 30 34
ATOM     31  C1  BGC B   3      40.187  47.136  35.1910  0.00  0.00     0.000 C
ATOM     32  C2  BGC B   3      39.577  47.317  33.8020  0.00  0.00     0.000 C
ATOM     33  C3  BGC B   3      40.093  46.217  32.8910  0.00  0.00     0.000 C
ATOM     34  C4  BGC B   3      41.621  46.214  32.8800  0.00  0.00     0.000 C
ATOM     35  C5  BGC B   3      42.160  46.177  34.3000  0.00  0.00     0.000 C
ATOM     36  O5  BGC B   3      41.594  47.255  35.0520  0.00  0.00     0.000 O
ATOM     37   O  BGC B   3      38.158  47.204  33.8870  0.00  0.00     0.000 O
ATOM     39  HD  BGC B   3      38.104  47.473  33.0650  0.00  0.00     0.000 HD
ATOM     39   O  BGC B   3      39.583  46.438  31.5850  0.00  0.00     0.000 O
ATOM     41  HD  BGC B   3      39.529  46.707  30.7640  0.00  0.00     0.000 HD
ATOM     41   C  BGC B   3      43.680  46.264  34.3880  0.00  0.00     0.000 C
ATOM     42   O  BGC B   3      44.135  47.443  33.7670  0.00  0.00     0.000 O
ATOM     44  HD  BGC B   3      44.081  47.712  32.9450  0.00  0.00     0.000 HD
BRANCH 31 44
ATOM     44  O4  BGC B   4      39.769  48.225  35.9730  0.00  0.00     0.000 O
BRANCH 44 48
ATOM     45  C1  BGC B   4      38.876  49.175  39.8600  0.00  0.00     0.000 C
ATOM     46  C2  BGC B   4      40.364  49.089  39.5500  0.00  0.00     0.000 C
ATOM     47  C3  BGC B   4      40.570  49.130  38.0560  0.00  0.00     0.000 C
ATOM     48  C4  BGC B   4      39.732  48.043  37.3740  0.00  0.00     0.000 C
ATOM     49  C5  BGC B   4      38.267  48.135  37.8170  0.00  0.00     0.000 C
ATOM     50  O5  BGC B   4      38.189  48.082  39.2490  0.00  0.00     0.000 O
ATOM     51   O  BGC B   4      41.058  50.200  40.1500  0.00  0.00     0.000 O
ATOM     53  HD  BGC B   4      41.031  50.481  39.3320  0.00  0.00     0.000 HD
ATOM     53   O  BGC B   4      41.961  48.917  37.7750  0.00  0.00     0.000 O
ATOM     55  HD  BGC B   4      41.934  49.198  36.9560  0.00  0.00     0.000 HD
ATOM     55   C  BGC B   4      37.379  47.025  37.2830  0.00  0.00     0.000 C
ATOM     56   O  BGC B   4      37.967  45.778  37.6590  0.00  0.00     0.000 O
ATOM     58  HD  BGC B   4      37.940  46.060  36.8400  0.00  0.00     0.000 HD
BRANCH 45 58
ATOM     58  O4  BGC B   5      38.748  48.874  41.2490  0.00  0.00     0.000 O
BRANCH 58 62
ATOM     59  C1  BGC B   5      36.949  50.250  44.7150  0.00  0.00     0.000 C
ATOM     60  C2  BGC B   5      36.034  49.519  43.7540  0.00  0.00     0.000 C
ATOM     61  C3  BGC B   5      36.844  48.714  42.7560  0.00  0.00     0.000 C
ATOM     62  C4  BGC B   5      37.841  49.626  42.0580  0.00  0.00     0.000 C
ATOM     63  C5  BGC B   5      38.682  50.396  43.0870  0.00  0.00     0.000 C
ATOM     64  O5  BGC B   5      37.807  51.108  43.9560  0.00  0.00     0.000 O
ATOM     65   O  BGC B   5      38.801  52.272  41.6860  0.00  0.00     0.000 O
ATOM     67  HD  BGC B   5      38.725  52.502  40.8550  0.00  0.00     0.000 HD
ATOM     67   O  BGC B   5      38.801  52.272  41.6860  0.00  0.00     0.000 O
ATOM     69  HD  BGC B   5      38.725  52.502  40.8550  0.00  0.00     0.000 HD
ENDBRANCH 58 62
ENDBRANCH 45 58
ENDBRANCH 44 48
ENDBRANCH 31 44
ENDBRANCH 30 34
ENDBRANCH 17 30
ENDBRANCH 16 20
ENDBRANCH 1 16
TORSDOF 8
ENDMDL
MODEL 88
REMARK VINA RESULT:      -0.2     48.004     53.309
ROOT
ATOM      1  C1  BGC B   1      34.374  34.915  37.0350  0.00  0.00     0.000 C
ATOM      2  C2  BGC B   1      33.051  35.676  37.1110  0.00  0.00     0.000 C
ATOM      3  C3  BGC B   1      32.112  34.993  38.0860  0.00  0.00     0.000 C
ATOM      4  C4  BGC B   1      31.975  33.512  37.7550  0.00  0.00     0.000 C
ATOM      5  C5  BGC B   1      33.365  32.893  37.7320  0.00  0.00     0.000 C
ATOM      6  O5  BGC B   1      34.115  33.559  36.6990  0.00  0.00     0.000 O
ATOM      7   O  BGC B   1      33.302  37.019  37.5580  0.00  0.00     0.000 O
ATOM      9  HD  BGC B   1      32.668  37.427  37.9820  0.00  0.00     0.000 HD
ATOM      9   O  BGC B   1      30.840  35.645  38.0370  0.00  0.00     0.000 O
ATOM     11  HD  BGC B   1      30.205  36.054  38.4620  0.00  0.00     0.000 HD
ATOM     11   O  BGC B   1      31.183  32.878  38.7360  0.00  0.00     0.000 O
ATOM     13  HD  BGC B   1      30.548  33.287  39.1600  0.00  0.00     0.000 HD
ATOM     13   C  BGC B   1      33.393  31.396  37.4610  0.00  0.00     0.000 C
ATOM     14   O  BGC B   1      32.724  31.051  36.2520  0.00  0.00     0.000 O
ATOM     16  HD  BGC B   1      32.089  31.459  36.6760  0.00  0.00     0.000 HD
ENDROOT
BRANCH 1 16
ATOM     16  O4  BGC B   2      35.076  35.448  35.9140  0.00  0.00     0.000 O
BRANCH 16 20
ATOM     17  C1  BGC B   2      38.841  36.192  34.5700  0.00  0.00     0.000 C
ATOM     18  C2  BGC B   2      38.466  34.718  34.5520  0.00  0.00     0.000 C
ATOM     19  C3  BGC B   2      36.953  34.601  34.7190  0.00  0.00     0.000 C
ATOM     20  C4  BGC B   2      36.497  35.345  35.9570  0.00  0.00     0.000 C
ATOM     21  C5  BGC B   2      37.058  36.766  36.0220  0.00  0.00     0.000 C
ATOM     22  O5  BGC B   2      38.481  36.702  35.8670  0.00  0.00     0.000 O
ATOM     23   O  BGC B   2      38.848  34.126  33.2990  0.00  0.00     0.000 O
ATOM     25  HD  BGC B   2      38.092  34.393  33.6270  0.00  0.00     0.000 HD
ATOM     25   O  BGC B   2      36.579  33.230  34.8020  0.00  0.00     0.000 O
ATOM     27  HD  BGC B   2      35.823  33.498  35.1290  0.00  0.00     0.000 HD
ATOM     27   C  BGC B   2      36.766  37.460  37.3470  0.00  0.00     0.000 C
ATOM     28   O  BGC B   2      37.238  36.740  38.4740  0.00  0.00     0.000 O
ATOM     30  HD  BGC B   2      36.482  37.007  38.8020  0.00  0.00     0.000 HD
BRANCH 17 30
ATOM     30  O4  BGC B   3      40.254  36.255  34.5270  0.00  0.00     0.000 O
BRANCH 30 34
ATOM     31  C1  BGC B   3      43.256  38.703  33.1400  0.00  0.00     0.000 C
ATOM     32  C2  BGC B   3      42.499  39.250  34.3500  0.00  0.00     0.000 C
ATOM     33  C3  BGC B   3      41.721  38.117  34.9950  0.00  0.00     0.000 C
ATOM     34  C4  BGC B   3      40.807  37.451  33.9670  0.00  0.00     0.000 C
ATOM     35  C5  BGC B   3      41.599  37.061  32.7310  0.00  0.00     0.000 C
ATOM     36  O5  BGC B   3      42.289  38.210  32.2270  0.00  0.00     0.000 O
ATOM     37   O  BGC B   3      43.430  39.759  35.3030  0.00  0.00     0.000 O
ATOM     39  HD  BGC B   3      42.767  40.094  35.7470  0.00  0.00     0.000 HD
ATOM     39   O  BGC B   3      40.961  38.649  36.0700  0.00  0.00     0.000 O
ATOM     41  HD  BGC B   3      40.298  38.984  36.5150  0.00  0.00     0.000 HD
ATOM     41   C  BGC B   3      40.749  36.470  31.6120  0.00  0.00     0.000 C
ATOM     42   O  BGC B   3      39.745  37.382  31.2320  0.00  0.00     0.000 O
ATOM     44  HD  BGC B   3      39.081  37.717  31.6770  0.00  0.00     0.000 HD
BRANCH 31 44
ATOM     44  O4  BGC B   4      43.879  39.794  32.5120  0.00  0.00     0.000 O
BRANCH 44 48
ATOM     45  C1  BGC B   4      47.205  40.711  30.2980  0.00  0.00     0.000 C
ATOM     46  C2  BGC B   4      46.130  39.940  29.5450  0.00  0.00     0.000 C
ATOM     47  C3  BGC B   4      44.832  40.006  30.3120  0.00  0.00     0.000 C
ATOM     48  C4  BGC B   4      45.041  39.530  31.7520  0.00  0.00     0.000 C
ATOM     49  C5  BGC B   4      46.205  40.284  32.4070  0.00  0.00     0.000 C
ATOM     50  O5  BGC B   4      47.384  40.149  31.5990  0.00  0.00     0.000 O
ATOM     51   O  BGC B   4      45.935  40.514  28.2390  0.00  0.00     0.000 O
ATOM     53  HD  BGC B   4      45.241  40.844  28.6390  0.00  0.00     0.000 HD
ATOM     53   O  BGC B   4      43.867  39.169  29.6600  0.00  0.00     0.000 O
ATOM     55  HD  BGC B   4      43.173  39.499  30.0600  0.00  0.00     0.000 HD
ATOM     55   C  BGC B   4      46.564  39.798  33.8000  0.00  0.00     0.000 C
ATOM     56   O  BGC B   4      46.822  38.395  33.7190  0.00  0.00     0.000 O
ATOM     58  HD  BGC B   4      46.128  38.725  34.1190  0.00  0.00     0.000 HD
BRANCH 45 58
ATOM     58  O4  BGC B   5      48.439  40.389  29.6580  0.00  0.00     0.000 O
BRANCH 58 62
ATOM     59  C1  BGC B   5      51.824  42.173  28.0750  0.00  0.00     0.000 C
ATOM     60  C2  BGC B   5      51.808  42.033  29.5840  0.00  0.00     0.000 C
ATOM     61  C3  BGC B   5      50.761  41.023  30.0140  0.00  0.00     0.000 C
ATOM     62  C4  BGC B   5      49.411  41.412  29.4340  0.00  0.00     0.000 C
ATOM     63  C5  BGC B   5      49.514  41.616  27.9150  0.00  0.00     0.000 C
ATOM     64  O5  BGC B   5      50.522  42.585  27.6480  0.00  0.00     0.000 O
ATOM     65   O  BGC B   5      47.905  43.321  27.9670  0.00  0.00     0.000 O
ATOM     67  HD  BGC B   5      47.255  43.624  28.4530  0.00  0.00     0.000 HD
ATOM     67   O  BGC B   5      47.905  43.321  27.9670  0.00  0.00     0.000 O
ATOM     69  HD  BGC B   5      47.255  43.624  28.4530  0.00  0.00     0.000 HD
ENDBRANCH 58 62
ENDBRANCH 45 58
ENDBRANCH 44 48
ENDBRANCH 31 44
ENDBRANCH 30 34
ENDBRANCH 17 30
ENDBRANCH 16 20
ENDBRANCH 1 16
TORSDOF 8
ENDMDL
MODEL 89
REMARK VINA RESULT:      -0.2     33.244     36.917
ROOT
ATOM      1  C1  BGC B   1      45.385   8.683  18.2890  0.00  0.00     0.000 C
ATOM      2  C2  BGC B   1      45.052   7.240  18.6640  0.00  0.00     0.000 C
ATOM      3  C3  BGC B   1      46.274   6.360  18.4830  0.00  0.00     0.000 C
ATOM      4  C4  BGC B   1      46.862   6.534  17.0880  0.00  0.00     0.000 C
ATOM      5  C5  BGC B   1      47.154   8.012  16.8700  0.00  0.00     0.000 C
ATOM      6  O5  BGC B   1      45.902   8.716  16.9660  0.00  0.00     0.000 O
ATOM      7   O  BGC B   1      44.635   7.193  20.0390  0.00  0.00     0.000 O
ATOM      9  HD  BGC B   1      44.767   6.456  20.4740  0.00  0.00     0.000 HD
ATOM      9   O  BGC B   1      45.900   4.998  18.7110  0.00  0.00     0.000 O
ATOM     11  HD  BGC B   1      46.032   4.261  19.1470  0.00  0.00     0.000 HD
ATOM     11   O  BGC B   1      48.054   5.788  16.9800  0.00  0.00     0.000 O
ATOM     13  HD  BGC B   1      48.187   5.051  17.4160  0.00  0.00     0.000 HD
ATOM     13   C  BGC B   1      47.795   8.345  15.5310  0.00  0.00     0.000 C
ATOM     14   O  BGC B   1      47.029   7.867  14.4290  0.00  0.00     0.000 O
ATOM     16  HD  BGC B   1      47.161   7.131  14.8650  0.00  0.00     0.000 HD
ENDROOT
BRANCH 1 16
ATOM     16  O4  BGC B   2      44.140   9.374  18.2200  0.00  0.00     0.000 O
BRANCH 16 20
ATOM     17  C1  BGC B   2      42.486  13.040  18.8220  0.00  0.00     0.000 C
ATOM     18  C2  BGC B   2      43.346  12.956  17.5700  0.00  0.00     0.000 C
ATOM     19  C3  BGC B   2      43.602  11.484  17.2560  0.00  0.00     0.000 C
ATOM     20  C4  BGC B   2      44.186  10.778  18.4620  0.00  0.00     0.000 C
ATOM     21  C5  BGC B   2      43.389  11.049  19.7390  0.00  0.00     0.000 C
ATOM     22  O5  BGC B   2      43.251  12.467  19.8980  0.00  0.00     0.000 O
ATOM     23   O  BGC B   2      42.664  13.563  16.4600  0.00  0.00     0.000 O
ATOM     25  HD  BGC B   2      42.799  12.742  16.7010  0.00  0.00     0.000 HD
ATOM     25   O  BGC B   2      44.484  11.372  16.1450  0.00  0.00     0.000 O
ATOM     27  HD  BGC B   2      44.619  10.551  16.3860  0.00  0.00     0.000 HD
ATOM     27   C  BGC B   2      44.066  10.504  20.9890  0.00  0.00     0.000 C
ATOM     28   O  BGC B   2      45.385  10.994  21.1730  0.00  0.00     0.000 O
ATOM     30  HD  BGC B   2      45.520  10.173  21.4140  0.00  0.00     0.000 HD
BRANCH 17 30
ATOM     30  O4  BGC B   3      42.366  14.413  19.1450  0.00  0.00     0.000 O
BRANCH 30 34
ATOM     31  C1  BGC B   3      39.695  17.018  20.8770  0.00  0.00     0.000 C
ATOM     32  C2  BGC B   3      40.360  16.049  21.8540  0.00  0.00     0.000 C
ATOM     33  C3  BGC B   3      41.580  15.439  21.1860  0.00  0.00     0.000 C
ATOM     34  C4  BGC B   3      41.185  14.782  19.8640  0.00  0.00     0.000 C
ATOM     35  C5  BGC B   3      40.403  15.758  19.0020  0.00  0.00     0.000 C
ATOM     36  O5  BGC B   3      39.290  16.264  19.7460  0.00  0.00     0.000 O
ATOM     37   O  BGC B   3      40.789  16.761  23.0130  0.00  0.00     0.000 O
ATOM     39  HD  BGC B   3      40.966  16.003  23.3930  0.00  0.00     0.000 HD
ATOM     39   O  BGC B   3      42.146  14.483  22.0700  0.00  0.00     0.000 O
ATOM     41  HD  BGC B   3      42.322  13.725  22.4500  0.00  0.00     0.000 HD
ATOM     41   C  BGC B   3      39.888  15.158  17.6980  0.00  0.00     0.000 C
ATOM     42   O  BGC B   3      39.070  14.043  17.9670  0.00  0.00     0.000 O
ATOM     44  HD  BGC B   3      39.247  13.285  18.3470  0.00  0.00     0.000 HD
BRANCH 31 44
ATOM     44  O4  BGC B   4      38.519  17.483  21.4900  0.00  0.00     0.000 O
BRANCH 44 48
ATOM     45  C1  BGC B   4      36.141  20.816  21.6970  0.00  0.00     0.000 C
ATOM     46  C2  BGC B   4      36.096  20.082  20.3640  0.00  0.00     0.000 C
ATOM     47  C3  BGC B   4      36.676  18.699  20.5320  0.00  0.00     0.000 C
ATOM     48  C4  BGC B   4      38.077  18.780  21.1460  0.00  0.00     0.000 C
ATOM     49  C5  BGC B   4      38.055  19.620  22.4290  0.00  0.00     0.000 C
ATOM     50  O5  BGC B   4      37.491  20.911  22.1540  0.00  0.00     0.000 O
ATOM     51   O  BGC B   4      34.734  19.969  19.9090  0.00  0.00     0.000 O
ATOM     53  HD  BGC B   4      34.846  19.163  20.2070  0.00  0.00     0.000 HD
ATOM     53   O  BGC B   4      36.747  18.069  19.2440  0.00  0.00     0.000 O
ATOM     55  HD  BGC B   4      36.859  17.263  19.5420  0.00  0.00     0.000 HD
ATOM     55   C  BGC B   4      39.421  19.855  23.0480  0.00  0.00     0.000 C
ATOM     56   O  BGC B   4      40.258  20.440  22.0490  0.00  0.00     0.000 O
ATOM     58  HD  BGC B   4      40.370  19.634  22.3460  0.00  0.00     0.000 HD
BRANCH 45 58
ATOM     58  O4  BGC B   5      35.825  22.176  21.4060  0.00  0.00     0.000 O
BRANCH 58 62
ATOM     59  C1  BGC B   5      33.539  25.358  22.7480  0.00  0.00     0.000 C
ATOM     60  C2  BGC B   5      34.693  24.961  23.6470  0.00  0.00     0.000 C
ATOM     61  C3  BGC B   5      35.686  24.100  22.8900  0.00  0.00     0.000 C
ATOM     62  C4  BGC B   5      34.964  22.908  22.2810  0.00  0.00     0.000 C
ATOM     63  C5  BGC B   5      33.759  23.373  21.4490  0.00  0.00     0.000 C
ATOM     64  O5  BGC B   5      32.909  24.164  22.2730  0.00  0.00     0.000 O
ATOM     65   O  BGC B   5      32.532  21.463  22.0340  0.00  0.00     0.000 O
ATOM     67  HD  BGC B   5      32.637  20.653  22.3220  0.00  0.00     0.000 HD
ATOM     67   O  BGC B   5      32.532  21.463  22.0340  0.00  0.00     0.000 O
ATOM     69  HD  BGC B   5      32.637  20.653  22.3220  0.00  0.00     0.000 HD
ENDBRANCH 58 62
ENDBRANCH 45 58
ENDBRANCH 44 48
ENDBRANCH 31 44
ENDBRANCH 30 34
ENDBRANCH 17 30
ENDBRANCH 16 20
ENDBRANCH 1 16
TORSDOF 8
ENDMDL
MODEL 90
REMARK VINA RESULT:      -0.2     55.801     59.544
ROOT
ATOM      1  C1  BGC B   1      44.236  48.446  21.7770  0.00  0.00     0.000 C
ATOM      2  C2  BGC B   1      44.872  47.102  21.4290  0.00  0.00     0.000 C
ATOM      3  C3  BGC B   1      45.020  46.256  22.6800  0.00  0.00     0.000 C
ATOM      4  C4  BGC B   1      45.739  47.035  23.7750  0.00  0.00     0.000 C
ATOM      5  C5  BGC B   1      44.983  48.333  24.0180  0.00  0.00     0.000 C
ATOM      6  O5  BGC B   1      45.006  49.081  22.7880  0.00  0.00     0.000 O
ATOM      7   O  BGC B   1      44.034  46.411  20.4880  0.00  0.00     0.000 O
ATOM      9  HD  BGC B   1      44.061  45.546  20.4840  0.00  0.00     0.000 HD
ATOM      9   O  BGC B   1      45.737  45.063  22.3490  0.00  0.00     0.000 O
ATOM     11  HD  BGC B   1      45.764  44.198  22.3450  0.00  0.00     0.000 HD
ATOM     11   O  BGC B   1      45.770  46.268  24.9580  0.00  0.00     0.000 O
ATOM     13  HD  BGC B   1      45.798  45.402  24.9550  0.00  0.00     0.000 HD
ATOM     13   C  BGC B   1      45.553  49.206  25.1260  0.00  0.00     0.000 C
ATOM     14   O  BGC B   1      46.928  49.515  24.9200  0.00  0.00     0.000 O
ATOM     16  HD  BGC B   1      46.955  48.649  24.9170  0.00  0.00     0.000 HD
ENDROOT
BRANCH 1 16
ATOM     16  O4  BGC B   2      44.387  49.269  20.6220  0.00  0.00     0.000 O
BRANCH 16 20
ATOM     17  C1  BGC B   2      42.551  52.308  18.6390  0.00  0.00     0.000 C
ATOM     18  C2  BGC B   2      43.376  52.767  19.8320  0.00  0.00     0.000 C
ATOM     19  C3  BGC B   2      44.289  51.621  20.2600  0.00  0.00     0.000 C
ATOM     20  C4  BGC B   2      43.481  50.363  20.5080  0.00  0.00     0.000 C
ATOM     21  C5  BGC B   2      42.526  50.048  19.3560  0.00  0.00     0.000 C
ATOM     22  O5  BGC B   2      41.733  51.212  19.0900  0.00  0.00     0.000 O
ATOM     23   O  BGC B   2      44.182  53.900  19.4690  0.00  0.00     0.000 O
ATOM     25  HD  BGC B   2      44.351  53.058  19.5790  0.00  0.00     0.000 HD
ATOM     25   O  BGC B   2      45.006  51.985  21.4340  0.00  0.00     0.000 O
ATOM     27  HD  BGC B   2      45.175  51.143  21.5440  0.00  0.00     0.000 HD
ATOM     27   C  BGC B   2      41.575  48.900  19.6700  0.00  0.00     0.000 C
ATOM     28   O  BGC B   2      40.807  49.111  20.8440  0.00  0.00     0.000 O
ATOM     30  HD  BGC B   2      40.976  48.269  20.9530  0.00  0.00     0.000 HD
BRANCH 17 30
ATOM     30  O4  BGC B   3      41.641  53.351  18.3440  0.00  0.00     0.000 O
BRANCH 30 34
ATOM     31  C1  BGC B   3      39.733  55.053  15.1220  0.00  0.00     0.000 C
ATOM     32  C2  BGC B   3      39.254  53.645  15.4720  0.00  0.00     0.000 C
ATOM     33  C3  BGC B   3      39.726  53.299  16.8730  0.00  0.00     0.000 C
ATOM     34  C4  BGC B   3      41.242  53.460  16.9740  0.00  0.00     0.000 C
ATOM     35  C5  BGC B   3      41.663  54.831  16.4760  0.00  0.00     0.000 C
ATOM     36  O5  BGC B   3      41.151  55.036  15.1550  0.00  0.00     0.000 O
ATOM     37   O  BGC B   3      37.828  53.609  15.4540  0.00  0.00     0.000 O
ATOM     39  HD  BGC B   3      37.865  52.747  15.5320  0.00  0.00     0.000 HD
ATOM     39   O  BGC B   3      39.343  51.962  17.1600  0.00  0.00     0.000 O
ATOM     41  HD  BGC B   3      39.381  51.101  17.2370  0.00  0.00     0.000 HD
ATOM     41   C  BGC B   3      43.172  55.047  16.4550  0.00  0.00     0.000 C
ATOM     42   O  BGC B   3      43.791  54.070  15.6520  0.00  0.00     0.000 O
ATOM     44  HD  BGC B   3      43.828  53.209  15.7300  0.00  0.00     0.000 HD
BRANCH 31 44
ATOM     44  O4  BGC B   4      39.367  55.297  13.7880  0.00  0.00     0.000 O
BRANCH 44 48
ATOM     45  C1  BGC B   4      38.311  58.374  11.2940  0.00  0.00     0.000 C
ATOM     46  C2  BGC B   4      39.788  58.327  11.6580  0.00  0.00     0.000 C
ATOM     47  C3  BGC B   4      40.122  56.971  12.2320  0.00  0.00     0.000 C
ATOM     48  C4  BGC B   4      39.186  56.643  13.3990  0.00  0.00     0.000 C
ATOM     49  C5  BGC B   4      37.720  56.812  12.9790  0.00  0.00     0.000 C
ATOM     50  O5  BGC B   4      37.516  58.133  12.4560  0.00  0.00     0.000 O
ATOM     51   O  BGC B   4      40.593  58.552  10.4850  0.00  0.00     0.000 O
ATOM     53  HD  BGC B   4      40.678  57.693  10.5470  0.00  0.00     0.000 HD
ATOM     53   O  BGC B   4      41.481  56.986  12.6900  0.00  0.00     0.000 O
ATOM     55  HD  BGC B   4      41.567  56.126  12.7520  0.00  0.00     0.000 HD
ATOM     55   C  BGC B   4      36.719  56.621  14.1050  0.00  0.00     0.000 C
ATOM     56   O  BGC B   4      37.073  57.517  15.1600  0.00  0.00     0.000 O
ATOM     58  HD  BGC B   4      37.159  56.657  15.2220  0.00  0.00     0.000 HD
BRANCH 45 58
ATOM     58  O4  BGC B   5      38.021  59.742  11.0090  0.00  0.00     0.000 O
BRANCH 58 62
ATOM     59  C1  BGC B   5      36.151  62.142   8.1990  0.00  0.00     0.000 C
ATOM     60  C2  BGC B   5      35.227  61.435   9.1700  0.00  0.00     0.000 C
ATOM     61  C3  BGC B   5      35.999  60.940  10.3770  0.00  0.00     0.000 C
ATOM     62  C4  BGC B   5      37.160  60.073   9.9170  0.00  0.00     0.000 C
ATOM     63  C5  BGC B   5      38.011  60.816   8.8770  0.00  0.00     0.000 C
ATOM     64  O5  BGC B   5      37.173  61.222   7.8000  0.00  0.00     0.000 O
ATOM     65   O  BGC B   5      38.488  58.822   7.7410  0.00  0.00     0.000 O
ATOM     67  HD  BGC B   5      38.509  57.964   7.8590  0.00  0.00     0.000 HD
ATOM     67   O  BGC B   5      38.488  58.822   7.7410  0.00  0.00     0.000 O
ATOM     69  HD  BGC B   5      38.509  57.964   7.8590  0.00  0.00     0.000 HD
ENDBRANCH 58 62
ENDBRANCH 45 58
ENDBRANCH 44 48
ENDBRANCH 31 44
ENDBRANCH 30 34
ENDBRANCH 17 30
ENDBRANCH 16 20
ENDBRANCH 1 16
TORSDOF 8
ENDMDL
MODEL 91
REMARK VINA RESULT:      -0.2     46.443     52.964
ROOT
ATOM      1  C1  BGC B   1      42.410  32.196  28.7750  0.00  0.00     0.000 C
ATOM      2  C2  BGC B   1      41.750  33.521  29.1530  0.00  0.00     0.000 C
ATOM      3  C3  BGC B   1      40.519  33.751  28.2980  0.00  0.00     0.000 C
ATOM      4  C4  BGC B   1      40.855  33.608  26.8190  0.00  0.00     0.000 C
ATOM      5  C5  BGC B   1      41.487  32.241  26.5980  0.00  0.00     0.000 C
ATOM      6  O5  BGC B   1      42.693  32.194  27.3830  0.00  0.00     0.000 O
ATOM      7   O  BGC B   1      41.364  33.479  30.5360  0.00  0.00     0.000 O
ATOM      9  HD  BGC B   1      40.691  33.966  30.7810  0.00  0.00     0.000 HD
ATOM      9   O  BGC B   1      39.998  35.054  28.5780  0.00  0.00     0.000 O
ATOM     11  HD  BGC B   1      39.326  35.541  28.8230  0.00  0.00     0.000 HD
ATOM     11   O  BGC B   1      39.676  33.722  26.0510  0.00  0.00     0.000 O
ATOM     13  HD  BGC B   1      39.004  34.209  26.2960  0.00  0.00     0.000 HD
ATOM     13   C  BGC B   1      41.838  31.925  25.1510  0.00  0.00     0.000 C
ATOM     14   O  BGC B   1      42.683  32.914  24.5700  0.00  0.00     0.000 O
ATOM     16  HD  BGC B   1      42.010  33.401  24.8150  0.00  0.00     0.000 HD
ENDROOT
BRANCH 1 16
ATOM     16  O4  BGC B   2      43.686  32.191  29.4130  0.00  0.00     0.000 O
BRANCH 16 20
ATOM     17  C1  BGC B   2      46.328  29.657  31.1850  0.00  0.00     0.000 C
ATOM     18  C2  BGC B   2      46.399  29.650  29.6650  0.00  0.00     0.000 C
ATOM     19  C3  BGC B   2      45.649  30.871  29.1390  0.00  0.00     0.000 C
ATOM     20  C4  BGC B   2      44.241  30.909  29.6970  0.00  0.00     0.000 C
ATOM     21  C5  BGC B   2      44.209  30.721  31.2140  0.00  0.00     0.000 C
ATOM     22  O5  BGC B   2      44.938  29.531  31.5420  0.00  0.00     0.000 O
ATOM     23   O  BGC B   2      47.769  29.718  29.2350  0.00  0.00     0.000 O
ATOM     25  HD  BGC B   2      47.127  30.298  29.2790  0.00  0.00     0.000 HD
ATOM     25   O  BGC B   2      45.615  30.843  27.7170  0.00  0.00     0.000 O
ATOM     27  HD  BGC B   2      44.974  31.423  27.7610  0.00  0.00     0.000 HD
ATOM     27   C  BGC B   2      42.797  30.567  31.7650  0.00  0.00     0.000 C
ATOM     28   O  BGC B   2      42.074  29.503  31.1670  0.00  0.00     0.000 O
ATOM     30  HD  BGC B   2      41.433  30.084  31.2110  0.00  0.00     0.000 HD
BRANCH 17 30
ATOM     30  O4  BGC B   3      46.933  28.457  31.6290  0.00  0.00     0.000 O
BRANCH 30 34
ATOM     31  C1  BGC B   3      49.089  27.015  34.8220  0.00  0.00     0.000 C
ATOM     32  C2  BGC B   3      47.612  27.272  35.1180  0.00  0.00     0.000 C
ATOM     33  C3  BGC B   3      46.864  27.407  33.8040  0.00  0.00     0.000 C
ATOM     34  C4  BGC B   3      47.501  28.496  32.9420  0.00  0.00     0.000 C
ATOM     35  C5  BGC B   3      48.995  28.257  32.8080  0.00  0.00     0.000 C
ATOM     36  O5  BGC B   3      49.578  28.141  34.1100  0.00  0.00     0.000 O
ATOM     37   O  BGC B   3      47.071  26.164  35.8340  0.00  0.00     0.000 O
ATOM     39  HD  BGC B   3      46.350  26.624  35.9690  0.00  0.00     0.000 HD
ATOM     39   O  BGC B   3      45.509  27.721  34.0880  0.00  0.00     0.000 O
ATOM     41  HD  BGC B   3      44.788  28.182  34.2230  0.00  0.00     0.000 HD
ATOM     41   C  BGC B   3      49.730  29.348  32.0380  0.00  0.00     0.000 C
ATOM     42   O  BGC B   3      49.531  30.597  32.6560  0.00  0.00     0.000 O
ATOM     44  HD  BGC B   3      48.810  31.058  32.7910  0.00  0.00     0.000 HD
BRANCH 31 44
ATOM     44  O4  BGC B   4      49.763  26.999  36.0540  0.00  0.00     0.000 O
BRANCH 44 48
ATOM     45  C1  BGC B   4      52.896  25.126  37.9200  0.00  0.00     0.000 C
ATOM     46  C2  BGC B   4      53.297  26.240  36.9640  0.00  0.00     0.000 C
ATOM     47  C3  BGC B   4      52.093  27.094  36.6530  0.00  0.00     0.000 C
ATOM     48  C4  BGC B   4      50.941  26.223  36.1400  0.00  0.00     0.000 C
ATOM     49  C5  BGC B   4      50.667  25.067  37.1090  0.00  0.00     0.000 C
ATOM     50  O5  BGC B   4      51.874  24.322  37.3280  0.00  0.00     0.000 O
ATOM     51   O  BGC B   4      54.315  27.063  37.5650  0.00  0.00     0.000 O
ATOM     53  HD  BGC B   4      53.631  27.581  37.6840  0.00  0.00     0.000 HD
ATOM     53   O  BGC B   4      52.455  28.057  35.6530  0.00  0.00     0.000 O
ATOM     55  HD  BGC B   4      51.771  28.575  35.7720  0.00  0.00     0.000 HD
ATOM     55   C  BGC B   4      49.618  24.080  36.6280  0.00  0.00     0.000 C
ATOM     56   O  BGC B   4      50.022  23.607  35.3420  0.00  0.00     0.000 O
ATOM     58  HD  BGC B   4      49.339  24.126  35.4610  0.00  0.00     0.000 HD
BRANCH 45 58
ATOM     58  O4  BGC B   5      54.003  24.226  37.9590  0.00  0.00     0.000 O
BRANCH 58 62
ATOM     59  C1  BGC B   5      56.425  22.179  40.6230  0.00  0.00     0.000 C
ATOM     60  C2  BGC B   5      55.054  21.574  40.3930  0.00  0.00     0.000 C
ATOM     61  C3  BGC B   5      54.429  22.136  39.1300  0.00  0.00     0.000 C
ATOM     62  C4  BGC B   5      54.409  23.654  39.2050  0.00  0.00     0.000 C
ATOM     63  C5  BGC B   5      55.811  24.198  39.5180  0.00  0.00     0.000 C
ATOM     64  O5  BGC B   5      56.279  23.599  40.7220  0.00  0.00     0.000 O
ATOM     65   O  BGC B   5      54.918  25.974  40.7620  0.00  0.00     0.000 O
ATOM     67  HD  BGC B   5      54.188  26.429  40.8630  0.00  0.00     0.000 HD
ATOM     67   O  BGC B   5      54.918  25.974  40.7620  0.00  0.00     0.000 O
ATOM     69  HD  BGC B   5      54.188  26.429  40.8630  0.00  0.00     0.000 HD
ENDBRANCH 58 62
ENDBRANCH 45 58
ENDBRANCH 44 48
ENDBRANCH 31 44
ENDBRANCH 30 34
ENDBRANCH 17 30
ENDBRANCH 16 20
ENDBRANCH 1 16
TORSDOF 8
ENDMDL
MODEL 92
REMARK VINA RESULT:      -0.2     54.206     60.449
ROOT
ATOM      1  C1  BGC B   1      71.214   3.212  25.1180  0.00  0.00     0.000 C
ATOM      2  C2  BGC B   1      71.644   2.743  23.7290  0.00  0.00     0.000 C
ATOM      3  C3  BGC B   1      72.335   1.396  23.8250  0.00  0.00     0.000 C
ATOM      4  C4  BGC B   1      73.455   1.437  24.8570  0.00  0.00     0.000 C
ATOM      5  C5  BGC B   1      72.872   1.905  26.1830  0.00  0.00     0.000 C
ATOM      6  O5  BGC B   1      72.345   3.228  25.9780  0.00  0.00     0.000 O
ATOM      7   O  BGC B   1      70.482   2.620  22.8910  0.00  0.00     0.000 O
ATOM      9  HD  BGC B   1      70.513   2.047  22.2430  0.00  0.00     0.000 HD
ATOM      9   O  BGC B   1      72.843   1.045  22.5350  0.00  0.00     0.000 O
ATOM     11  HD  BGC B   1      72.873   0.471  21.8870  0.00  0.00     0.000 HD
ATOM     11   O  BGC B   1      74.011   0.149  25.0030  0.00  0.00     0.000 O
ATOM     13  HD  BGC B   1      74.041  -0.424  24.3550  0.00  0.00     0.000 HD
ATOM     13   C  BGC B   1      73.865   1.952  27.3350  0.00  0.00     0.000 C
ATOM     14   O  BGC B   1      75.006   2.750  27.0360  0.00  0.00     0.000 O
ATOM     16  HD  BGC B   1      75.036   2.176  26.3880  0.00  0.00     0.000 HD
ENDROOT
BRANCH 1 16
ATOM     16  O4  BGC B   2      70.834   4.580  24.9770  0.00  0.00     0.000 O
BRANCH 16 20
ATOM     17  C1  BGC B   2      68.147   7.281  26.3970  0.00  0.00     0.000 C
ATOM     18  C2  BGC B   2      69.341   7.067  27.3150  0.00  0.00     0.000 C
ATOM     19  C3  BGC B   2      70.430   6.338  26.5310  0.00  0.00     0.000 C
ATOM     20  C4  BGC B   2      69.880   5.067  25.9170  0.00  0.00     0.000 C
ATOM     21  C5  BGC B   2      68.572   5.303  25.1610  0.00  0.00     0.000 C
ATOM     22  O5  BGC B   2      67.656   5.977  26.0340  0.00  0.00     0.000 O
ATOM     23   O  BGC B   2      69.853   8.333  27.7640  0.00  0.00     0.000 O
ATOM     25  HD  BGC B   2      70.112   7.763  27.1660  0.00  0.00     0.000 HD
ATOM     25   O  BGC B   2      71.525   6.037  27.3880  0.00  0.00     0.000 O
ATOM     27  HD  BGC B   2      71.785   5.467  26.7900  0.00  0.00     0.000 HD
ATOM     27   C  BGC B   2      67.910   4.011  24.7010  0.00  0.00     0.000 C
ATOM     28   O  BGC B   2      67.657   3.101  25.7590  0.00  0.00     0.000 O
ATOM     30  HD  BGC B   2      67.917   2.531  25.1610  0.00  0.00     0.000 HD
BRANCH 17 30
ATOM     30  O4  BGC B   3      67.122   7.854  27.1870  0.00  0.00     0.000 O
BRANCH 30 34
ATOM     31  C1  BGC B   3      63.984  10.493  26.8470  0.00  0.00     0.000 C
ATOM     32  C2  BGC B   3      63.780   9.167  26.1140  0.00  0.00     0.000 C
ATOM     33  C3  BGC B   3      64.790   8.159  26.6340  0.00  0.00     0.000 C
ATOM     34  C4  BGC B   3      66.208   8.711  26.4940  0.00  0.00     0.000 C
ATOM     35  C5  BGC B   3      66.302  10.091  27.1190  0.00  0.00     0.000 C
ATOM     36  O5  BGC B   3      65.298  10.940  26.5520  0.00  0.00     0.000 O
ATOM     37   O  BGC B   3      62.470   8.673  26.3810  0.00  0.00     0.000 O
ATOM     39  HD  BGC B   3      62.594   8.065  25.7760  0.00  0.00     0.000 HD
ATOM     39   O  BGC B   3      64.645   6.956  25.8940  0.00  0.00     0.000 O
ATOM     41  HD  BGC B   3      64.769   6.348  25.2900  0.00  0.00     0.000 HD
ATOM     41   C  BGC B   3      67.662  10.759  26.9450  0.00  0.00     0.000 C
ATOM     42   O  BGC B   3      67.979  10.864  25.5770  0.00  0.00     0.000 O
ATOM     44  HD  BGC B   3      68.104  10.256  24.9730  0.00  0.00     0.000 HD
BRANCH 31 44
ATOM     44  O4  BGC B   4      63.106  11.425  26.2700  0.00  0.00     0.000 O
BRANCH 44 48
ATOM     45  C1  BGC B   4      60.933  14.763  27.2420  0.00  0.00     0.000 C
ATOM     46  C2  BGC B   4      62.431  14.996  27.1010  0.00  0.00     0.000 C
ATOM     47  C3  BGC B   4      63.055  13.830  26.3750  0.00  0.00     0.000 C
ATOM     48  C4  BGC B   4      62.696  12.514  27.0720  0.00  0.00     0.000 C
ATOM     49  C5  BGC B   4      61.179  12.404  27.2670  0.00  0.00     0.000 C
ATOM     50  O5  BGC B   4      60.695  13.557  27.9700  0.00  0.00     0.000 O
ATOM     51   O  BGC B   4      62.675  16.201  26.3530  0.00  0.00     0.000 O
ATOM     53  HD  BGC B   4      62.834  15.620  25.7310  0.00  0.00     0.000 HD
ATOM     53   O  BGC B   4      64.480  14.000  26.3650  0.00  0.00     0.000 O
ATOM     55  HD  BGC B   4      64.638  13.418  25.7440  0.00  0.00     0.000 HD
ATOM     55   C  BGC B   4      60.734  11.185  28.0550  0.00  0.00     0.000 C
ATOM     56   O  BGC B   4      61.427  11.198  29.3050  0.00  0.00     0.000 O
ATOM     58  HD  BGC B   4      61.586  10.616  28.6830  0.00  0.00     0.000 HD
BRANCH 45 58
ATOM     58  O4  BGC B   5      60.466  15.761  28.1490  0.00  0.00     0.000 O
BRANCH 58 62
ATOM     59  C1  BGC B   5      57.362  18.433  28.7580  0.00  0.00     0.000 C
ATOM     60  C2  BGC B   5      56.972  16.969  28.7760  0.00  0.00     0.000 C
ATOM     61  C3  BGC B   5      58.197  16.094  28.9630  0.00  0.00     0.000 C
ATOM     62  C4  BGC B   5      59.227  16.427  27.8950  0.00  0.00     0.000 C
ATOM     63  C5  BGC B   5      59.518  17.935  27.8760  0.00  0.00     0.000 C
ATOM     64  O5  BGC B   5      58.294  18.638  27.6910  0.00  0.00     0.000 O
ATOM     65   O  BGC B   5      59.844  17.912  25.5550  0.00  0.00     0.000 O
ATOM     67  HD  BGC B   5      60.036  17.374  24.9040  0.00  0.00     0.000 HD
ATOM     67   O  BGC B   5      59.844  17.912  25.5550  0.00  0.00     0.000 O
ATOM     69  HD  BGC B   5      60.036  17.374  24.9040  0.00  0.00     0.000 HD
ENDBRANCH 58 62
ENDBRANCH 45 58
ENDBRANCH 44 48
ENDBRANCH 31 44
ENDBRANCH 30 34
ENDBRANCH 17 30
ENDBRANCH 16 20
ENDBRANCH 1 16
TORSDOF 8
ENDMDL
MODEL 93
REMARK VINA RESULT:      -0.2     57.691     60.560
ROOT
ATOM      1  C1  BGC B   1      44.030  48.693  30.2740  0.00  0.00     0.000 C
ATOM      2  C2  BGC B   1      44.644  47.380  29.7910  0.00  0.00     0.000 C
ATOM      3  C3  BGC B   1      45.466  46.751  30.9000  0.00  0.00     0.000 C
ATOM      4  C4  BGC B   1      46.468  47.752  31.4620  0.00  0.00     0.000 C
ATOM      5  C5  BGC B   1      45.709  48.992  31.9120  0.00  0.00     0.000 C
ATOM      6  O5  BGC B   1      45.062  49.545  30.7510  0.00  0.00     0.000 O
ATOM      7   O  BGC B   1      43.592  46.477  29.4130  0.00  0.00     0.000 O
ATOM      9  HD  BGC B   1      43.749  45.627  29.4740  0.00  0.00     0.000 HD
ATOM      9   O  BGC B   1      46.135  45.597  30.3810  0.00  0.00     0.000 O
ATOM     11  HD  BGC B   1      46.292  44.748  30.4430  0.00  0.00     0.000 HD
ATOM     11   O  BGC B   1      47.146  47.179  32.5590  0.00  0.00     0.000 O
ATOM     13  HD  BGC B   1      47.303  46.329  32.6200  0.00  0.00     0.000 HD
ATOM     13   C  BGC B   1      46.572  50.073  32.5460  0.00  0.00     0.000 C
ATOM     14   O  BGC B   1      47.642  50.480  31.6990  0.00  0.00     0.000 O
ATOM     16  HD  BGC B   1      47.799  49.631  31.7600  0.00  0.00     0.000 HD
ENDROOT
BRANCH 1 16
ATOM     16  O4  BGC B   2      43.518  49.343  29.1130  0.00  0.00     0.000 O
BRANCH 16 20
ATOM     17  C1  BGC B   2      40.485  51.764  27.8950  0.00  0.00     0.000 C
ATOM     18  C2  BGC B   2      41.568  52.489  28.6800  0.00  0.00     0.000 C
ATOM     19  C3  BGC B   2      42.797  51.585  28.7600  0.00  0.00     0.000 C
ATOM     20  C4  BGC B   2      42.421  50.229  29.3220  0.00  0.00     0.000 C
ATOM     21  C5  BGC B   2      41.204  49.624  28.6210  0.00  0.00     0.000 C
ATOM     22  O5  BGC B   2      40.140  50.584  28.6450  0.00  0.00     0.000 O
ATOM     23   O  BGC B   2      41.927  53.711  28.0140  0.00  0.00     0.000 O
ATOM     25  HD  BGC B   2      42.299  52.931  28.0710  0.00  0.00     0.000 HD
ATOM     25   O  BGC B   2      43.795  52.195  29.5690  0.00  0.00     0.000 O
ATOM     27  HD  BGC B   2      44.168  51.415  29.6270  0.00  0.00     0.000 HD
ATOM     27   C  BGC B   2      40.699  48.355  29.2960  0.00  0.00     0.000 C
ATOM     28   O  BGC B   2      40.383  48.535  30.6670  0.00  0.00     0.000 O
ATOM     30  HD  BGC B   2      40.756  47.755  30.7240  0.00  0.00     0.000 HD
BRANCH 17 30
ATOM     30  O4  BGC B   3      39.331  52.581  27.9390  0.00  0.00     0.000 O
BRANCH 30 34
ATOM     31  C1  BGC B   3      36.108  53.601  25.5940  0.00  0.00     0.000 C
ATOM     32  C2  BGC B   3      36.046  52.190  26.1790  0.00  0.00     0.000 C
ATOM     33  C3  BGC B   3      37.051  52.084  27.3130  0.00  0.00     0.000 C
ATOM     34  C4  BGC B   3      38.446  52.469  26.8200  0.00  0.00     0.000 C
ATOM     35  C5  BGC B   3      38.406  53.818  26.1230  0.00  0.00     0.000 C
ATOM     36  O5  BGC B   3      37.419  53.789  25.0870  0.00  0.00     0.000 O
ATOM     37   O  BGC B   3      34.743  51.951  26.7070  0.00  0.00     0.000 O
ATOM     39  HD  BGC B   3      34.957  51.119  26.8130  0.00  0.00     0.000 HD
ATOM     39   O  BGC B   3      37.042  50.750  27.7980  0.00  0.00     0.000 O
ATOM     41  HD  BGC B   3      37.256  49.917  27.9040  0.00  0.00     0.000 HD
ATOM     41   C  BGC B   3      39.740  54.241  25.5180  0.00  0.00     0.000 C
ATOM     42   O  BGC B   3      40.184  53.274  24.5960  0.00  0.00     0.000 O
ATOM     44  HD  BGC B   3      40.398  52.441  24.7020  0.00  0.00     0.000 HD
BRANCH 31 44
ATOM     44  O4  BGC B   4      35.243  53.630  24.4880  0.00  0.00     0.000 O
BRANCH 44 48
ATOM     45  C1  BGC B   4      32.785  56.199  22.4480  0.00  0.00     0.000 C
ATOM     46  C2  BGC B   4      34.273  56.415  22.2080  0.00  0.00     0.000 C
ATOM     47  C3  BGC B   4      35.038  55.201  22.6760  0.00  0.00     0.000 C
ATOM     48  C4  BGC B   4      34.687  54.880  24.1320  0.00  0.00     0.000 C
ATOM     49  C5  BGC B   4      33.167  54.780  24.3100  0.00  0.00     0.000 C
ATOM     50  O5  BGC B   4      32.544  55.984  23.8390  0.00  0.00     0.000 O
ATOM     51   O  BGC B   4      34.522  56.615  20.8040  0.00  0.00     0.000 O
ATOM     53  HD  BGC B   4      34.780  55.791  20.8720  0.00  0.00     0.000 HD
ATOM     53   O  BGC B   4      36.443  55.471  22.5650  0.00  0.00     0.000 O
ATOM     55  HD  BGC B   4      36.701  54.647  22.6340  0.00  0.00     0.000 HD
ATOM     55   C  BGC B   4      32.715  54.578  25.7450  0.00  0.00     0.000 C
ATOM     56   O  BGC B   4      33.270  55.635  26.5290  0.00  0.00     0.000 O
ATOM     58  HD  BGC B   4      33.528  54.811  26.5980  0.00  0.00     0.000 HD
BRANCH 45 58
ATOM     58  O4  BGC B   5      32.166  57.466  22.2270  0.00  0.00     0.000 O
BRANCH 58 62
ATOM     59  C1  BGC B   5      28.887  59.189  20.3740  0.00  0.00     0.000 C
ATOM     60  C2  BGC B   5      28.607  58.528  21.7090  0.00  0.00     0.000 C
ATOM     61  C3  BGC B   5      29.897  58.310  22.4770  0.00  0.00     0.000 C
ATOM     62  C4  BGC B   5      30.876  57.529  21.6150  0.00  0.00     0.000 C
ATOM     63  C5  BGC B   5      31.054  58.207  20.2480  0.00  0.00     0.000 C
ATOM     64  O5  BGC B   5      29.778  58.347  19.6340  0.00  0.00     0.000 O
ATOM     65   O  BGC B   5      31.329  56.138  19.1810  0.00  0.00     0.000 O
ATOM     67  HD  BGC B   5      31.545  55.315  19.3440  0.00  0.00     0.000 HD
ATOM     67   O  BGC B   5      31.329  56.138  19.1810  0.00  0.00     0.000 O
ATOM     69  HD  BGC B   5      31.545  55.315  19.3440  0.00  0.00     0.000 HD
ENDBRANCH 58 62
ENDBRANCH 45 58
ENDBRANCH 44 48
ENDBRANCH 31 44
ENDBRANCH 30 34
ENDBRANCH 17 30
ENDBRANCH 16 20
ENDBRANCH 1 16
TORSDOF 8
ENDMDL
MODEL 94
REMARK VINA RESULT:      -0.2     57.676     60.637
ROOT
ATOM      1  C1  BGC B   1      42.523  48.938  31.5280  0.00  0.00     0.000 C
ATOM      2  C2  BGC B   1      43.283  47.754  30.9320  0.00  0.00     0.000 C
ATOM      3  C3  BGC B   1      44.076  47.047  32.0140  0.00  0.00     0.000 C
ATOM      4  C4  BGC B   1      44.944  48.037  32.7810  0.00  0.00     0.000 C
ATOM      5  C5  BGC B   1      44.049  49.142  33.3240  0.00  0.00     0.000 C
ATOM      6  O5  BGC B   1      43.440  49.795  32.1950  0.00  0.00     0.000 O
ATOM      7   O  BGC B   1      42.344  46.832  30.3540  0.00  0.00     0.000 O
ATOM      9  HD  BGC B   1      42.570  45.997  30.3180  0.00  0.00     0.000 HD
ATOM      9   O  BGC B   1      44.879  46.029  31.4080  0.00  0.00     0.000 O
ATOM     11  HD  BGC B   1      45.105  45.194  31.3710  0.00  0.00     0.000 HD
ATOM     11   O  BGC B   1      45.589  47.374  33.8470  0.00  0.00     0.000 O
ATOM     13  HD  BGC B   1      45.815  46.539  33.8100  0.00  0.00     0.000 HD
ATOM     13   C  BGC B   1      44.766  50.191  34.1610  0.00  0.00     0.000 C
ATOM     14   O  BGC B   1      45.854  50.790  33.4650  0.00  0.00     0.000 O
ATOM     16  HD  BGC B   1      46.080  49.955  33.4280  0.00  0.00     0.000 HD
ENDROOT
BRANCH 1 16
ATOM     16  O4  BGC B   2      42.040  49.699  30.4220  0.00  0.00     0.000 O
BRANCH 16 20
ATOM     17  C1  BGC B   2      38.902  52.020  29.2820  0.00  0.00     0.000 C
ATOM     18  C2  BGC B   2      39.859  52.713  30.2400  0.00  0.00     0.000 C
ATOM     19  C3  BGC B   2      41.152  51.905  30.3040  0.00  0.00     0.000 C
ATOM     20  C4  BGC B   2      40.858  50.460  30.6530  0.00  0.00     0.000 C
ATOM     21  C5  BGC B   2      39.751  49.864  29.7820  0.00  0.00     0.000 C
ATOM     22  O5  BGC B   2      38.609  50.726  29.8430  0.00  0.00     0.000 O
ATOM     23   O  BGC B   2      40.155  54.039  29.7700  0.00  0.00     0.000 O
ATOM     25  HD  BGC B   2      40.589  53.290  29.7560  0.00  0.00     0.000 HD
ATOM     25   O  BGC B   2      42.033  52.475  31.2650  0.00  0.00     0.000 O
ATOM     27  HD  BGC B   2      42.468  51.726  31.2510  0.00  0.00     0.000 HD
ATOM     27   C  BGC B   2      39.313  48.480  30.2440  0.00  0.00     0.000 C
ATOM     28   O  BGC B   2      38.886  48.447  31.5960  0.00  0.00     0.000 O
ATOM     30  HD  BGC B   2      39.320  47.698  31.5820  0.00  0.00     0.000 HD
BRANCH 17 30
ATOM     30  O4  BGC B   3      37.680  52.732  29.3360  0.00  0.00     0.000 O
BRANCH 30 34
ATOM     31  C1  BGC B   3      34.556  53.807  26.8860  0.00  0.00     0.000 C
ATOM     32  C2  BGC B   3      34.576  52.330  27.2760  0.00  0.00     0.000 C
ATOM     33  C3  BGC B   3      35.503  52.149  28.4650  0.00  0.00     0.000 C
ATOM     34  C4  BGC B   3      36.890  52.704  28.1430  0.00  0.00     0.000 C
ATOM     35  C5  BGC B   3      36.783  54.128  27.6250  0.00  0.00     0.000 C
ATOM     36  O5  BGC B   3      35.878  54.164  26.5160  0.00  0.00     0.000 O
ATOM     37   O  BGC B   3      33.265  51.921  27.6600  0.00  0.00     0.000 O
ATOM     39  HD  BGC B   3      33.543  51.101  27.6750  0.00  0.00     0.000 HD
ATOM     39   O  BGC B   3      35.576  50.765  28.7720  0.00  0.00     0.000 O
ATOM     41  HD  BGC B   3      35.854  49.945  28.7870  0.00  0.00     0.000 HD
ATOM     41   C  BGC B   3      38.114  54.731  27.1920  0.00  0.00     0.000 C
ATOM     42   O  BGC B   3      38.705  53.935  26.1920  0.00  0.00     0.000 O
ATOM     44  HD  BGC B   3      38.983  53.115  26.2070  0.00  0.00     0.000 HD
BRANCH 31 44
ATOM     44  O4  BGC B   4      33.773  53.920  25.7250  0.00  0.00     0.000 O
BRANCH 44 48
ATOM     45  C1  BGC B   4      31.251  56.543  23.8380  0.00  0.00     0.000 C
ATOM     46  C2  BGC B   4      32.727  56.904  23.7520  0.00  0.00     0.000 C
ATOM     47  C3  BGC B   4      33.561  55.701  24.1200  0.00  0.00     0.000 C
ATOM     48  C4  BGC B   4      33.136  55.159  25.4880  0.00  0.00     0.000 C
ATOM     49  C5  BGC B   4      31.622  54.918  25.5260  0.00  0.00     0.000 C
ATOM     50  O5  BGC B   4      30.930  56.123  25.1650  0.00  0.00     0.000 O
ATOM     51   O  BGC B   4      33.057  57.311  22.4100  0.00  0.00     0.000 O
ATOM     53  HD  BGC B   4      33.381  56.508  22.3930  0.00  0.00     0.000 HD
ATOM     53   O  BGC B   4      34.941  56.091  24.1610  0.00  0.00     0.000 O
ATOM     55  HD  BGC B   4      35.264  55.288  24.1440  0.00  0.00     0.000 HD
ATOM     55   C  BGC B   4      31.088  54.489  26.8810  0.00  0.00     0.000 C
ATOM     56   O  BGC B   4      31.491  55.470  27.8380  0.00  0.00     0.000 O
ATOM     58  HD  BGC B   4      31.814  54.667  27.8210  0.00  0.00     0.000 HD
BRANCH 45 58
ATOM     58  O4  BGC B   5      30.540  57.777  23.7330  0.00  0.00     0.000 O
BRANCH 58 62
ATOM     59  C1  BGC B   5      27.264  59.475  21.8540  0.00  0.00     0.000 C
ATOM     60  C2  BGC B   5      26.948  58.620  23.0650  0.00  0.00     0.000 C
ATOM     61  C3  BGC B   5      28.194  58.401  23.9020  0.00  0.00     0.000 C
ATOM     62  C4  BGC B   5      29.296  57.822  23.0290  0.00  0.00     0.000 C
ATOM     63  C5  BGC B   5      29.512  58.690  21.7820  0.00  0.00     0.000 C
ATOM     64  O5  BGC B   5      28.275  58.814  21.0870  0.00  0.00     0.000 O
ATOM     65   O  BGC B   5      30.042  56.813  20.4820  0.00  0.00     0.000 O
ATOM     67  HD  BGC B   5      30.318  55.995  20.5550  0.00  0.00     0.000 HD
ATOM     67   O  BGC B   5      30.042  56.813  20.4820  0.00  0.00     0.000 O
ATOM     69  HD  BGC B   5      30.318  55.995  20.5550  0.00  0.00     0.000 HD
ENDBRANCH 58 62
ENDBRANCH 45 58
ENDBRANCH 44 48
ENDBRANCH 31 44
ENDBRANCH 30 34
ENDBRANCH 17 30
ENDBRANCH 16 20
ENDBRANCH 1 16
TORSDOF 8
ENDMDL
MODEL 95
REMARK VINA RESULT:      -0.2     61.802     67.079
ROOT
ATOM      1  C1  BGC B   1      46.358   9.588  55.8230  0.00  0.00     0.000 C
ATOM      2  C2  BGC B   1      47.278   9.700  54.6080  0.00  0.00     0.000 C
ATOM      3  C3  BGC B   1      47.227   8.420  53.7960  0.00  0.00     0.000 C
ATOM      4  C4  BGC B   1      47.489   7.209  54.6820  0.00  0.00     0.000 C
ATOM      5  C5  BGC B   1      46.491   7.227  55.8310  0.00  0.00     0.000 C
ATOM      6  O5  BGC B   1      46.716   8.438  56.5760  0.00  0.00     0.000 O
ATOM      7   O  BGC B   1      46.847  10.798  53.7880  0.00  0.00     0.000 O
ATOM      9  HD  BGC B   1      47.017  10.758  52.9390  0.00  0.00     0.000 HD
ATOM      9   O  BGC B   1      48.193   8.501  52.7440  0.00  0.00     0.000 O
ATOM     11  HD  BGC B   1      48.363   8.461  51.8960  0.00  0.00     0.000 HD
ATOM     11   O  BGC B   1      47.331   6.027  53.9270  0.00  0.00     0.000 O
ATOM     13  HD  BGC B   1      47.502   5.987  53.0790  0.00  0.00     0.000 HD
ATOM     13   C  BGC B   1      46.593   6.046  56.7850  0.00  0.00     0.000 C
ATOM     14   O  BGC B   1      47.902   5.896  57.3250  0.00  0.00     0.000 O
ATOM     16  HD  BGC B   1      48.073   5.856  56.4760  0.00  0.00     0.000 HD
ENDROOT
BRANCH 1 16
ATOM     16  O4  BGC B   2      46.673  10.696  56.6640  0.00  0.00     0.000 O
BRANCH 16 20
ATOM     17  C1  BGC B   2      44.941  13.341  59.2220  0.00  0.00     0.000 C
ATOM     18  C2  BGC B   2      45.142  11.955  59.8180  0.00  0.00     0.000 C
ATOM     19  C3  BGC B   2      46.107  11.179  58.9260  0.00  0.00     0.000 C
ATOM     20  C4  BGC B   2      45.617  11.175  57.4920  0.00  0.00     0.000 C
ATOM     21  C5  BGC B   2      45.247  12.575  56.9990  0.00  0.00     0.000 C
ATOM     22  O5  BGC B   2      44.328  13.158  57.9320  0.00  0.00     0.000 O
ATOM     23   O  BGC B   2      45.703  12.062  61.1370  0.00  0.00     0.000 O
ATOM     25  HD  BGC B   2      46.034  11.861  60.3620  0.00  0.00     0.000 HD
ATOM     25   O  BGC B   2      46.242   9.845  59.4040  0.00  0.00     0.000 O
ATOM     27  HD  BGC B   2      46.573   9.644  58.6290  0.00  0.00     0.000 HD
ATOM     27   C  BGC B   2      44.576  12.565  55.6310  0.00  0.00     0.000 C
ATOM     28   O  BGC B   2      43.416  11.750  55.5800  0.00  0.00     0.000 O
ATOM     30  HD  BGC B   2      43.747  11.549  54.8050  0.00  0.00     0.000 HD
BRANCH 17 30
ATOM     30  O4  BGC B   3      43.959  13.987  60.0090  0.00  0.00     0.000 O
BRANCH 30 34
ATOM     31  C1  BGC B   3      42.905  17.776  61.2170  0.00  0.00     0.000 C
ATOM     32  C2  BGC B   3      42.524  17.440  59.7760  0.00  0.00     0.000 C
ATOM     33  C3  BGC B   3      42.594  15.935  59.5870  0.00  0.00     0.000 C
ATOM     34  C4  BGC B   3      43.978  15.418  59.9770  0.00  0.00     0.000 C
ATOM     35  C5  BGC B   3      44.353  15.907  61.3650  0.00  0.00     0.000 C
ATOM     36  O5  BGC B   3      44.239  17.334  61.4130  0.00  0.00     0.000 O
ATOM     37   O  BGC B   3      41.185  17.864  59.5270  0.00  0.00     0.000 O
ATOM     39  HD  BGC B   3      41.305  17.694  58.6860  0.00  0.00     0.000 HD
ATOM     39   O  BGC B   3      42.314  15.639  58.2270  0.00  0.00     0.000 O
ATOM     41  HD  BGC B   3      42.434  15.468  57.3860  0.00  0.00     0.000 HD
ATOM     41   C  BGC B   3      45.760  15.514  61.8020  0.00  0.00     0.000 C
ATOM     42   O  BGC B   3      46.708  16.003  60.8830  0.00  0.00     0.000 O
ATOM     44  HD  BGC B   3      46.828  15.832  60.0420  0.00  0.00     0.000 HD
BRANCH 31 44
ATOM     44  O4  BGC B   4      42.929  19.176  61.3250  0.00  0.00     0.000 O
BRANCH 44 48
ATOM     45  C1  BGC B   4      42.388  22.148  64.0960  0.00  0.00     0.000 C
ATOM     46  C2  BGC B   4      43.728  21.433  64.1820  0.00  0.00     0.000 C
ATOM     47  C3  BGC B   4      43.970  20.662  62.9070  0.00  0.00     0.000 C
ATOM     48  C4  BGC B   4      42.789  19.730  62.6170  0.00  0.00     0.000 C
ATOM     49  C5  BGC B   4      41.468  20.509  62.6490  0.00  0.00     0.000 C
ATOM     50  O5  BGC B   4      41.340  21.196  63.9020  0.00  0.00     0.000 O
ATOM     51   O  BGC B   4      44.788  22.391  64.3600  0.00  0.00     0.000 O
ATOM     53  HD  BGC B   4      44.895  22.224  63.5170  0.00  0.00     0.000 HD
ATOM     53   O  BGC B   4      45.170  19.890  63.0540  0.00  0.00     0.000 O
ATOM     55  HD  BGC B   4      45.277  19.723  62.2110  0.00  0.00     0.000 HD
ATOM     55   C  BGC B   4      40.228  19.647  62.4870  0.00  0.00     0.000 C
ATOM     56   O  BGC B   4      40.268  18.634  63.4930  0.00  0.00     0.000 O
ATOM     58  HD  BGC B   4      40.374  18.467  62.6500  0.00  0.00     0.000 HD
BRANCH 45 58
ATOM     58  O4  BGC B   5      42.117  22.631  65.4110  0.00  0.00     0.000 O
BRANCH 58 62
ATOM     59  C1  BGC B   5      40.833  26.002  67.4450  0.00  0.00     0.000 C
ATOM     60  C2  BGC B   5      39.764  25.271  66.6580  0.00  0.00     0.000 C
ATOM     61  C3  BGC B   5      40.224  23.868  66.3110  0.00  0.00     0.000 C
ATOM     62  C4  BGC B   5      41.560  23.936  65.5880  0.00  0.00     0.000 C
ATOM     63  C5  BGC B   5      42.573  24.756  66.4000  0.00  0.00     0.000 C
ATOM     64  O5  BGC B   5      42.025  26.045  66.6540  0.00  0.00     0.000 O
ATOM     65   O  BGC B   5      43.575  25.578  64.4460  0.00  0.00     0.000 O
ATOM     67  HD  BGC B   5      43.662  25.399  63.6030  0.00  0.00     0.000 HD
ATOM     67   O  BGC B   5      43.575  25.578  64.4460  0.00  0.00     0.000 O
ATOM     69  HD  BGC B   5      43.662  25.399  63.6030  0.00  0.00     0.000 HD
ENDBRANCH 58 62
ENDBRANCH 45 58
ENDBRANCH 44 48
ENDBRANCH 31 44
ENDBRANCH 30 34
ENDBRANCH 17 30
ENDBRANCH 16 20
ENDBRANCH 1 16
TORSDOF 8
ENDMDL
MODEL 96
REMARK VINA RESULT:      -0.2     40.735     45.669
ROOT
ATOM      1  C1  BGC B   1      30.443  35.162  34.6580  0.00  0.00     0.000 C
ATOM      2  C2  BGC B   1      31.936  35.299  34.9530  0.00  0.00     0.000 C
ATOM      3  C3  BGC B   1      32.346  34.319  36.0340  0.00  0.00     0.000 C
ATOM      4  C4  BGC B   1      31.443  34.452  37.2540  0.00  0.00     0.000 C
ATOM      5  C5  BGC B   1      30.000  34.277  36.8060  0.00  0.00     0.000 C
ATOM      6  O5  BGC B   1      29.711  35.327  35.8640  0.00  0.00     0.000 O
ATOM      7   O  BGC B   1      32.682  35.023  33.7550  0.00  0.00     0.000 O
ATOM      9  HD  BGC B   1      33.485  34.711  33.8440  0.00  0.00     0.000 HD
ATOM      9   O  BGC B   1      33.713  34.560  36.3830  0.00  0.00     0.000 O
ATOM     11  HD  BGC B   1      34.516  34.248  36.4720  0.00  0.00     0.000 HD
ATOM     11   O  BGC B   1      31.777  33.461  38.2010  0.00  0.00     0.000 O
ATOM     13  HD  BGC B   1      32.580  33.149  38.2900  0.00  0.00     0.000 HD
ATOM     13   C  BGC B   1      28.972  34.336  37.9270  0.00  0.00     0.000 C
ATOM     14   O  BGC B   1      29.067  35.536  38.6880  0.00  0.00     0.000 O
ATOM     16  HD  BGC B   1      29.871  35.225  38.7770  0.00  0.00     0.000 HD
ENDROOT
BRANCH 1 16
ATOM     16  O4  BGC B   2      30.091  36.285  33.8530  0.00  0.00     0.000 O
BRANCH 16 20
ATOM     17  C1  BGC B   2      27.619  37.380  30.8150  0.00  0.00     0.000 C
ATOM     18  C2  BGC B   2      26.907  37.198  32.1470  0.00  0.00     0.000 C
ATOM     19  C3  BGC B   2      27.957  37.154  33.2560  0.00  0.00     0.000 C
ATOM     20  C4  BGC B   2      28.999  36.096  32.9560  0.00  0.00     0.000 C
ATOM     21  C5  BGC B   2      29.549  36.206  31.5340  0.00  0.00     0.000 C
ATOM     22  O5  BGC B   2      28.447  36.218  30.6180  0.00  0.00     0.000 O
ATOM     23   O  BGC B   2      26.017  38.301  32.3860  0.00  0.00     0.000 O
ATOM     25  HD  BGC B   2      26.801  38.091  32.6890  0.00  0.00     0.000 HD
ATOM     25   O  BGC B   2      27.330  36.889  34.5050  0.00  0.00     0.000 O
ATOM     27  HD  BGC B   2      28.114  36.679  34.8080  0.00  0.00     0.000 HD
ATOM     27   C  BGC B   2      30.454  35.041  31.1550  0.00  0.00     0.000 C
ATOM     28   O  BGC B   2      29.830  33.775  31.2980  0.00  0.00     0.000 O
ATOM     30  HD  BGC B   2      30.614  33.564  31.6000  0.00  0.00     0.000 HD
BRANCH 17 30
ATOM     30  O4  BGC B   3      26.629  37.303  29.8070  0.00  0.00     0.000 O
BRANCH 30 34
ATOM     31  C1  BGC B   3      25.836  38.768  26.0460  0.00  0.00     0.000 C
ATOM     32  C2  BGC B   3      27.004  37.785  26.1110  0.00  0.00     0.000 C
ATOM     33  C3  BGC B   3      26.939  37.031  27.4270  0.00  0.00     0.000 C
ATOM     34  C4  BGC B   3      26.915  38.013  28.5980  0.00  0.00     0.000 C
ATOM     35  C5  BGC B   3      25.821  39.047  28.3970  0.00  0.00     0.000 C
ATOM     36  O5  BGC B   3      25.990  39.677  27.1230  0.00  0.00     0.000 O
ATOM     37   O  BGC B   3      26.894  36.843  25.0450  0.00  0.00     0.000 O
ATOM     39  HD  BGC B   3      27.687  36.554  25.2410  0.00  0.00     0.000 HD
ATOM     39   O  BGC B   3      28.070  36.177  27.5130  0.00  0.00     0.000 O
ATOM     41  HD  BGC B   3      28.863  35.888  27.7080  0.00  0.00     0.000 HD
ATOM     41   C  BGC B   3      25.782  40.125  29.4750  0.00  0.00     0.000 C
ATOM     42   O  BGC B   3      27.021  40.790  29.5410  0.00  0.00     0.000 O
ATOM     44  HD  BGC B   3      27.814  40.501  29.7360  0.00  0.00     0.000 HD
BRANCH 31 44
ATOM     44  O4  BGC B   4      25.987  39.515  24.8660  0.00  0.00     0.000 O
BRANCH 44 48
ATOM     45  C1  BGC B   4      23.770  41.518  22.0590  0.00  0.00     0.000 C
ATOM     46  C2  BGC B   4      23.814  42.181  23.4290  0.00  0.00     0.000 C
ATOM     47  C3  BGC B   4      24.944  41.592  24.2370  0.00  0.00     0.000 C
ATOM     48  C4  BGC B   4      24.819  40.066  24.2920  0.00  0.00     0.000 C
ATOM     49  C5  BGC B   4      24.677  39.485  22.8790  0.00  0.00     0.000 C
ATOM     50  O5  BGC B   4      23.574  40.110  22.2070  0.00  0.00     0.000 O
ATOM     51   O  BGC B   4      24.028  43.598  23.2840  0.00  0.00     0.000 O
ATOM     53  HD  BGC B   4      24.829  43.360  23.5120  0.00  0.00     0.000 HD
ATOM     53   O  BGC B   4      24.891  42.130  25.5660  0.00  0.00     0.000 O
ATOM     55  HD  BGC B   4      25.693  41.893  25.7930  0.00  0.00     0.000 HD
ATOM     55   C  BGC B   4      24.431  37.988  22.8380  0.00  0.00     0.000 C
ATOM     56   O  BGC B   4      23.280  37.714  23.6400  0.00  0.00     0.000 O
ATOM     58  HD  BGC B   4      24.081  37.476  23.8670  0.00  0.00     0.000 HD
BRANCH 45 58
ATOM     58  O4  BGC B   5      22.541  41.932  21.4630  0.00  0.00     0.000 O
BRANCH 58 62
ATOM     59  C1  BGC B   5      20.991  43.352  17.8950  0.00  0.00     0.000 C
ATOM     60  C2  BGC B   5      21.234  41.857  17.9500  0.00  0.00     0.000 C
ATOM     61  C3  BGC B   5      21.394  41.395  19.3850  0.00  0.00     0.000 C
ATOM     62  C4  BGC B   5      22.488  42.205  20.0610  0.00  0.00     0.000 C
ATOM     63  C5  BGC B   5      22.225  43.710  19.9020  0.00  0.00     0.000 C
ATOM     64  O5  BGC B   5      22.100  44.011  18.5160  0.00  0.00     0.000 O
ATOM     65   O  BGC B   5      24.520  44.169  19.7840  0.00  0.00     0.000 O
ATOM     67  HD  BGC B   5      25.290  43.833  19.9970  0.00  0.00     0.000 HD
ATOM     67   O  BGC B   5      24.520  44.169  19.7840  0.00  0.00     0.000 O
ATOM     69  HD  BGC B   5      25.290  43.833  19.9970  0.00  0.00     0.000 HD
ENDBRANCH 58 62
ENDBRANCH 45 58
ENDBRANCH 44 48
ENDBRANCH 31 44
ENDBRANCH 30 34
ENDBRANCH 17 30
ENDBRANCH 16 20
ENDBRANCH 1 16
TORSDOF 8
ENDMDL
MODEL 97
REMARK VINA RESULT:      -0.2     37.534     43.739
ROOT
ATOM      1  C1  BGC B   1      30.259  35.892  33.3550  0.00  0.00     0.000 C
ATOM      2  C2  BGC B   1      31.696  35.876  33.8730  0.00  0.00     0.000 C
ATOM      3  C3  BGC B   1      31.737  35.310  35.2790  0.00  0.00     0.000 C
ATOM      4  C4  BGC B   1      30.745  36.034  36.1810  0.00  0.00     0.000 C
ATOM      5  C5  BGC B   1      29.366  35.950  35.5440  0.00  0.00     0.000 C
ATOM      6  O5  BGC B   1      29.440  36.611  34.2670  0.00  0.00     0.000 O
ATOM      7   O  BGC B   1      32.501  35.056  33.0100  0.00  0.00     0.000 O
ATOM      9  HD  BGC B   1      33.196  34.670  33.3540  0.00  0.00     0.000 HD
ATOM      9   O  BGC B   1      33.069  35.431  35.7880  0.00  0.00     0.000 O
ATOM     11  HD  BGC B   1      33.764  35.045  36.1320  0.00  0.00     0.000 HD
ATOM     11   O  BGC B   1      30.726  35.422  37.4520  0.00  0.00     0.000 O
ATOM     13  HD  BGC B   1      31.420  35.036  37.7960  0.00  0.00     0.000 HD
ATOM     13   C  BGC B   1      28.248  36.590  36.3550  0.00  0.00     0.000 C
ATOM     14   O  BGC B   1      28.519  37.952  36.6710  0.00  0.00     0.000 O
ATOM     16  HD  BGC B   1      29.213  37.566  37.0150  0.00  0.00     0.000 HD
ENDROOT
BRANCH 1 16
ATOM     16  O4  BGC B   2      30.272  36.679  32.1670  0.00  0.00     0.000 O
BRANCH 16 20
ATOM     17  C1  BGC B   2      28.506  36.973  28.5150  0.00  0.00     0.000 C
ATOM     18  C2  BGC B   2      27.613  37.418  29.6640  0.00  0.00     0.000 C
ATOM     19  C3  BGC B   2      28.481  37.611  30.9060  0.00  0.00     0.000 C
ATOM     20  C4  BGC B   2      29.285  36.359  31.1900  0.00  0.00     0.000 C
ATOM     21  C5  BGC B   2      30.016  35.842  29.9510  0.00  0.00     0.000 C
ATOM     22  O5  BGC B   2      29.067  35.699  28.8870  0.00  0.00     0.000 O
ATOM     23   O  BGC B   2      26.974  38.663  29.3380  0.00  0.00     0.000 O
ATOM     25  HD  BGC B   2      27.646  38.451  29.8420  0.00  0.00     0.000 HD
ATOM     25   O  BGC B   2      27.661  37.935  32.0230  0.00  0.00     0.000 O
ATOM     27  HD  BGC B   2      28.334  37.723  32.5260  0.00  0.00     0.000 HD
ATOM     27   C  BGC B   2      30.673  34.485  30.1720  0.00  0.00     0.000 C
ATOM     28   O  BGC B   2      29.765  33.485  30.6060  0.00  0.00     0.000 O
ATOM     30  HD  BGC B   2      30.438  33.273  31.1090  0.00  0.00     0.000 HD
BRANCH 17 30
ATOM     30  O4  BGC B   3      27.656  36.696  27.4190  0.00  0.00     0.000 O
BRANCH 30 34
ATOM     31  C1  BGC B   3      27.684  36.778  23.3060  0.00  0.00     0.000 C
ATOM     32  C2  BGC B   3      28.582  35.708  23.9250  0.00  0.00     0.000 C
ATOM     33  C3  BGC B   3      28.187  35.516  25.3790  0.00  0.00     0.000 C
ATOM     34  C4  BGC B   3      28.242  36.850  26.1220  0.00  0.00     0.000 C
ATOM     35  C5  BGC B   3      27.444  37.904  25.3750  0.00  0.00     0.000 C
ATOM     36  O5  BGC B   3      27.907  37.981  24.0230  0.00  0.00     0.000 O
ATOM     37   O  BGC B   3      28.394  34.472  23.2390  0.00  0.00     0.000 O
ATOM     39  HD  BGC B   3      29.070  34.147  23.6720  0.00  0.00     0.000 HD
ATOM     39   O  BGC B   3      29.076  34.577  25.9670  0.00  0.00     0.000 O
ATOM     41  HD  BGC B   3      29.752  34.253  26.3990  0.00  0.00     0.000 HD
ATOM     41   C  BGC B   3      27.518  39.294  25.9980  0.00  0.00     0.000 C
ATOM     42   O  BGC B   3      28.858  39.719  26.0780  0.00  0.00     0.000 O
ATOM     44  HD  BGC B   3      29.535  39.394  26.5110  0.00  0.00     0.000 HD
BRANCH 31 44
ATOM     44  O4  BGC B   4      28.145  37.000  21.9980  0.00  0.00     0.000 O
BRANCH 44 48
ATOM     45  C1  BGC B   4      26.802  38.165  18.3040  0.00  0.00     0.000 C
ATOM     46  C2  BGC B   4      26.827  39.269  19.3510  0.00  0.00     0.000 C
ATOM     47  C3  BGC B   4      27.685  38.840  20.5150  0.00  0.00     0.000 C
ATOM     48  C4  BGC B   4      27.212  37.487  21.0540  0.00  0.00     0.000 C
ATOM     49  C5  BGC B   4      27.117  36.458  19.9210  0.00  0.00     0.000 C
ATOM     50  O5  BGC B   4      26.276  36.966  18.8750  0.00  0.00     0.000 O
ATOM     51   O  BGC B   4      27.372  40.475  18.7830  0.00  0.00     0.000 O
ATOM     53  HD  BGC B   4      28.065  40.208  19.2300  0.00  0.00     0.000 HD
ATOM     53   O  BGC B   4      27.593  39.832  21.5480  0.00  0.00     0.000 O
ATOM     55  HD  BGC B   4      28.286  39.565  21.9940  0.00  0.00     0.000 HD
ATOM     55   C  BGC B   4      26.545  35.115  20.3380  0.00  0.00     0.000 C
ATOM     56   O  BGC B   4      25.272  35.353  20.9430  0.00  0.00     0.000 O
ATOM     58  HD  BGC B   4      25.965  35.086  21.3890  0.00  0.00     0.000 HD
BRANCH 45 58
ATOM     58  O4  BGC B   5      25.782  38.529  17.3740  0.00  0.00     0.000 O
BRANCH 58 62
ATOM     59  C1  BGC B   5      24.904  38.555  13.3270  0.00  0.00     0.000 C
ATOM     60  C2  BGC B   5      25.031  37.182  13.9560  0.00  0.00     0.000 C
ATOM     61  C3  BGC B   5      24.935  37.277  15.4670  0.00  0.00     0.000 C
ATOM     62  C4  BGC B   5      25.966  38.270  15.9810  0.00  0.00     0.000 C
ATOM     63  C5  BGC B   5      25.836  39.613  15.2480  0.00  0.00     0.000 C
ATOM     64  O5  BGC B   5      25.947  39.386  13.8470  0.00  0.00     0.000 O
ATOM     65   O  BGC B   5      28.149  39.978  15.3630  0.00  0.00     0.000 O
ATOM     67  HD  BGC B   5      28.850  39.737  15.8100  0.00  0.00     0.000 HD
ATOM     67   O  BGC B   5      28.149  39.978  15.3630  0.00  0.00     0.000 O
ATOM     69  HD  BGC B   5      28.850  39.737  15.8100  0.00  0.00     0.000 HD
ENDBRANCH 58 62
ENDBRANCH 45 58
ENDBRANCH 44 48
ENDBRANCH 31 44
ENDBRANCH 30 34
ENDBRANCH 17 30
ENDBRANCH 16 20
ENDBRANCH 1 16
TORSDOF 8
ENDMDL
MODEL 98
REMARK VINA RESULT:      -0.2     36.594     43.296
ROOT
ATOM      1  C1  BGC B   1      30.964  33.556  35.1410  0.00  0.00     0.000 C
ATOM      2  C2  BGC B   1      32.402  33.540  35.6590  0.00  0.00     0.000 C
ATOM      3  C3  BGC B   1      32.443  32.975  37.0650  0.00  0.00     0.000 C
ATOM      4  C4  BGC B   1      31.450  33.699  37.9670  0.00  0.00     0.000 C
ATOM      5  C5  BGC B   1      30.071  33.615  37.3300  0.00  0.00     0.000 C
ATOM      6  O5  BGC B   1      30.146  34.275  36.0530  0.00  0.00     0.000 O
ATOM      7   O  BGC B   1      33.206  32.720  34.7950  0.00  0.00     0.000 O
ATOM      9  HD  BGC B   1      33.901  32.334  35.1400  0.00  0.00     0.000 HD
ATOM      9   O  BGC B   1      33.775  33.095  37.5730  0.00  0.00     0.000 O
ATOM     11  HD  BGC B   1      34.469  32.709  37.9180  0.00  0.00     0.000 HD
ATOM     11   O  BGC B   1      31.431  33.086  39.2380  0.00  0.00     0.000 O
ATOM     13  HD  BGC B   1      32.126  32.700  39.5820  0.00  0.00     0.000 HD
ATOM     13   C  BGC B   1      28.953  34.255  38.1410  0.00  0.00     0.000 C
ATOM     14   O  BGC B   1      29.224  35.617  38.4570  0.00  0.00     0.000 O
ATOM     16  HD  BGC B   1      29.918  35.231  38.8010  0.00  0.00     0.000 HD
ENDROOT
BRANCH 1 16
ATOM     16  O4  BGC B   2      30.978  34.344  33.9520  0.00  0.00     0.000 O
BRANCH 16 20
ATOM     17  C1  BGC B   2      29.212  34.637  30.3010  0.00  0.00     0.000 C
ATOM     18  C2  BGC B   2      28.318  35.082  31.4500  0.00  0.00     0.000 C
ATOM     19  C3  BGC B   2      29.186  35.275  32.6910  0.00  0.00     0.000 C
ATOM     20  C4  BGC B   2      29.990  34.023  32.9760  0.00  0.00     0.000 C
ATOM     21  C5  BGC B   2      30.721  33.506  31.7370  0.00  0.00     0.000 C
ATOM     22  O5  BGC B   2      29.772  33.364  30.6730  0.00  0.00     0.000 O
ATOM     23   O  BGC B   2      27.679  36.327  31.1240  0.00  0.00     0.000 O
ATOM     25  HD  BGC B   2      28.351  36.115  31.6270  0.00  0.00     0.000 HD
ATOM     25   O  BGC B   2      28.367  35.600  33.8090  0.00  0.00     0.000 O
ATOM     27  HD  BGC B   2      29.039  35.388  34.3120  0.00  0.00     0.000 HD
ATOM     27   C  BGC B   2      31.378  32.149  31.9580  0.00  0.00     0.000 C
ATOM     28   O  BGC B   2      30.471  31.150  32.3920  0.00  0.00     0.000 O
ATOM     30  HD  BGC B   2      31.143  30.938  32.8950  0.00  0.00     0.000 HD
BRANCH 17 30
ATOM     30  O4  BGC B   3      28.361  34.360  29.2050  0.00  0.00     0.000 O
BRANCH 30 34
ATOM     31  C1  BGC B   3      28.390  34.442  25.0920  0.00  0.00     0.000 C
ATOM     32  C2  BGC B   3      29.288  33.372  25.7110  0.00  0.00     0.000 C
ATOM     33  C3  BGC B   3      28.892  33.180  27.1650  0.00  0.00     0.000 C
ATOM     34  C4  BGC B   3      28.947  34.514  27.9080  0.00  0.00     0.000 C
ATOM     35  C5  BGC B   3      28.150  35.568  27.1610  0.00  0.00     0.000 C
ATOM     36  O5  BGC B   3      28.612  35.646  25.8080  0.00  0.00     0.000 O
ATOM     37   O  BGC B   3      29.099  32.136  25.0250  0.00  0.00     0.000 O
ATOM     39  HD  BGC B   3      29.775  31.812  25.4580  0.00  0.00     0.000 HD
ATOM     39   O  BGC B   3      29.781  32.242  27.7520  0.00  0.00     0.000 O
ATOM     41  HD  BGC B   3      30.457  31.917  28.1850  0.00  0.00     0.000 HD
ATOM     41   C  BGC B   3      28.224  36.958  27.7840  0.00  0.00     0.000 C
ATOM     42   O  BGC B   3      29.564  37.383  27.8640  0.00  0.00     0.000 O
ATOM     44  HD  BGC B   3      30.240  37.059  28.2960  0.00  0.00     0.000 HD
BRANCH 31 44
ATOM     44  O4  BGC B   4      28.850  34.665  23.7840  0.00  0.00     0.000 O
BRANCH 44 48
ATOM     45  C1  BGC B   4      27.508  35.829  20.0890  0.00  0.00     0.000 C
ATOM     46  C2  BGC B   4      27.532  36.934  21.1370  0.00  0.00     0.000 C
ATOM     47  C3  BGC B   4      28.391  36.504  22.3010  0.00  0.00     0.000 C
ATOM     48  C4  BGC B   4      27.917  35.151  22.8400  0.00  0.00     0.000 C
ATOM     49  C5  BGC B   4      27.823  34.122  21.7070  0.00  0.00     0.000 C
ATOM     50  O5  BGC B   4      26.982  34.630  20.6600  0.00  0.00     0.000 O
ATOM     51   O  BGC B   4      28.078  38.140  20.5690  0.00  0.00     0.000 O
ATOM     53  HD  BGC B   4      28.770  37.873  21.0160  0.00  0.00     0.000 HD
ATOM     53   O  BGC B   4      28.299  37.496  23.3340  0.00  0.00     0.000 O
ATOM     55  HD  BGC B   4      28.991  37.229  23.7800  0.00  0.00     0.000 HD
ATOM     55   C  BGC B   4      27.250  32.780  22.1240  0.00  0.00     0.000 C
ATOM     56   O  BGC B   4      25.978  33.018  22.7290  0.00  0.00     0.000 O
ATOM     58  HD  BGC B   4      26.670  32.751  23.1750  0.00  0.00     0.000 HD
BRANCH 45 58
ATOM     58  O4  BGC B   5      26.487  36.194  19.1600  0.00  0.00     0.000 O
BRANCH 58 62
ATOM     59  C1  BGC B   5      25.610  36.219  15.1130  0.00  0.00     0.000 C
ATOM     60  C2  BGC B   5      25.737  34.847  15.7420  0.00  0.00     0.000 C
ATOM     61  C3  BGC B   5      25.640  34.942  17.2530  0.00  0.00     0.000 C
ATOM     62  C4  BGC B   5      26.671  35.934  17.7660  0.00  0.00     0.000 C
ATOM     63  C5  BGC B   5      26.541  37.278  17.0340  0.00  0.00     0.000 C
ATOM     64  O5  BGC B   5      26.653  37.050  15.6330  0.00  0.00     0.000 O
ATOM     65   O  BGC B   5      28.854  37.642  17.1490  0.00  0.00     0.000 O
ATOM     67  HD  BGC B   5      29.556  37.401  17.5950  0.00  0.00     0.000 HD
ATOM     67   O  BGC B   5      28.854  37.642  17.1490  0.00  0.00     0.000 O
ATOM     69  HD  BGC B   5      29.556  37.401  17.5950  0.00  0.00     0.000 HD
ENDBRANCH 58 62
ENDBRANCH 45 58
ENDBRANCH 44 48
ENDBRANCH 31 44
ENDBRANCH 30 34
ENDBRANCH 17 30
ENDBRANCH 16 20
ENDBRANCH 1 16
TORSDOF 8
ENDMDL
MODEL 99
REMARK VINA RESULT:      -0.2     64.219     67.536
ROOT
ATOM      1  C1  BGC B   1      50.007   8.445  57.3490  0.00  0.00     0.000 C
ATOM      2  C2  BGC B   1      51.416   8.767  56.8530  0.00  0.00     0.000 C
ATOM      3  C3  BGC B   1      51.942   7.628  56.0020  0.00  0.00     0.000 C
ATOM      4  C4  BGC B   1      51.816   6.301  56.7400  0.00  0.00     0.000 C
ATOM      5  C5  BGC B   1      50.363   6.116  57.1540  0.00  0.00     0.000 C
ATOM      6  O5  BGC B   1      50.026   7.202  58.0370  0.00  0.00     0.000 O
ATOM      7   O  BGC B   1      51.377   9.968  56.0640  0.00  0.00     0.000 O
ATOM      9  HD  BGC B   1      51.977  10.064  55.4470  0.00  0.00     0.000 HD
ATOM      9   O  BGC B   1      53.306   7.894  55.6630  0.00  0.00     0.000 O
ATOM     11  HD  BGC B   1      53.906   7.991  55.0460  0.00  0.00     0.000 HD
ATOM     11   O  BGC B   1      52.211   5.246  55.8900  0.00  0.00     0.000 O
ATOM     13  HD  BGC B   1      52.812   5.342  55.2730  0.00  0.00     0.000 HD
ATOM     13   C  BGC B   1      50.064   4.804  57.8650  0.00  0.00     0.000 C
ATOM     14   O  BGC B   1      50.889   4.606  59.0090  0.00  0.00     0.000 O
ATOM     16  HD  BGC B   1      51.489   4.703  58.3920  0.00  0.00     0.000 HD
ENDROOT
BRANCH 1 16
ATOM     16  O4  BGC B   2      49.705   9.418  58.3480  0.00  0.00     0.000 O
BRANCH 16 20
ATOM     17  C1  BGC B   2      46.555  11.475  59.8920  0.00  0.00     0.000 C
ATOM     18  C2  BGC B   2      46.726  10.084  60.4830  0.00  0.00     0.000 C
ATOM     19  C3  BGC B   2      48.114   9.566  60.1130  0.00  0.00     0.000 C
ATOM     20  C4  BGC B   2      48.322   9.636  58.6140  0.00  0.00     0.000 C
ATOM     21  C5  BGC B   2      47.955  11.004  58.0370  0.00  0.00     0.000 C
ATOM     22  O5  BGC B   2      46.626  11.335  58.4600  0.00  0.00     0.000 O
ATOM     23   O  BGC B   2      46.611  10.138  61.9150  0.00  0.00     0.000 O
ATOM     25  HD  BGC B   2      47.283  10.074  61.3720  0.00  0.00     0.000 HD
ATOM     25   O  BGC B   2      48.269   8.228  60.5700  0.00  0.00     0.000 O
ATOM     27  HD  BGC B   2      48.941   8.163  60.0270  0.00  0.00     0.000 HD
ATOM     27   C  BGC B   2      47.977  11.032  56.5140  0.00  0.00     0.000 C
ATOM     28   O  BGC B   2      47.137  10.056  55.9210  0.00  0.00     0.000 O
ATOM     30  HD  BGC B   2      47.808   9.991  55.3780  0.00  0.00     0.000 HD
BRANCH 17 30
ATOM     30  O4  BGC B   3      45.224  11.873  60.1580  0.00  0.00     0.000 O
BRANCH 30 34
ATOM     31  C1  BGC B   3      43.044  15.283  60.8970  0.00  0.00     0.000 C
ATOM     32  C2  BGC B   3      43.536  15.144  59.4570  0.00  0.00     0.000 C
ATOM     33  C3  BGC B   3      43.960  13.705  59.2190  0.00  0.00     0.000 C
ATOM     34  C4  BGC B   3      45.003  13.284  60.2530  0.00  0.00     0.000 C
ATOM     35  C5  BGC B   3      44.506  13.582  61.6570  0.00  0.00     0.000 C
ATOM     36  O5  BGC B   3      44.133  14.961  61.7470  0.00  0.00     0.000 O
ATOM     37   O  BGC B   3      42.474  15.456  58.5580  0.00  0.00     0.000 O
ATOM     39  HD  BGC B   3      43.042  15.437  57.9050  0.00  0.00     0.000 HD
ATOM     39   O  BGC B   3      44.487  13.603  57.9050  0.00  0.00     0.000 O
ATOM     41  HD  BGC B   3      45.056  13.583  57.2520  0.00  0.00     0.000 HD
ATOM     41   C  BGC B   3      45.522  13.277  62.7520  0.00  0.00     0.000 C
ATOM     42   O  BGC B   3      46.706  14.007  62.5320  0.00  0.00     0.000 O
ATOM     44  HD  BGC B   3      47.275  13.987  61.8790  0.00  0.00     0.000 HD
BRANCH 31 44
ATOM     44  O4  BGC B   4      42.759  16.642  61.1090  0.00  0.00     0.000 O
BRANCH 44 48
ATOM     45  C1  BGC B   4      40.159  19.038  63.1830  0.00  0.00     0.000 C
ATOM     46  C2  BGC B   4      41.312  18.484  64.0080  0.00  0.00     0.000 C
ATOM     47  C3  BGC B   4      42.387  17.965  63.0850  0.00  0.00     0.000 C
ATOM     48  C4  BGC B   4      41.796  16.958  62.0940  0.00  0.00     0.000 C
ATOM     49  C5  BGC B   4      40.579  17.556  61.3780  0.00  0.00     0.000 C
ATOM     50  O5  BGC B   4      39.623  18.011  62.3470  0.00  0.00     0.000 O
ATOM     51   O  BGC B   4      41.867  19.521  64.8400  0.00  0.00     0.000 O
ATOM     53  HD  BGC B   4      42.469  19.507  64.2180  0.00  0.00     0.000 HD
ATOM     53   O  BGC B   4      43.405  17.330  63.8720  0.00  0.00     0.000 O
ATOM     55  HD  BGC B   4      44.008  17.316  63.2500  0.00  0.00     0.000 HD
ATOM     55   C  BGC B   4      39.854  16.590  60.4590  0.00  0.00     0.000 C
ATOM     56   O  BGC B   4      39.502  15.438  61.2280  0.00  0.00     0.000 O
ATOM     58  HD  BGC B   4      40.104  15.425  60.6060  0.00  0.00     0.000 HD
BRANCH 45 58
ATOM     58  O4  BGC B   5      39.093  19.264  64.1050  0.00  0.00     0.000 O
BRANCH 58 62
ATOM     59  C1  BGC B   5      36.331  22.140  65.2230  0.00  0.00     0.000 C
ATOM     60  C2  BGC B   5      35.996  21.374  63.9590  0.00  0.00     0.000 C
ATOM     61  C3  BGC B   5      36.820  20.104  63.8720  0.00  0.00     0.000 C
ATOM     62  C4  BGC B   5      38.296  20.446  63.9920  0.00  0.00     0.000 C
ATOM     63  C5  BGC B   5      38.555  21.289  65.2500  0.00  0.00     0.000 C
ATOM     64  O5  BGC B   5      37.728  22.447  65.2060  0.00  0.00     0.000 O
ATOM     65   O  BGC B   5      40.266  22.483  64.1800  0.00  0.00     0.000 O
ATOM     67  HD  BGC B   5      40.817  22.426  63.5150  0.00  0.00     0.000 HD
ATOM     67   O  BGC B   5      40.266  22.483  64.1800  0.00  0.00     0.000 O
ATOM     69  HD  BGC B   5      40.817  22.426  63.5150  0.00  0.00     0.000 HD
ENDBRANCH 58 62
ENDBRANCH 45 58
ENDBRANCH 44 48
ENDBRANCH 31 44
ENDBRANCH 30 34
ENDBRANCH 17 30
ENDBRANCH 16 20
ENDBRANCH 1 16
TORSDOF 8
ENDMDL
MODEL 100
REMARK VINA RESULT:       0.3      8.661     15.107
ROOT
ATOM      1  C1  BGC B   1      19.560   4.404   4.5150  0.00  0.00     0.000 C
ATOM      2  C2  BGC B   1      18.151   4.727   4.0230  0.00  0.00     0.000 C
ATOM      3  C3  BGC B   1      17.122   4.195   5.0020  0.00  0.00     0.000 C
ATOM      4  C4  BGC B   1      17.370   2.721   5.2970  0.00  0.00     0.000 C
ATOM      5  C5  BGC B   1      18.801   2.563   5.7900  0.00  0.00     0.000 C
ATOM      6  O5  BGC B   1      19.672   3.005   4.7320  0.00  0.00     0.000 O
ATOM      7   O  BGC B   1      18.004   6.152   3.9100  0.00  0.00     0.000 O
ATOM      9  HD  BGC B   1      17.209   6.484   4.0010  0.00  0.00     0.000 HD
ATOM      9   O  BGC B   1      15.816   4.392   4.4530  0.00  0.00     0.000 O
ATOM     11  HD  BGC B   1      15.021   4.723   4.5440  0.00  0.00     0.000 HD
ATOM     11   O  BGC B   1      16.469   2.278   6.2880  0.00  0.00     0.000 O
ATOM     13  HD  BGC B   1      15.674   2.609   6.3790  0.00  0.00     0.000 HD
ATOM     13   C  BGC B   1      19.190   1.143   6.1750  0.00  0.00     0.000 C
ATOM     14   O  BGC B   1      18.970   0.214   5.1180  0.00  0.00     0.000 O
ATOM     16  HD  BGC B   1      18.175   0.545   5.2090  0.00  0.00     0.000 HD
ENDROOT
BRANCH 1 16
ATOM     16  O4  BGC B   2      20.437   4.683   3.4250  0.00  0.00     0.000 O
BRANCH 16 20
ATOM     17  C1  BGC B   2      23.601   7.234   3.3060  0.00  0.00     0.000 C
ATOM     18  C2  BGC B   2      23.909   5.852   2.7500  0.00  0.00     0.000 C
ATOM     19  C3  BGC B   2      22.590   5.121   2.5090  0.00  0.00     0.000 C
ATOM     20  C4  BGC B   2      21.751   5.113   3.7700  0.00  0.00     0.000 C
ATOM     21  C5  BGC B   2      21.628   6.503   4.3970  0.00  0.00     0.000 C
ATOM     22  O5  BGC B   2      22.944   7.042   4.5730  0.00  0.00     0.000 O
ATOM     23   O  BGC B   2      24.618   5.966   1.5050  0.00  0.00     0.000 O
ATOM     25  HD  BGC B   2      23.796   5.785   1.7090  0.00  0.00     0.000 HD
ATOM     25   O  BGC B   2      22.846   3.789   2.0790  0.00  0.00     0.000 O
ATOM     27  HD  BGC B   2      22.024   3.608   2.2840  0.00  0.00     0.000 HD
ATOM     27   C  BGC B   2      20.950   6.481   5.7610  0.00  0.00     0.000 C
ATOM     28   O  BGC B   2      21.589   5.624   6.6930  0.00  0.00     0.000 O
ATOM     30  HD  BGC B   2      20.767   5.443   6.8980  0.00  0.00     0.000 HD
BRANCH 17 30
ATOM     30  O4  BGC B   3      24.843   7.835   3.6210  0.00  0.00     0.000 O
BRANCH 30 34
ATOM     31  C1  BGC B   3      26.602  11.553   3.6820  0.00  0.00     0.000 C
ATOM     32  C2  BGC B   3      25.640  11.287   4.8390  0.00  0.00     0.000 C
ATOM     33  C3  BGC B   3      25.380   9.794   4.9290  0.00  0.00     0.000 C
ATOM     34  C4  BGC B   3      24.869   9.265   3.5890  0.00  0.00     0.000 C
ATOM     35  C5  BGC B   3      25.798   9.688   2.4650  0.00  0.00     0.000 C
ATOM     36  O5  BGC B   3      25.965  11.109   2.4940  0.00  0.00     0.000 O
ATOM     37   O  BGC B   3      26.236  11.716   6.0610  0.00  0.00     0.000 O
ATOM     39  HD  BGC B   3      25.477  11.588   6.4580  0.00  0.00     0.000 HD
ATOM     39   O  BGC B   3      24.427   9.564   5.9550  0.00  0.00     0.000 O
ATOM     41  HD  BGC B   3      23.667   9.436   6.3510  0.00  0.00     0.000 HD
ATOM     41   C  BGC B   3      25.315   9.281   1.0770  0.00  0.00     0.000 C
ATOM     42   O  BGC B   3      24.039   9.820   0.8290  0.00  0.00     0.000 O
ATOM     44  HD  BGC B   3      23.279   9.692   1.2250  0.00  0.00     0.000 HD
BRANCH 31 44
ATOM     44  O4  BGC B   4      26.737  12.946   3.5660  0.00  0.00     0.000 O
BRANCH 44 48
ATOM     45  C1  BGC B   4      29.477  15.789   2.4620  0.00  0.00     0.000 C
ATOM     46  C2  BGC B   4      28.850  15.025   1.3050  0.00  0.00     0.000 C
ATOM     47  C3  BGC B   4      27.609  14.313   1.7860  0.00  0.00     0.000 C
ATOM     48  C4  BGC B   4      27.935  13.438   3.0000  0.00  0.00     0.000 C
ATOM     49  C5  BGC B   4      28.656  14.258   4.0780  0.00  0.00     0.000 C
ATOM     50  O5  BGC B   4      29.817  14.885   3.5140  0.00  0.00     0.000 O
ATOM     51   O  BGC B   4      28.489  15.936   0.2490  0.00  0.00     0.000 O
ATOM     53  HD  BGC B   4      27.705  15.809   0.5950  0.00  0.00     0.000 HD
ATOM     53   O  BGC B   4      27.104  13.494   0.7210  0.00  0.00     0.000 O
ATOM     55  HD  BGC B   4      26.320  13.367   1.0660  0.00  0.00     0.000 HD
ATOM     55   C  BGC B   4      29.124  13.449   5.2740  0.00  0.00     0.000 C
ATOM     56   O  BGC B   4      29.942  12.384   4.7860  0.00  0.00     0.000 O
ATOM     58  HD  BGC B   4      29.158  12.257   5.1320  0.00  0.00     0.000 HD
BRANCH 45 58
ATOM     58  O4  BGC B   5      30.760  16.213   2.0020  0.00  0.00     0.000 O
BRANCH 58 62
ATOM     59  C1  BGC B   5      33.176  19.569   1.7800  0.00  0.00     0.000 C
ATOM     60  C2  BGC B   5      33.135  18.885   3.1320  0.00  0.00     0.000 C
ATOM     61  C3  BGC B   5      32.582  17.478   3.0010  0.00  0.00     0.000 C
ATOM     62  C4  BGC B   5      31.227  17.527   2.3130  0.00  0.00     0.000 C
ATOM     63  C5  BGC B   5      31.320  18.301   0.9900  0.00  0.00     0.000 C
ATOM     64  O5  BGC B   5      31.846  19.598   1.2510  0.00  0.00     0.000 O
ATOM     65   O  BGC B   5      29.147  19.142   1.2510  0.00  0.00     0.000 O
ATOM     67  HD  BGC B   5      28.404  18.980   1.6660  0.00  0.00     0.000 HD
ATOM     67   O  BGC B   5      29.147  19.142   1.2510  0.00  0.00     0.000 O
ATOM     69  HD  BGC B   5      28.404  18.980   1.6660  0.00  0.00     0.000 HD
ENDBRANCH 58 62
ENDBRANCH 45 58
ENDBRANCH 44 48
ENDBRANCH 31 44
ENDBRANCH 30 34
ENDBRANCH 17 30
ENDBRANCH 16 20
ENDBRANCH 1 16
TORSDOF 8
ENDMDL
