MODEL 1
REMARK VINA RESULT:      -9.7      0.000      0.000
ROOT
ATOM      1  C1  GAD B   1      -0.540  36.381  78.2810  0.00  0.00     0.000 C
ATOM      2  C2  GAD B   1       0.568  37.204  78.9440  0.00  0.00     0.000 C
ATOM      3  C3  GAD B   1       0.812  36.705  80.3730  0.00  0.00     0.000 C
ATOM      4  C4  GAD B   1      -0.433  36.156  81.0760  0.00  0.00     0.000 C
ATOM      5  C5  GAD B   1      -1.623  35.965  80.4720  0.00  0.00     0.000 C
ATOM      6  O5  GAD B   1      -1.727  36.350  79.0880  0.00  0.00     0.000 O
ATOM      7   O  GAD B   1       1.795  37.214  78.1250  0.00  0.00     0.000 O
ATOM      9  HD  GAD B   1       1.234  36.923  77.5330  0.00  0.00     0.000 HD
ATOM      9   O  GAD B   1       1.321  37.756  81.2240  0.00  0.00     0.000 O
ATOM     11  HD  GAD B   1       0.760  37.465  80.6330  0.00  0.00     0.000 HD
ENDROOT
BRANCH 5 11
ATOM     11   C  GAD B   1      -2.802  35.337  81.1120  0.00  0.00     0.000 C
ATOM     12   O  GAD B   1      -3.636  36.116  81.6700  0.00  0.00     0.000 OA
ATOM     13   O  GAD B   1      -2.907  34.056  81.1570  0.00  0.00     0.000 OA
ENDBRANCH 5 11
BRANCH 1 14
ATOM     14  O3  ASG B   2      -1.263  36.805  77.2280  0.00  0.00     0.000 O
BRANCH 14 17
ATOM     15  C1  ASG B   2      -4.821  37.428  76.1160  0.00  0.00     0.000 C
ATOM     16  C2  ASG B   2      -3.441  36.755  76.1130  0.00  0.00     0.000 C
ATOM     17  C3  ASG B   2      -2.565  37.403  77.1890  0.00  0.00     0.000 C
ATOM     18  C4  ASG B   2      -2.434  38.891  76.9240  0.00  0.00     0.000 C
ATOM     19  C5  ASG B   2      -3.828  39.500  76.8100  0.00  0.00     0.000 C
ATOM     20  O5  ASG B   2      -4.596  38.793  75.8160  0.00  0.00     0.000 O
ATOM     21   C  ASG B   2      -3.800  40.933  76.3840  0.00  0.00     0.000 C
ATOM     22   O  ASG B   2      -5.109  41.360  76.0960  0.00  0.00     0.000 O
ATOM     24  HD  ASG B   2      -5.851  41.755  75.8890  0.00  0.00     0.000 HD
BRANCH 16 26
ATOM     24   N  ASG B   2      -3.516  35.314  76.1910  0.00  0.00     0.000 N
ATOM     26  HD  ASG B   2      -4.135  35.789  75.8150  0.00  0.00     0.000 HD
ATOM     26   C  ASG B   2      -2.608  34.482  75.6490  0.00  0.00     0.000 C
ATOM     27   C  ASG B   2      -2.655  33.067  76.1150  0.00  0.00     0.000 C
ATOM     28   O  ASG B   2      -1.792  34.869  74.8230  0.00  0.00     0.000 OA
ENDBRANCH 16 26
BRANCH 18 29
ATOM     29   O  ASG B   2      -1.650  39.027  75.6890  0.00  0.00     0.000 O
ATOM     30   O  ASG B   2      -0.674  41.197  76.3100  0.00  0.00     0.000 OA
ATOM     31   O  ASG B   2       0.690  39.190  76.3820  0.00  0.00     0.000 OA
ATOM     32   O  ASG B   2      -0.022  40.093  74.2550  0.00  0.00     0.000 OA
ATOM     33   S  ASG B   2      -0.325  39.938  75.6780  0.00  0.00     0.000 S
ENDBRANCH 18 29
BRANCH 15 34
ATOM     34  O4  ASG B   3      -5.704  36.902  75.1670  0.00  0.00     0.000 O
BRANCH 34 38
ATOM     35  C1  GCT B   3      -8.434  35.397  77.7450  0.00  0.00     0.000 C
ATOM     36  C2  GCT B   3      -8.435  34.728  76.3880  0.00  0.00     0.000 C
ATOM     37  C3  GCT B   3      -7.141  35.019  75.6400  0.00  0.00     0.000 C
ATOM     38  C4  GCT B   3      -6.993  36.534  75.4590  0.00  0.00     0.000 C
ATOM     39  C5  GCT B   3      -7.576  37.321  76.6550  0.00  0.00     0.000 C
ATOM     40  O5  GCT B   3      -7.493  36.465  77.7810  0.00  0.00     0.000 O
ATOM     41   O  GCT B   3      -8.565  33.334  76.6250  0.00  0.00     0.000 O
ATOM     43  HD  GCT B   3      -9.244  32.842  76.8420  0.00  0.00     0.000 HD
ATOM     43   O  GCT B   3      -7.165  34.304  74.3860  0.00  0.00     0.000 O
ATOM     45  HD  GCT B   3      -7.844  33.812  74.6030  0.00  0.00     0.000 HD
BRANCH 39 45
ATOM     45   C  GCT B   3      -8.984  37.864  76.5420  0.00  0.00     0.000 C
ATOM     46   O  GCT B   3      -9.640  37.687  75.4670  0.00  0.00     0.000 OA
ATOM     47   O  GCT B   3      -9.455  38.459  77.5250  0.00  0.00     0.000 OA
ENDBRANCH 39 45
BRANCH 35 48
ATOM     48  O3  ASG B   4      -9.647  35.353  78.2520  0.00  0.00     0.000 O
BRANCH 48 51
ATOM     49  C1  ASG B   4     -10.739  33.485  81.2540  0.00  0.00     0.000 C
ATOM     50  C2  ASG B   4     -10.515  33.839  79.7740  0.00  0.00     0.000 C
ATOM     51  C3  ASG B   4      -9.561  35.021  79.6270  0.00  0.00     0.000 C
ATOM     52  C4  ASG B   4      -9.982  36.182  80.5140  0.00  0.00     0.000 C
ATOM     53  C5  ASG B   4     -10.113  35.664  81.9430  0.00  0.00     0.000 C
ATOM     54  O5  ASG B   4     -11.125  34.638  81.9830  0.00  0.00     0.000 O
BRANCH 50 57
ATOM     55   N  ASG B   4     -11.268  34.042  78.5580  0.00  0.00     0.000 N
ATOM     57  HD  ASG B   4     -11.235  33.228  78.2650  0.00  0.00     0.000 HD
ATOM     57   O  ASG B   4     -12.005  31.932  78.4330  0.00  0.00     0.000 OA
ATOM     58   C  ASG B   4     -12.046  33.091  78.0330  0.00  0.00     0.000 C
ATOM     59   C  ASG B   4     -12.924  33.524  76.8990  0.00  0.00     0.000 C
ENDBRANCH 50 57
BRANCH 52 60
ATOM     60   O  ASG B   4     -11.257  36.640  79.9030  0.00  0.00     0.000 O
ATOM     61   O  ASG B   4     -10.838  39.026  80.5070  0.00  0.00     0.000 OA
ATOM     62   O  ASG B   4     -12.731  38.454  79.1810  0.00  0.00     0.000 OA
ATOM     63   O  ASG B   4     -12.609  37.671  81.4370  0.00  0.00     0.000 OA
ATOM     64   S  ASG B   4     -11.871  38.082  80.2390  0.00  0.00     0.000 S
ENDBRANCH 52 60
ATOM     65   O  ASG B   4     -10.247  36.246  84.2940  0.00  0.00     0.000 O
ATOM     67  HD  ASG B   4     -10.913  35.702  84.3940  0.00  0.00     0.000 HD
ATOM     67   O  ASG B   4     -10.247  36.246  84.2940  0.00  0.00     0.000 O
ATOM     69  HD  ASG B   4     -10.913  35.702  84.3940  0.00  0.00     0.000 HD
ENDBRANCH 48 51
ENDBRANCH 35 48
ENDBRANCH 34 38
ENDBRANCH 15 34
ENDBRANCH 14 17
ENDBRANCH 1 14
TORSDOF 12
ENDMDL
MODEL 2
REMARK VINA RESULT:      -9.7      1.613      2.458
ROOT
ATOM      1  C1  GAD B   1      -0.549  36.558  78.1750  0.00  0.00     0.000 C
ATOM      2  C2  GAD B   1       0.568  37.370  78.8380  0.00  0.00     0.000 C
ATOM      3  C3  GAD B   1       0.864  36.815  80.2370  0.00  0.00     0.000 C
ATOM      4  C4  GAD B   1      -0.351  36.220  80.9530  0.00  0.00     0.000 C
ATOM      5  C5  GAD B   1      -1.557  36.036  80.3790  0.00  0.00     0.000 C
ATOM      6  O5  GAD B   1      -1.710  36.476  79.0160  0.00  0.00     0.000 O
ATOM      7   O  GAD B   1       1.768  37.431  77.9820  0.00  0.00     0.000 O
ATOM      9  HD  GAD B   1       1.193  37.156  77.3960  0.00  0.00     0.000 HD
ATOM      9   O  GAD B   1       1.385  37.838  81.1140  0.00  0.00     0.000 O
ATOM     11  HD  GAD B   1       0.809  37.563  80.5290  0.00  0.00     0.000 HD
ENDROOT
BRANCH 5 11
ATOM     11   C  GAD B   1      -2.707  35.365  81.0280  0.00  0.00     0.000 C
ATOM     12   O  GAD B   1      -3.706  36.092  81.3220  0.00  0.00     0.000 OA
ATOM     13   O  GAD B   1      -2.635  34.120  81.3430  0.00  0.00     0.000 OA
ENDBRANCH 5 11
BRANCH 1 14
ATOM     14  O3  ASG B   2      -1.311  37.015  77.1640  0.00  0.00     0.000 O
BRANCH 14 17
ATOM     15  C1  ASG B   2      -4.909  37.788  76.3040  0.00  0.00     0.000 C
ATOM     16  C2  ASG B   2      -3.571  37.038  76.2260  0.00  0.00     0.000 C
ATOM     17  C3  ASG B   2      -2.577  37.683  77.1970  0.00  0.00     0.000 C
ATOM     18  C4  ASG B   2      -2.390  39.147  76.8490  0.00  0.00     0.000 C
ATOM     19  C5  ASG B   2      -3.754  39.830  76.8150  0.00  0.00     0.000 C
ATOM     20  O5  ASG B   2      -4.637  39.123  75.9210  0.00  0.00     0.000 O
ATOM     21   C  ASG B   2      -3.685  41.238  76.3180  0.00  0.00     0.000 C
ATOM     22   O  ASG B   2      -4.988  41.725  76.1130  0.00  0.00     0.000 O
ATOM     24  HD  ASG B   2      -5.722  42.152  75.9450  0.00  0.00     0.000 HD
BRANCH 16 26
ATOM     24   N  ASG B   2      -3.686  35.611  76.4210  0.00  0.00     0.000 N
ATOM     26  HD  ASG B   2      -4.337  36.088  76.1060  0.00  0.00     0.000 HD
ATOM     26   C  ASG B   2      -2.901  34.703  75.8120  0.00  0.00     0.000 C
ATOM     27   C  ASG B   2      -2.928  33.326  76.3820  0.00  0.00     0.000 C
ATOM     28   O  ASG B   2      -2.205  34.996  74.8480  0.00  0.00     0.000 OA
ENDBRANCH 16 26
BRANCH 18 29
ATOM     29   O  ASG B   2      -1.702  39.183  75.5520  0.00  0.00     0.000 O
ATOM     30   O  ASG B   2      -0.503  41.279  76.0170  0.00  0.00     0.000 OA
ATOM     31   O  ASG B   2       0.692  39.166  76.0480  0.00  0.00     0.000 OA
ATOM     32   O  ASG B   2      -0.117  40.068  73.9560  0.00  0.00     0.000 OA
ATOM     33   S  ASG B   2      -0.313  39.978  75.4030  0.00  0.00     0.000 S
ENDBRANCH 18 29
BRANCH 15 34
ATOM     34  O4  ASG B   3      -5.893  37.271  75.4550  0.00  0.00     0.000 O
BRANCH 34 38
ATOM     35  C1  GCT B   3      -8.160  35.803  78.4660  0.00  0.00     0.000 C
ATOM     36  C2  GCT B   3      -8.072  34.892  77.2610  0.00  0.00     0.000 C
ATOM     37  C3  GCT B   3      -6.894  35.275  76.3770  0.00  0.00     0.000 C
ATOM     38  C4  GCT B   3      -7.067  36.724  75.9060  0.00  0.00     0.000 C
ATOM     39  C5  GCT B   3      -7.756  37.603  76.9750  0.00  0.00     0.000 C
ATOM     40  O5  GCT B   3      -7.459  37.019  78.2310  0.00  0.00     0.000 O
ATOM     41   O  GCT B   3      -7.903  33.574  77.7630  0.00  0.00     0.000 O
ATOM     43  HD  GCT B   3      -8.458  33.012  78.1190  0.00  0.00     0.000 HD
ATOM     43   O  GCT B   3      -6.814  34.336  75.2840  0.00  0.00     0.000 O
ATOM     45  HD  GCT B   3      -7.369  33.774  75.6400  0.00  0.00     0.000 HD
BRANCH 39 45
ATOM     45   C  GCT B   3      -9.249  37.827  76.8680  0.00  0.00     0.000 C
ATOM     46   O  GCT B   3      -9.845  38.511  77.7580  0.00  0.00     0.000 OA
ATOM     47   O  GCT B   3      -9.839  37.337  75.8920  0.00  0.00     0.000 OA
ENDBRANCH 39 45
BRANCH 35 48
ATOM     48  O3  ASG B   4      -9.320  35.624  79.0620  0.00  0.00     0.000 O
BRANCH 48 51
ATOM     49  C1  ASG B   4      -7.698  35.088  82.3450  0.00  0.00     0.000 C
ATOM     50  C2  ASG B   4      -7.898  35.125  80.8200  0.00  0.00     0.000 C
ATOM     51  C3  ASG B   4      -9.170  35.882  80.4480  0.00  0.00     0.000 C
ATOM     52  C4  ASG B   4     -10.363  35.379  81.2450  0.00  0.00     0.000 C
ATOM     53  C5  ASG B   4     -10.009  35.454  82.7270  0.00  0.00     0.000 C
ATOM     54  O5  ASG B   4      -8.870  34.608  82.9830  0.00  0.00     0.000 O
BRANCH 50 57
ATOM     55   N  ASG B   4      -7.345  33.892  81.3320  0.00  0.00     0.000 N
ATOM     57  HD  ASG B   4      -6.972  33.620  80.5990  0.00  0.00     0.000 HD
ATOM     57   O  ASG B   4      -5.662  33.809  79.8560  0.00  0.00     0.000 OA
ATOM     58   C  ASG B   4      -6.199  33.379  80.8730  0.00  0.00     0.000 C
ATOM     59   C  ASG B   4      -5.651  32.221  81.6480  0.00  0.00     0.000 C
ENDBRANCH 50 57
BRANCH 52 60
ATOM     60   O  ASG B   4     -10.571  34.002  80.7270  0.00  0.00     0.000 O
ATOM     61   O  ASG B   4     -12.821  34.553  79.7980  0.00  0.00     0.000 OA
ATOM     62   O  ASG B   4     -11.865  32.410  79.3950  0.00  0.00     0.000 OA
ATOM     63   O  ASG B   4     -12.436  33.029  81.6330  0.00  0.00     0.000 OA
ATOM     64   S  ASG B   4     -12.026  33.483  80.3010  0.00  0.00     0.000 S
ENDBRANCH 52 60
ATOM     65   O  ASG B   4     -10.847  35.450  85.0030  0.00  0.00     0.000 O
ATOM     67  HD  ASG B   4     -10.236  34.880  85.2300  0.00  0.00     0.000 HD
ATOM     67   O  ASG B   4     -10.847  35.450  85.0030  0.00  0.00     0.000 O
ATOM     69  HD  ASG B   4     -10.236  34.880  85.2300  0.00  0.00     0.000 HD
ENDBRANCH 48 51
ENDBRANCH 35 48
ENDBRANCH 34 38
ENDBRANCH 15 34
ENDBRANCH 14 17
ENDBRANCH 1 14
TORSDOF 12
ENDMDL
MODEL 3
REMARK VINA RESULT:      -9.4      3.145      4.862
ROOT
ATOM      1  C1  GAD B   1       1.264  35.695  78.8210  0.00  0.00     0.000 C
ATOM      2  C2  GAD B   1       1.948  36.325  77.6040  0.00  0.00     0.000 C
ATOM      3  C3  GAD B   1       3.143  37.175  78.0530  0.00  0.00     0.000 C
ATOM      4  C4  GAD B   1       2.973  37.838  79.4220  0.00  0.00     0.000 C
ATOM      5  C5  GAD B   1       1.946  37.593  80.2610  0.00  0.00     0.000 C
ATOM      6  O5  GAD B   1       0.927  36.683  79.8070  0.00  0.00     0.000 O
ATOM      7   O  GAD B   1       2.315  35.304  76.6050  0.00  0.00     0.000 O
ATOM      9  HD  GAD B   1       1.766  34.838  77.0850  0.00  0.00     0.000 HD
ATOM      9   O  GAD B   1       3.413  38.246  77.1200  0.00  0.00     0.000 O
ATOM     11  HD  GAD B   1       2.864  37.780  77.6010  0.00  0.00     0.000 HD
ENDROOT
BRANCH 5 11
ATOM     11   C  GAD B   1       1.826  38.147  81.6300  0.00  0.00     0.000 C
ATOM     12   O  GAD B   1       1.165  37.462  82.4720  0.00  0.00     0.000 OA
ATOM     13   O  GAD B   1       2.309  39.308  81.9020  0.00  0.00     0.000 OA
ENDBRANCH 5 11
BRANCH 1 14
ATOM     14  O3  ASG B   2      -0.008  35.254  78.8240  0.00  0.00     0.000 O
BRANCH 14 17
ATOM     15  C1  ASG B   2      -3.391  35.969  80.3490  0.00  0.00     0.000 C
ATOM     16  C2  ASG B   2      -2.108  35.171  80.0780  0.00  0.00     0.000 C
ATOM     17  C3  ASG B   2      -1.223  35.958  79.1070  0.00  0.00     0.000 C
ATOM     18  C4  ASG B   2      -1.975  36.217  77.8150  0.00  0.00     0.000 C
ATOM     19  C5  ASG B   2      -3.300  36.900  78.1380  0.00  0.00     0.000 C
ATOM     20  O5  ASG B   2      -4.037  36.117  79.0980  0.00  0.00     0.000 O
ATOM     21   C  ASG B   2      -4.184  37.045  76.9400  0.00  0.00     0.000 C
ATOM     22   O  ASG B   2      -5.456  37.481  77.3500  0.00  0.00     0.000 O
ATOM     24  HD  ASG B   2      -6.274  37.746  77.4550  0.00  0.00     0.000 HD
BRANCH 16 26
ATOM     24   N  ASG B   2      -1.502  33.885  80.3380  0.00  0.00     0.000 N
ATOM     26  HD  ASG B   2      -1.348  34.331  79.6120  0.00  0.00     0.000 HD
ATOM     26   C  ASG B   2      -0.701  33.630  81.3890  0.00  0.00     0.000 C
ATOM     27   C  ASG B   2      -0.450  32.192  81.6880  0.00  0.00     0.000 C
ATOM     28   O  ASG B   2      -0.209  34.530  82.0580  0.00  0.00     0.000 OA
ENDBRANCH 16 26
BRANCH 18 29
ATOM     29   O  ASG B   2      -2.149  34.911  77.1650  0.00  0.00     0.000 O
ATOM     30   O  ASG B   2      -2.216  35.828  74.8850  0.00  0.00     0.000 OA
ATOM     31   O  ASG B   2      -0.245  34.639  75.6560  0.00  0.00     0.000 OA
ATOM     32   O  ASG B   2      -2.304  33.436  75.2570  0.00  0.00     0.000 OA
ATOM     33   S  ASG B   2      -1.687  34.707  75.6400  0.00  0.00     0.000 S
ENDBRANCH 18 29
BRANCH 15 34
ATOM     34  O4  ASG B   3      -4.270  35.336  81.2340  0.00  0.00     0.000 O
BRANCH 34 38
ATOM     35  C1  GCT B   3      -7.654  33.255  81.9980  0.00  0.00     0.000 C
ATOM     36  C2  GCT B   3      -6.534  32.418  81.4180  0.00  0.00     0.000 C
ATOM     37  C3  GCT B   3      -5.196  33.129  81.5630  0.00  0.00     0.000 C
ATOM     38  C4  GCT B   3      -5.258  34.474  80.8280  0.00  0.00     0.000 C
ATOM     39  C5  GCT B   3      -6.664  35.110  80.9000  0.00  0.00     0.000 C
ATOM     40  O5  GCT B   3      -7.269  34.622  82.0850  0.00  0.00     0.000 O
ATOM     41   O  GCT B   3      -6.525  31.198  82.1440  0.00  0.00     0.000 O
ATOM     43  HD  GCT B   3      -7.034  30.498  82.1110  0.00  0.00     0.000 HD
ATOM     43   O  GCT B   3      -4.158  32.262  81.0590  0.00  0.00     0.000 O
ATOM     45  HD  GCT B   3      -4.667  31.562  81.0260  0.00  0.00     0.000 HD
BRANCH 39 45
ATOM     45   C  GCT B   3      -7.608  34.903  79.7360  0.00  0.00     0.000 C
ATOM     46   O  GCT B   3      -7.226  34.223  78.7320  0.00  0.00     0.000 OA
ATOM     47   O  GCT B   3      -8.742  35.403  79.8150  0.00  0.00     0.000 OA
ENDBRANCH 39 45
BRANCH 35 48
ATOM     48  O3  ASG B   4      -8.811  32.749  81.6290  0.00  0.00     0.000 O
BRANCH 48 51
ATOM     49  C1  ASG B   4     -11.166  30.588  83.4920  0.00  0.00     0.000 C
ATOM     50  C2  ASG B   4     -10.130  31.030  82.4460  0.00  0.00     0.000 C
ATOM     51  C3  ASG B   4      -9.553  32.402  82.7850  0.00  0.00     0.000 C
ATOM     52  C4  ASG B   4     -10.656  33.408  83.0690  0.00  0.00     0.000 C
ATOM     53  C5  ASG B   4     -11.559  32.829  84.1540  0.00  0.00     0.000 C
ATOM     54  O5  ASG B   4     -12.142  31.601  83.6780  0.00  0.00     0.000 O
BRANCH 50 57
ATOM     55   N  ASG B   4      -9.374  29.813  82.6370  0.00  0.00     0.000 N
ATOM     57  HD  ASG B   4      -9.876  29.291  82.1610  0.00  0.00     0.000 HD
ATOM     57   O  ASG B   4     -10.025  28.878  80.7090  0.00  0.00     0.000 OA
ATOM     58   C  ASG B   4      -9.297  28.867  81.6970  0.00  0.00     0.000 C
ATOM     59   C  ASG B   4      -8.308  27.773  81.9580  0.00  0.00     0.000 C
ENDBRANCH 50 57
BRANCH 52 60
ATOM     60   O  ASG B   4     -11.312  33.585  81.7480  0.00  0.00     0.000 O
ATOM     61   O  ASG B   4     -11.530  36.054  82.0430  0.00  0.00     0.000 OA
ATOM     62   O  ASG B   4     -12.155  35.048  79.9780  0.00  0.00     0.000 OA
ATOM     63   O  ASG B   4     -13.393  34.519  81.9540  0.00  0.00     0.000 OA
ATOM     64   S  ASG B   4     -12.106  34.930  81.3850  0.00  0.00     0.000 S
ENDBRANCH 52 60
ATOM     65   O  ASG B   4     -13.262  33.291  85.8180  0.00  0.00     0.000 O
ATOM     67  HD  ASG B   4     -13.718  32.608  85.5450  0.00  0.00     0.000 HD
ATOM     67   O  ASG B   4     -13.262  33.291  85.8180  0.00  0.00     0.000 O
ATOM     69  HD  ASG B   4     -13.718  32.608  85.5450  0.00  0.00     0.000 HD
ENDBRANCH 48 51
ENDBRANCH 35 48
ENDBRANCH 34 38
ENDBRANCH 15 34
ENDBRANCH 14 17
ENDBRANCH 1 14
TORSDOF 12
ENDMDL
MODEL 4
REMARK VINA RESULT:      -9.4      7.448     12.659
ROOT
ATOM      1  C1  GAD B   1     -13.709  30.622  80.4890  0.00  0.00     0.000 C
ATOM      2  C2  GAD B   1     -14.615  31.774  80.9330  0.00  0.00     0.000 C
ATOM      3  C3  GAD B   1     -15.583  32.148  79.8040  0.00  0.00     0.000 C
ATOM      4  C4  GAD B   1     -15.022  31.948  78.3940  0.00  0.00     0.000 C
ATOM      5  C5  GAD B   1     -13.845  31.348  78.1240  0.00  0.00     0.000 C
ATOM      6  O5  GAD B   1     -13.053  30.916  79.2460  0.00  0.00     0.000 O
ATOM      7   O  GAD B   1     -15.306  31.458  82.1980  0.00  0.00     0.000 O
ATOM      9  HD  GAD B   1     -14.697  30.842  82.2130  0.00  0.00     0.000 HD
ATOM      9   O  GAD B   1     -15.981  33.535  79.8840  0.00  0.00     0.000 O
ATOM     11  HD  GAD B   1     -15.372  32.919  79.8990  0.00  0.00     0.000 HD
ENDROOT
BRANCH 5 11
ATOM     11   C  GAD B   1     -13.342  31.054  76.7610  0.00  0.00     0.000 C
ATOM     12   O  GAD B   1     -14.206  30.743  75.8840  0.00  0.00     0.000 OA
ATOM     13   O  GAD B   1     -12.077  31.041  76.5280  0.00  0.00     0.000 OA
ENDBRANCH 5 11
BRANCH 1 14
ATOM     14  O3  ASG B   2     -12.519  30.341  81.0530  0.00  0.00     0.000 O
BRANCH 14 17
ATOM     15  C1  ASG B   2      -9.046  29.265  80.0230  0.00  0.00     0.000 C
ATOM     16  C2  ASG B   2     -10.450  29.107  80.6240  0.00  0.00     0.000 C
ATOM     17  C3  ASG B   2     -11.198  30.438  80.5070  0.00  0.00     0.000 C
ATOM     18  C4  ASG B   2     -10.429  31.530  81.2260  0.00  0.00     0.000 C
ATOM     19  C5  ASG B   2      -9.002  31.572  80.6870  0.00  0.00     0.000 C
ATOM     20  O5  ASG B   2      -8.399  30.267  80.7870  0.00  0.00     0.000 O
ATOM     21   C  ASG B   2      -8.122  32.507  81.4520  0.00  0.00     0.000 C
ATOM     22   O  ASG B   2      -6.788  32.333  81.0400  0.00  0.00     0.000 O
ATOM     24  HD  ASG B   2      -5.936  32.335  80.8850  0.00  0.00     0.000 HD
BRANCH 16 26
ATOM     24   N  ASG B   2     -11.185  28.095  81.3480  0.00  0.00     0.000 N
ATOM     26  HD  ASG B   2     -11.243  28.937  81.5430  0.00  0.00     0.000 HD
ATOM     26   C  ASG B   2     -12.084  27.269  80.7830  0.00  0.00     0.000 C
ATOM     27   C  ASG B   2     -12.483  26.083  81.5920  0.00  0.00     0.000 C
ATOM     28   O  ASG B   2     -12.545  27.483  79.6680  0.00  0.00     0.000 OA
ENDBRANCH 16 26
BRANCH 18 29
ATOM     29   O  ASG B   2     -10.488  31.208  82.6580  0.00  0.00     0.000 O
ATOM     30   O  ASG B   2     -10.575  33.554  83.3890  0.00  0.00     0.000 OA
ATOM     31   O  ASG B   2     -12.573  32.178  83.4910  0.00  0.00     0.000 OA
ATOM     32   O  ASG B   2     -10.732  31.753  85.0000  0.00  0.00     0.000 OA
ATOM     33   S  ASG B   2     -11.144  32.253  83.6880  0.00  0.00     0.000 S
ENDBRANCH 18 29
BRANCH 15 34
ATOM     34  O4  ASG B   3      -8.278  28.097  80.0760  0.00  0.00     0.000 O
BRANCH 34 38
ATOM     35  C1  GCT B   3      -8.092  26.633  76.3100  0.00  0.00     0.000 C
ATOM     36  C2  GCT B   3      -7.347  25.801  77.3310  0.00  0.00     0.000 C
ATOM     37  C3  GCT B   3      -7.805  26.139  78.7430  0.00  0.00     0.000 C
ATOM     38  C4  GCT B   3      -7.548  27.626  79.0140  0.00  0.00     0.000 C
ATOM     39  C5  GCT B   3      -7.729  28.487  77.7430  0.00  0.00     0.000 C
ATOM     40  O5  GCT B   3      -8.646  27.796  76.9140  0.00  0.00     0.000 O
ATOM     41   O  GCT B   3      -7.634  24.443  77.0320  0.00  0.00     0.000 O
ATOM     43  HD  GCT B   3      -7.339  23.909  76.4170  0.00  0.00     0.000 HD
ATOM     43   O  GCT B   3      -7.117  25.272  79.6690  0.00  0.00     0.000 O
ATOM     45  HD  GCT B   3      -6.822  24.739  79.0540  0.00  0.00     0.000 HD
BRANCH 39 45
ATOM     45   C  GCT B   3      -6.500  28.848  76.9380  0.00  0.00     0.000 C
ATOM     46   O  GCT B   3      -6.623  29.559  75.8910  0.00  0.00     0.000 OA
ATOM     47   O  GCT B   3      -5.401  28.440  77.3460  0.00  0.00     0.000 OA
ENDBRANCH 39 45
BRANCH 35 48
ATOM     48  O3  ASG B   4      -7.501  26.517  75.1400  0.00  0.00     0.000 O
BRANCH 48 51
ATOM     49  C1  ASG B   4      -8.140  24.544  72.0750  0.00  0.00     0.000 C
ATOM     50  C2  ASG B   4      -7.382  25.180  73.2530  0.00  0.00     0.000 C
ATOM     51  C3  ASG B   4      -8.347  25.791  74.2650  0.00  0.00     0.000 C
ATOM     52  C4  ASG B   4      -9.360  26.696  73.5840  0.00  0.00     0.000 C
ATOM     53  C5  ASG B   4     -10.044  25.895  72.4790  0.00  0.00     0.000 C
ATOM     54  O5  ASG B   4      -9.055  25.474  71.5200  0.00  0.00     0.000 O
BRANCH 50 57
ATOM     55   N  ASG B   4      -6.593  24.093  73.7860  0.00  0.00     0.000 N
ATOM     57  HD  ASG B   4      -6.039  24.019  73.1250  0.00  0.00     0.000 HD
ATOM     57   O  ASG B   4      -4.732  24.640  72.6670  0.00  0.00     0.000 OA
ATOM     58   C  ASG B   4      -5.288  23.967  73.5300  0.00  0.00     0.000 C
ATOM     59   C  ASG B   4      -4.570  22.919  74.3240  0.00  0.00     0.000 C
ENDBRANCH 50 57
BRANCH 52 60
ATOM     60   O  ASG B   4      -8.538  27.836  73.1020  0.00  0.00     0.000 O
ATOM     61   O  ASG B   4     -10.174  29.531  73.9270  0.00  0.00     0.000 OA
ATOM     62   O  ASG B   4      -8.098  30.240  73.0020  0.00  0.00     0.000 OA
ATOM     63   O  ASG B   4      -9.681  29.129  71.5960  0.00  0.00     0.000 OA
ATOM     64   S  ASG B   4      -9.158  29.307  72.9540  0.00  0.00     0.000 S
ENDBRANCH 52 60
ATOM     65   O  ASG B   4     -11.940  25.751  70.9730  0.00  0.00     0.000 O
ATOM     67  HD  ASG B   4     -11.407  25.562  70.3170  0.00  0.00     0.000 HD
ATOM     67   O  ASG B   4     -11.940  25.751  70.9730  0.00  0.00     0.000 O
ATOM     69  HD  ASG B   4     -11.407  25.562  70.3170  0.00  0.00     0.000 HD
ENDBRANCH 48 51
ENDBRANCH 35 48
ENDBRANCH 34 38
ENDBRANCH 15 34
ENDBRANCH 14 17
ENDBRANCH 1 14
TORSDOF 12
ENDMDL
MODEL 5
REMARK VINA RESULT:      -9.3      3.457      4.696
ROOT
ATOM      1  C1  GAD B   1       0.523  38.199  76.7210  0.00  0.00     0.000 C
ATOM      2  C2  GAD B   1       0.390  39.458  77.5830  0.00  0.00     0.000 C
ATOM      3  C3  GAD B   1       1.758  39.853  78.1530  0.00  0.00     0.000 C
ATOM      4  C4  GAD B   1       2.692  38.673  78.4360  0.00  0.00     0.000 C
ATOM      5  C5  GAD B   1       2.434  37.399  78.0810  0.00  0.00     0.000 C
ATOM      6  O5  GAD B   1       1.173  37.137  77.4360  0.00  0.00     0.000 O
ATOM      7   O  GAD B   1      -0.256  40.555  76.8360  0.00  0.00     0.000 O
ATOM      9  HD  GAD B   1      -0.461  39.892  76.3170  0.00  0.00     0.000 HD
ATOM      9   O  GAD B   1       1.626  40.568  79.4020  0.00  0.00     0.000 O
ATOM     11  HD  GAD B   1       1.422  39.906  78.8820  0.00  0.00     0.000 HD
ENDROOT
BRANCH 5 11
ATOM     11   C  GAD B   1       3.376  36.268  78.2550  0.00  0.00     0.000 C
ATOM     12   O  GAD B   1       4.210  36.355  79.2090  0.00  0.00     0.000 OA
ATOM     13   O  GAD B   1       3.381  35.296  77.4130  0.00  0.00     0.000 OA
ENDBRANCH 5 11
BRANCH 1 14
ATOM     14  O3  ASG B   2      -0.503  37.377  76.4290  0.00  0.00     0.000 O
BRANCH 14 17
ATOM     15  C1  ASG B   2      -3.787  35.839  77.4900  0.00  0.00     0.000 C
ATOM     16  C2  ASG B   2      -2.400  35.886  76.8340  0.00  0.00     0.000 C
ATOM     17  C3  ASG B   2      -1.802  37.283  77.0230  0.00  0.00     0.000 C
ATOM     18  C4  ASG B   2      -2.719  38.325  76.4110  0.00  0.00     0.000 C
ATOM     19  C5  ASG B   2      -4.118  38.165  76.9970  0.00  0.00     0.000 C
ATOM     20  O5  ASG B   2      -4.573  36.809  76.8230  0.00  0.00     0.000 O
ATOM     21   C  ASG B   2      -5.129  39.042  76.3310  0.00  0.00     0.000 C
ATOM     22   O  ASG B   2      -6.416  38.688  76.7730  0.00  0.00     0.000 O
ATOM     24  HD  ASG B   2      -7.256  38.581  76.9550  0.00  0.00     0.000 HD
BRANCH 16 26
ATOM     24   N  ASG B   2      -1.494  34.852  77.2790  0.00  0.00     0.000 N
ATOM     26  HD  ASG B   2      -2.354  34.755  77.3050  0.00  0.00     0.000 HD
ATOM     26   C  ASG B   2      -0.576  34.264  76.4890  0.00  0.00     0.000 C
ATOM     27   C  ASG B   2       0.484  33.482  77.1870  0.00  0.00     0.000 C
ATOM     28   O  ASG B   2      -0.614  34.369  75.2700  0.00  0.00     0.000 OA
ENDBRANCH 16 26
BRANCH 18 29
ATOM     29   O  ASG B   2      -2.682  38.111  74.9580  0.00  0.00     0.000 O
ATOM     30   O  ASG B   2      -2.943  40.490  74.3970  0.00  0.00     0.000 OA
ATOM     31   O  ASG B   2      -0.786  39.410  74.1230  0.00  0.00     0.000 OA
ATOM     32   O  ASG B   2      -2.619  38.839  72.6550  0.00  0.00     0.000 OA
ATOM     33   S  ASG B   2      -2.219  39.302  73.9840  0.00  0.00     0.000 S
ENDBRANCH 18 29
BRANCH 15 34
ATOM     34  O4  ASG B   3      -4.420  34.597  77.3780  0.00  0.00     0.000 O
BRANCH 34 38
ATOM     35  C1  GCT B   3      -7.608  32.510  76.0180  0.00  0.00     0.000 C
ATOM     36  C2  GCT B   3      -6.392  32.432  75.1200  0.00  0.00     0.000 C
ATOM     37  C3  GCT B   3      -5.136  32.849  75.8720  0.00  0.00     0.000 C
ATOM     38  C4  GCT B   3      -5.304  34.288  76.3750  0.00  0.00     0.000 C
ATOM     39  C5  GCT B   3      -6.768  34.601  76.7600  0.00  0.00     0.000 C
ATOM     40  O5  GCT B   3      -7.362  33.368  77.1270  0.00  0.00     0.000 O
ATOM     41   O  GCT B   3      -6.288  31.080  74.6990  0.00  0.00     0.000 O
ATOM     43  HD  GCT B   3      -6.724  30.620  74.1090  0.00  0.00     0.000 HD
ATOM     43   O  GCT B   3      -4.001  32.690  74.9940  0.00  0.00     0.000 O
ATOM     45  HD  GCT B   3      -4.438  32.231  74.4040  0.00  0.00     0.000 HD
BRANCH 39 45
ATOM     45   C  GCT B   3      -7.646  35.295  75.7420  0.00  0.00     0.000 C
ATOM     46   O  GCT B   3      -7.191  35.532  74.5780  0.00  0.00     0.000 OA
ATOM     47   O  GCT B   3      -8.800  35.600  76.0860  0.00  0.00     0.000 OA
ENDBRANCH 39 45
BRANCH 35 48
ATOM     48  O3  ASG B   4      -8.696  32.404  75.2870  0.00  0.00     0.000 O
BRANCH 48 51
ATOM     49  C1  ASG B   4     -11.341  29.830  75.5550  0.00  0.00     0.000 C
ATOM     50  C2  ASG B   4     -10.109  30.588  75.0310  0.00  0.00     0.000 C
ATOM     51  C3  ASG B   4      -9.669  31.671  76.0110  0.00  0.00     0.000 C
ATOM     52  C4  ASG B   4     -10.840  32.548  76.4240  0.00  0.00     0.000 C
ATOM     53  C5  ASG B   4     -11.947  31.642  76.9570  0.00  0.00     0.000 C
ATOM     54  O5  ASG B   4     -12.366  30.744  75.9110  0.00  0.00     0.000 O
BRANCH 50 57
ATOM     55   N  ASG B   4      -9.221  29.461  74.8570  0.00  0.00     0.000 N
ATOM     57  HD  ASG B   4      -9.598  29.126  74.1520  0.00  0.00     0.000 HD
ATOM     57   O  ASG B   4      -9.542  29.304  72.6460  0.00  0.00     0.000 OA
ATOM     58   C  ASG B   4      -8.923  28.967  73.6510  0.00  0.00     0.000 C
ATOM     59   C  ASG B   4      -7.829  27.946  73.6210  0.00  0.00     0.000 C
ENDBRANCH 50 57
BRANCH 52 60
ATOM     60   O  ASG B   4     -11.185  33.277  75.1760  0.00  0.00     0.000 O
ATOM     61   O  ASG B   4     -12.057  35.257  76.4220  0.00  0.00     0.000 OA
ATOM     62   O  ASG B   4     -11.909  35.322  74.0460  0.00  0.00     0.000 OA
ATOM     63   O  ASG B   4     -13.418  33.780  75.0780  0.00  0.00     0.000 OA
ATOM     64   S  ASG B   4     -12.170  34.542  75.1950  0.00  0.00     0.000 S
ENDBRANCH 52 60
ATOM     65   O  ASG B   4     -13.997  31.508  78.2450  0.00  0.00     0.000 O
ATOM     67  HD  ASG B   4     -14.357  31.020  77.6270  0.00  0.00     0.000 HD
ATOM     67   O  ASG B   4     -13.997  31.508  78.2450  0.00  0.00     0.000 O
ATOM     69  HD  ASG B   4     -14.357  31.020  77.6270  0.00  0.00     0.000 HD
ENDBRANCH 48 51
ENDBRANCH 35 48
ENDBRANCH 34 38
ENDBRANCH 15 34
ENDBRANCH 14 17
ENDBRANCH 1 14
TORSDOF 12
ENDMDL
MODEL 6
REMARK VINA RESULT:      -9.3      2.277      3.496
ROOT
ATOM      1  C1  GAD B   1      -0.626  36.538  78.1430  0.00  0.00     0.000 C
ATOM      2  C2  GAD B   1       0.469  37.314  78.8820  0.00  0.00     0.000 C
ATOM      3  C3  GAD B   1       0.688  36.715  80.2770  0.00  0.00     0.000 C
ATOM      4  C4  GAD B   1      -0.569  36.117  80.9160  0.00  0.00     0.000 C
ATOM      5  C5  GAD B   1      -1.747  35.968  80.2780  0.00  0.00     0.000 C
ATOM      6  O5  GAD B   1      -1.827  36.448  78.9230  0.00  0.00     0.000 O
ATOM      7   O  GAD B   1       1.710  37.382  78.0870  0.00  0.00     0.000 O
ATOM      9  HD  GAD B   1       1.160  37.132  77.4670  0.00  0.00     0.000 HD
ATOM      9   O  GAD B   1       1.179  37.705  81.2080  0.00  0.00     0.000 O
ATOM     11  HD  GAD B   1       0.629  37.455  80.5880  0.00  0.00     0.000 HD
ENDROOT
BRANCH 5 11
ATOM     11   C  GAD B   1      -2.936  35.295  80.8510  0.00  0.00     0.000 C
ATOM     12   O  GAD B   1      -2.848  34.897  82.0540  0.00  0.00     0.000 OA
ATOM     13   O  GAD B   1      -3.965  35.065  80.1150  0.00  0.00     0.000 OA
ENDBRANCH 5 11
BRANCH 1 14
ATOM     14  O3  ASG B   2      -1.331  37.034  77.1090  0.00  0.00     0.000 O
BRANCH 14 17
ATOM     15  C1  ASG B   2      -4.876  37.923  76.1480  0.00  0.00     0.000 C
ATOM     16  C2  ASG B   2      -3.564  37.126  76.1120  0.00  0.00     0.000 C
ATOM     17  C3  ASG B   2      -2.574  37.746  77.1030  0.00  0.00     0.000 C
ATOM     18  C4  ASG B   2      -2.326  39.200  76.7470  0.00  0.00     0.000 C
ATOM     19  C5  ASG B   2      -3.664  39.929  76.6700  0.00  0.00     0.000 C
ATOM     20  O5  ASG B   2      -4.547  39.244  75.7600  0.00  0.00     0.000 O
ATOM     21   C  ASG B   2      -3.532  41.329  76.1630  0.00  0.00     0.000 C
ATOM     22   O  ASG B   2      -4.812  41.858  75.9190  0.00  0.00     0.000 O
ATOM     24  HD  ASG B   2      -5.527  42.310  75.7280  0.00  0.00     0.000 HD
BRANCH 16 26
ATOM     24   N  ASG B   2      -3.772  35.705  76.2630  0.00  0.00     0.000 N
ATOM     26  HD  ASG B   2      -4.355  36.220  75.8810  0.00  0.00     0.000 HD
ATOM     26   C  ASG B   2      -2.965  34.765  75.7370  0.00  0.00     0.000 C
ATOM     27   C  ASG B   2      -3.131  33.384  76.2720  0.00  0.00     0.000 C
ATOM     28   O  ASG B   2      -2.142  35.035  74.8700  0.00  0.00     0.000 OA
ENDBRANCH 16 26
BRANCH 18 29
ATOM     29   O  ASG B   2      -1.604  39.199  75.4680  0.00  0.00     0.000 O
ATOM     30   O  ASG B   2      -0.321  41.237  75.9600  0.00  0.00     0.000 OA
ATOM     31   O  ASG B   2       0.774  39.071  76.0260  0.00  0.00     0.000 OA
ATOM     32   O  ASG B   2       0.062  40.002  73.9120  0.00  0.00     0.000 OA
ATOM     33   S  ASG B   2      -0.175  39.927  75.3540  0.00  0.00     0.000 S
ENDBRANCH 18 29
BRANCH 15 34
ATOM     34  O4  ASG B   3      -5.855  37.432  75.2780  0.00  0.00     0.000 O
BRANCH 34 38
ATOM     35  C1  GCT B   3      -8.829  34.875  76.2660  0.00  0.00     0.000 C
ATOM     36  C2  GCT B   3      -9.205  35.869  75.1890  0.00  0.00     0.000 C
ATOM     37  C3  GCT B   3      -7.961  36.488  74.5660  0.00  0.00     0.000 C
ATOM     38  C4  GCT B   3      -7.153  37.202  75.6560  0.00  0.00     0.000 C
ATOM     39  C5  GCT B   3      -7.253  36.480  77.0190  0.00  0.00     0.000 C
ATOM     40  O5  GCT B   3      -7.507  35.115  76.7350  0.00  0.00     0.000 O
ATOM     41   O  GCT B   3      -9.938  35.146  74.2110  0.00  0.00     0.000 O
ATOM     43  HD  GCT B   3     -10.754  34.855  74.1940  0.00  0.00     0.000 HD
ATOM     43   O  GCT B   3      -8.372  37.372  73.5020  0.00  0.00     0.000 O
ATOM     45  HD  GCT B   3      -9.187  37.081  73.4850  0.00  0.00     0.000 HD
BRANCH 39 45
ATOM     45   C  GCT B   3      -8.267  36.979  78.0250  0.00  0.00     0.000 C
ATOM     46   O  GCT B   3      -8.293  36.475  79.1920  0.00  0.00     0.000 OA
ATOM     47   O  GCT B   3      -9.037  37.886  77.6690  0.00  0.00     0.000 OA
ENDBRANCH 39 45
BRANCH 35 48
ATOM     48  O3  ASG B   4      -9.902  34.558  76.9590  0.00  0.00     0.000 O
BRANCH 48 51
ATOM     49  C1  ASG B   4      -9.320  30.956  76.3470  0.00  0.00     0.000 C
ATOM     50  C2  ASG B   4      -9.277  32.481  76.1510  0.00  0.00     0.000 C
ATOM     51  C3  ASG B   4      -9.795  33.212  77.3860  0.00  0.00     0.000 C
ATOM     52  C4  ASG B   4     -11.136  32.655  77.8330  0.00  0.00     0.000 C
ATOM     53  C5  ASG B   4     -10.986  31.148  78.0220  0.00  0.00     0.000 C
ATOM     54  O5  ASG B   4     -10.613  30.550  76.7640  0.00  0.00     0.000 O
BRANCH 50 57
ATOM     55   N  ASG B   4      -9.459  31.587  75.0300  0.00  0.00     0.000 N
ATOM     57  HD  ASG B   4      -9.330  32.166  74.3990  0.00  0.00     0.000 HD
ATOM     57   O  ASG B   4      -8.166  32.765  73.6320  0.00  0.00     0.000 OA
ATOM     58   C  ASG B   4      -8.800  31.743  73.8780  0.00  0.00     0.000 C
ATOM     59   C  ASG B   4      -8.933  30.619  72.8980  0.00  0.00     0.000 C
ENDBRANCH 50 57
BRANCH 52 60
ATOM     60   O  ASG B   4     -12.059  33.052  76.7390  0.00  0.00     0.000 O
ATOM     61   O  ASG B   4     -13.942  33.500  78.3150  0.00  0.00     0.000 OA
ATOM     62   O  ASG B   4     -14.189  34.001  76.0000  0.00  0.00     0.000 OA
ATOM     63   O  ASG B   4     -13.924  31.723  76.6780  0.00  0.00     0.000 OA
ATOM     64   S  ASG B   4     -13.643  33.132  76.9720  0.00  0.00     0.000 S
ENDBRANCH 52 60
ATOM     65   O  ASG B   4     -11.924  29.134  78.9940  0.00  0.00     0.000 O
ATOM     67  HD  ASG B   4     -11.803  28.713  78.2470  0.00  0.00     0.000 HD
ATOM     67   O  ASG B   4     -11.924  29.134  78.9940  0.00  0.00     0.000 O
ATOM     69  HD  ASG B   4     -11.803  28.713  78.2470  0.00  0.00     0.000 HD
ENDBRANCH 48 51
ENDBRANCH 35 48
ENDBRANCH 34 38
ENDBRANCH 15 34
ENDBRANCH 14 17
ENDBRANCH 1 14
TORSDOF 12
ENDMDL
MODEL 7
REMARK VINA RESULT:      -9.2      3.399      9.332
ROOT
ATOM      1  C1  GAD B   1      -3.332  37.139  74.2490  0.00  0.00     0.000 C
ATOM      2  C2  GAD B   1      -3.665  38.149  73.1460  0.00  0.00     0.000 C
ATOM      3  C3  GAD B   1      -2.573  39.222  73.0670  0.00  0.00     0.000 C
ATOM      4  C4  GAD B   1      -1.909  39.551  74.4070  0.00  0.00     0.000 C
ATOM      5  C5  GAD B   1      -2.124  38.869  75.5490  0.00  0.00     0.000 C
ATOM      6  O5  GAD B   1      -3.079  37.791  75.5020  0.00  0.00     0.000 O
ATOM      7   O  GAD B   1      -3.901  37.476  71.8540  0.00  0.00     0.000 O
ATOM      9  HD  GAD B   1      -3.955  36.790  72.3810  0.00  0.00     0.000 HD
ATOM      9   O  GAD B   1      -3.092  40.472  72.5600  0.00  0.00     0.000 O
ATOM     11  HD  GAD B   1      -3.147  39.786  73.0860  0.00  0.00     0.000 HD
ENDROOT
BRANCH 5 11
ATOM     11   C  GAD B   1      -1.408  39.110  76.8240  0.00  0.00     0.000 C
ATOM     12   O  GAD B   1      -1.547  38.237  77.7360  0.00  0.00     0.000 OA
ATOM     13   O  GAD B   1      -0.751  40.202  76.9990  0.00  0.00     0.000 OA
ENDBRANCH 5 11
BRANCH 1 14
ATOM     14  O3  ASG B   2      -4.244  36.346  74.8430  0.00  0.00     0.000 O
BRANCH 14 17
ATOM     15  C1  ASG B   2      -5.177  35.081  78.2790  0.00  0.00     0.000 C
ATOM     16  C2  ASG B   2      -4.627  34.997  76.8480  0.00  0.00     0.000 C
ATOM     17  C3  ASG B   2      -4.749  36.372  76.1830  0.00  0.00     0.000 C
ATOM     18  C4  ASG B   2      -6.199  36.816  76.1730  0.00  0.00     0.000 C
ATOM     19  C5  ASG B   2      -6.745  36.766  77.5970  0.00  0.00     0.000 C
ATOM     20  O5  ASG B   2      -6.537  35.456  78.1590  0.00  0.00     0.000 O
ATOM     21   C  ASG B   2      -8.215  37.029  77.6630  0.00  0.00     0.000 C
ATOM     22   O  ASG B   2      -8.679  36.758  78.9620  0.00  0.00     0.000 O
ATOM     24  HD  ASG B   2      -9.099  36.634  79.7090  0.00  0.00     0.000 HD
BRANCH 16 26
ATOM     24   N  ASG B   2      -3.244  34.650  76.6150  0.00  0.00     0.000 N
ATOM     26  HD  ASG B   2      -3.618  34.565  77.3910  0.00  0.00     0.000 HD
ATOM     26   C  ASG B   2      -2.841  33.714  75.7360  0.00  0.00     0.000 C
ATOM     27   C  ASG B   2      -1.394  33.729  75.3800  0.00  0.00     0.000 C
ATOM     28   O  ASG B   2      -3.622  32.899  75.2590  0.00  0.00     0.000 OA
ENDBRANCH 16 26
BRANCH 18 29
ATOM     29   O  ASG B   2      -6.907  35.910  75.2590  0.00  0.00     0.000 O
ATOM     30   O  ASG B   2      -8.509  37.609  74.4910  0.00  0.00     0.000 OA
ATOM     31   O  ASG B   2      -6.707  36.895  73.0300  0.00  0.00     0.000 OA
ATOM     32   O  ASG B   2      -8.522  35.382  73.5410  0.00  0.00     0.000 OA
ATOM     33   S  ASG B   2      -7.705  36.507  73.9980  0.00  0.00     0.000 S
ENDBRANCH 18 29
BRANCH 15 34
ATOM     34  O4  ASG B   3      -5.107  33.872  78.9790  0.00  0.00     0.000 O
BRANCH 34 38
ATOM     35  C1  GCT B   3      -1.265  33.363  80.1390  0.00  0.00     0.000 C
ATOM     36  C2  GCT B   3      -2.194  32.252  80.5800  0.00  0.00     0.000 C
ATOM     37  C3  GCT B   3      -3.482  32.269  79.7690  0.00  0.00     0.000 C
ATOM     38  C4  GCT B   3      -4.181  33.620  79.9590  0.00  0.00     0.000 C
ATOM     39  C5  GCT B   3      -3.169  34.777  80.1280  0.00  0.00     0.000 C
ATOM     40  O5  GCT B   3      -1.987  34.382  79.4560  0.00  0.00     0.000 O
ATOM     41   O  GCT B   3      -1.495  31.034  80.3700  0.00  0.00     0.000 O
ATOM     43  HD  GCT B   3      -0.859  30.646  80.8120  0.00  0.00     0.000 HD
ATOM     43   O  GCT B   3      -4.298  31.152  80.1800  0.00  0.00     0.000 O
ATOM     45  HD  GCT B   3      -3.663  30.764  80.6210  0.00  0.00     0.000 HD
BRANCH 39 45
ATOM     45   C  GCT B   3      -2.821  35.230  81.5290  0.00  0.00     0.000 C
ATOM     46   O  GCT B   3      -1.986  36.174  81.6940  0.00  0.00     0.000 OA
ATOM     47   O  GCT B   3      -3.385  34.660  82.4770  0.00  0.00     0.000 OA
ENDBRANCH 39 45
BRANCH 35 48
ATOM     48  O3  ASG B   4      -0.294  33.491  81.0170  0.00  0.00     0.000 O
BRANCH 48 51
ATOM     49  C1  ASG B   4       3.307  32.663  80.8230  0.00  0.00     0.000 C
ATOM     50  C2  ASG B   4       1.838  32.627  81.2780  0.00  0.00     0.000 C
ATOM     51  C3  ASG B   4       0.950  33.439  80.3400  0.00  0.00     0.000 C
ATOM     52  C4  ASG B   4       1.521  34.828  80.1060  0.00  0.00     0.000 C
ATOM     53  C5  ASG B   4       2.959  34.674  79.6190  0.00  0.00     0.000 C
ATOM     54  O5  ASG B   4       3.731  34.003  80.6340  0.00  0.00     0.000 O
BRANCH 50 57
ATOM     55   N  ASG B   4       1.578  31.206  81.2950  0.00  0.00     0.000 N
ATOM     57  HD  ASG B   4       2.056  31.010  81.9900  0.00  0.00     0.000 HD
ATOM     57   O  ASG B   4       1.902  30.978  83.4990  0.00  0.00     0.000 OA
ATOM     58   C  ASG B   4       1.527  30.504  82.4310  0.00  0.00     0.000 C
ATOM     59   C  ASG B   4       1.037  29.095  82.3010  0.00  0.00     0.000 C
ENDBRANCH 50 57
BRANCH 52 60
ATOM     60   O  ASG B   4       1.384  35.488  81.4300  0.00  0.00     0.000 O
ATOM     61   O  ASG B   4       0.821  37.698  80.4150  0.00  0.00     0.000 OA
ATOM     62   O  ASG B   4       0.735  37.423  82.7780  0.00  0.00     0.000 OA
ATOM     63   O  ASG B   4       2.840  37.241  81.6590  0.00  0.00     0.000 OA
ATOM     64   S  ASG B   4       1.385  37.085  81.5700  0.00  0.00     0.000 S
ENDBRANCH 52 60
ATOM     65   O  ASG B   4       4.844  35.742  78.5290  0.00  0.00     0.000 O
ATOM     67  HD  ASG B   4       5.375  35.439  79.1420  0.00  0.00     0.000 HD
ATOM     67   O  ASG B   4       4.844  35.742  78.5290  0.00  0.00     0.000 O
ATOM     69  HD  ASG B   4       5.375  35.439  79.1420  0.00  0.00     0.000 HD
ENDBRANCH 48 51
ENDBRANCH 35 48
ENDBRANCH 34 38
ENDBRANCH 15 34
ENDBRANCH 14 17
ENDBRANCH 1 14
TORSDOF 12
ENDMDL
MODEL 8
REMARK VINA RESULT:      -9.2      8.996     14.270
ROOT
ATOM      1  C1  GAD B   1     -13.410  30.936  80.1750  0.00  0.00     0.000 C
ATOM      2  C2  GAD B   1     -14.654  30.926  81.0690  0.00  0.00     0.000 C
ATOM      3  C3  GAD B   1     -14.577  32.066  82.0920  0.00  0.00     0.000 C
ATOM      4  C4  GAD B   1     -13.157  32.419  82.5430  0.00  0.00     0.000 C
ATOM      5  C5  GAD B   1     -12.037  31.906  81.9960  0.00  0.00     0.000 C
ATOM      6  O5  GAD B   1     -12.202  30.929  80.9520  0.00  0.00     0.000 O
ATOM      7   O  GAD B   1     -15.892  30.959  80.2670  0.00  0.00     0.000 O
ATOM      9  HD  GAD B   1     -15.329  30.745  79.6450  0.00  0.00     0.000 HD
ATOM      9   O  GAD B   1     -15.313  31.750  83.2950  0.00  0.00     0.000 O
ATOM     11  HD  GAD B   1     -14.749  31.536  82.6730  0.00  0.00     0.000 HD
ENDROOT
BRANCH 5 11
ATOM     11   C  GAD B   1     -10.659  32.319  82.3520  0.00  0.00     0.000 C
ATOM     12   O  GAD B   1      -9.839  32.472  81.3950  0.00  0.00     0.000 OA
ATOM     13   O  GAD B   1     -10.317  32.430  83.5870  0.00  0.00     0.000 OA
ENDBRANCH 5 11
BRANCH 1 14
ATOM     14  O3  ASG B   2     -12.974  29.868  79.4810  0.00  0.00     0.000 O
BRANCH 14 17
ATOM     15  C1  ASG B   2      -9.943  28.776  77.5060  0.00  0.00     0.000 C
ATOM     16  C2  ASG B   2     -11.387  29.249  77.7240  0.00  0.00     0.000 C
ATOM     17  C3  ASG B   2     -11.637  29.423  79.2250  0.00  0.00     0.000 C
ATOM     18  C4  ASG B   2     -11.388  28.113  79.9470  0.00  0.00     0.000 C
ATOM     19  C5  ASG B   2      -9.988  27.613  79.6050  0.00  0.00     0.000 C
ATOM     20  O5  ASG B   2      -9.828  27.534  78.1750  0.00  0.00     0.000 O
ATOM     21   C  ASG B   2      -9.716  26.243  80.1390  0.00  0.00     0.000 C
ATOM     22   O  ASG B   2      -8.502  25.769  79.6090  0.00  0.00     0.000 O
ATOM     24  HD  ASG B   2      -7.782  25.354  79.3660  0.00  0.00     0.000 HD
BRANCH 16 26
ATOM     24   N  ASG B   2     -11.892  30.523  77.2640  0.00  0.00     0.000 N
ATOM     26  HD  ASG B   2     -11.092  30.248  77.0780  0.00  0.00     0.000 HD
ATOM     26   C  ASG B   2     -12.970  30.663  76.4700  0.00  0.00     0.000 C
ATOM     27   C  ASG B   2     -13.543  32.036  76.3800  0.00  0.00     0.000 C
ATOM     28   O  ASG B   2     -13.449  29.715  75.8610  0.00  0.00     0.000 OA
ENDBRANCH 16 26
BRANCH 18 29
ATOM     29   O  ASG B   2     -12.445  27.190  79.5110  0.00  0.00     0.000 O
ATOM     30   O  ASG B   2     -12.516  25.948  81.6310  0.00  0.00     0.000 OA
ATOM     31   O  ASG B   2     -14.303  27.493  81.0710  0.00  0.00     0.000 OA
ATOM     32   O  ASG B   2     -14.062  25.425  79.8420  0.00  0.00     0.000 OA
ATOM     33   S  ASG B   2     -13.389  26.479  80.6000  0.00  0.00     0.000 S
ENDBRANCH 18 29
BRANCH 15 34
ATOM     34  O4  ASG B   3      -9.610  28.591  76.1600  0.00  0.00     0.000 O
BRANCH 34 38
ATOM     35  C1  GCT B   3      -8.632  26.232  73.0230  0.00  0.00     0.000 C
ATOM     36  C2  GCT B   3     -10.089  26.150  73.4240  0.00  0.00     0.000 C
ATOM     37  C3  GCT B   3     -10.481  27.343  74.2840  0.00  0.00     0.000 C
ATOM     38  C4  GCT B   3      -9.608  27.365  75.5450  0.00  0.00     0.000 C
ATOM     39  C5  GCT B   3      -8.180  26.843  75.2700  0.00  0.00     0.000 C
ATOM     40  O5  GCT B   3      -7.915  27.093  73.9000  0.00  0.00     0.000 O
ATOM     41   O  GCT B   3     -10.840  26.144  72.2180  0.00  0.00     0.000 O
ATOM     43  HD  GCT B   3     -10.991  25.525  71.6320  0.00  0.00     0.000 HD
ATOM     43   O  GCT B   3     -11.891  27.253  74.5800  0.00  0.00     0.000 O
ATOM     45  HD  GCT B   3     -12.042  26.634  73.9930  0.00  0.00     0.000 HD
BRANCH 39 45
ATOM     45   C  GCT B   3      -7.870  25.396  75.5840  0.00  0.00     0.000 C
ATOM     46   O  GCT B   3      -8.775  24.654  76.0800  0.00  0.00     0.000 OA
ATOM     47   O  GCT B   3      -6.728  24.981  75.3260  0.00  0.00     0.000 OA
ENDBRANCH 39 45
BRANCH 35 48
ATOM     48  O3  ASG B   4      -8.256  25.078  72.5140  0.00  0.00     0.000 O
BRANCH 48 51
ATOM     49  C1  ASG B   4      -6.557  24.625  69.2590  0.00  0.00     0.000 C
ATOM     50  C2  ASG B   4      -7.682  24.694  70.3040  0.00  0.00     0.000 C
ATOM     51  C3  ASG B   4      -7.184  25.299  71.6140  0.00  0.00     0.000 C
ATOM     52  C4  ASG B   4      -5.907  24.620  72.0830  0.00  0.00     0.000 C
ATOM     53  C5  ASG B   4      -4.892  24.681  70.9450  0.00  0.00     0.000 C
ATOM     54  O5  ASG B   4      -5.419  23.976  69.8040  0.00  0.00     0.000 O
BRANCH 50 57
ATOM     55   N  ASG B   4      -8.657  25.474  69.5770  0.00  0.00     0.000 N
ATOM     57  HD  ASG B   4      -8.895  24.862  69.0110  0.00  0.00     0.000 HD
ATOM     57   O  ASG B   4      -9.878  23.708  68.9380  0.00  0.00     0.000 OA
ATOM     58   C  ASG B   4      -9.747  24.925  69.0320  0.00  0.00     0.000 C
ATOM     59   C  ASG B   4     -10.763  25.889  68.5020  0.00  0.00     0.000 C
ENDBRANCH 50 57
BRANCH 52 60
ATOM     60   O  ASG B   4      -6.354  23.248  72.4390  0.00  0.00     0.000 O
ATOM     61   O  ASG B   4      -4.515  22.943  74.0990  0.00  0.00     0.000 OA
ATOM     62   O  ASG B   4      -6.197  21.273  73.8730  0.00  0.00     0.000 OA
ATOM     63   O  ASG B   4      -4.719  21.694  72.0410  0.00  0.00     0.000 OA
ATOM     64   S  ASG B   4      -5.391  22.237  73.2260  0.00  0.00     0.000 S
ENDBRANCH 52 60
ATOM     65   O  ASG B   4      -2.559  24.485  70.3130  0.00  0.00     0.000 O
ATOM     67  HD  ASG B   4      -2.780  23.989  69.6380  0.00  0.00     0.000 HD
ATOM     67   O  ASG B   4      -2.559  24.485  70.3130  0.00  0.00     0.000 O
ATOM     69  HD  ASG B   4      -2.780  23.989  69.6380  0.00  0.00     0.000 HD
ENDBRANCH 48 51
ENDBRANCH 35 48
ENDBRANCH 34 38
ENDBRANCH 15 34
ENDBRANCH 14 17
ENDBRANCH 1 14
TORSDOF 12
ENDMDL
MODEL 9
REMARK VINA RESULT:      -9.1      8.654     10.726
ROOT
ATOM      1  C1  GAD B   1      -6.416  24.644  73.2040  0.00  0.00     0.000 C
ATOM      2  C2  GAD B   1      -5.728  25.050  71.8970  0.00  0.00     0.000 C
ATOM      3  C3  GAD B   1      -4.399  24.300  71.7480  0.00  0.00     0.000 C
ATOM      4  C4  GAD B   1      -3.691  23.993  73.0700  0.00  0.00     0.000 C
ATOM      5  C5  GAD B   1      -4.231  24.203  74.2870  0.00  0.00     0.000 C
ATOM      6  O5  GAD B   1      -5.541  24.800  74.3320  0.00  0.00     0.000 O
ATOM      7   O  GAD B   1      -6.623  24.865  70.7390  0.00  0.00     0.000 O
ATOM      9  HD  GAD B   1      -7.207  24.817  71.3760  0.00  0.00     0.000 HD
ATOM      9   O  GAD B   1      -3.453  25.050  70.9530  0.00  0.00     0.000 O
ATOM     11  HD  GAD B   1      -4.038  25.002  71.5900  0.00  0.00     0.000 HD
ENDROOT
BRANCH 5 11
ATOM     11   C  GAD B   1      -3.600  23.811  75.5690  0.00  0.00     0.000 C
ATOM     12   O  GAD B   1      -3.242  22.598  75.6870  0.00  0.00     0.000 OA
ATOM     13   O  GAD B   1      -3.507  24.662  76.5300  0.00  0.00     0.000 OA
ENDBRANCH 5 11
BRANCH 1 14
ATOM     14  O3  ASG B   2      -7.351  25.389  73.8240  0.00  0.00     0.000 O
BRANCH 14 17
ATOM     15  C1  ASG B   2      -8.028  28.634  75.6370  0.00  0.00     0.000 C
ATOM     16  C2  ASG B   2      -8.016  27.114  75.4280  0.00  0.00     0.000 C
ATOM     17  C3  ASG B   2      -7.389  26.800  74.0660  0.00  0.00     0.000 C
ATOM     18  C4  ASG B   2      -8.175  27.485  72.9640  0.00  0.00     0.000 C
ATOM     19  C5  ASG B   2      -8.271  28.976  73.2740  0.00  0.00     0.000 C
ATOM     20  O5  ASG B   2      -8.818  29.172  74.5930  0.00  0.00     0.000 O
ATOM     21   C  ASG B   2      -9.169  29.707  72.3280  0.00  0.00     0.000 C
ATOM     22   O  ASG B   2      -9.375  31.016  72.7990  0.00  0.00     0.000 O
ATOM     24  HD  ASG B   2      -9.586  31.839  72.9650  0.00  0.00     0.000 HD
BRANCH 16 26
ATOM     24   N  ASG B   2      -7.364  26.357  76.4720  0.00  0.00     0.000 N
ATOM     26  HD  ASG B   2      -7.696  27.145  76.6100  0.00  0.00     0.000 HD
ATOM     26   C  ASG B   2      -7.781  25.150  76.8990  0.00  0.00     0.000 C
ATOM     27   C  ASG B   2      -6.811  24.375  77.7230  0.00  0.00     0.000 C
ATOM     28   O  ASG B   2      -8.894  24.719  76.6240  0.00  0.00     0.000 OA
ENDBRANCH 16 26
BRANCH 18 29
ATOM     29   O  ASG B   2      -9.487  26.827  72.9170  0.00  0.00     0.000 O
ATOM     30   O  ASG B   2      -9.858  27.289  70.5310  0.00  0.00     0.000 OA
ATOM     31   O  ASG B   2      -9.297  25.041  71.2570  0.00  0.00     0.000 OA
ATOM     32   O  ASG B   2     -11.456  25.983  71.7990  0.00  0.00     0.000 OA
ATOM     33   S  ASG B   2     -10.044  26.248  71.5250  0.00  0.00     0.000 S
ENDBRANCH 18 29
BRANCH 15 34
ATOM     34  O4  ASG B   3      -8.579  29.028  76.8610  0.00  0.00     0.000 O
BRANCH 34 38
ATOM     35  C1  GCT B   3     -11.659  30.267  79.1720  0.00  0.00     0.000 C
ATOM     36  C2  GCT B   3     -11.805  28.851  78.6590  0.00  0.00     0.000 C
ATOM     37  C3  GCT B   3     -10.465  28.305  78.1860  0.00  0.00     0.000 C
ATOM     38  C4  GCT B   3      -9.925  29.199  77.0630  0.00  0.00     0.000 C
ATOM     39  C5  GCT B   3     -10.309  30.682  77.2670  0.00  0.00     0.000 C
ATOM     40  O5  GCT B   3     -10.475  30.869  78.6620  0.00  0.00     0.000 O
ATOM     41   O  GCT B   3     -12.296  28.077  79.7440  0.00  0.00     0.000 O
ATOM     43  HD  GCT B   3     -13.084  28.006  80.0970  0.00  0.00     0.000 HD
ATOM     43   O  GCT B   3     -10.646  26.934  77.7740  0.00  0.00     0.000 O
ATOM     45  HD  GCT B   3     -11.434  26.863  78.1260  0.00  0.00     0.000 HD
BRANCH 39 45
ATOM     45   C  GCT B   3     -11.525  31.217  76.5430  0.00  0.00     0.000 C
ATOM     46   O  GCT B   3     -12.207  30.439  75.8040  0.00  0.00     0.000 OA
ATOM     47   O  GCT B   3     -11.820  32.411  76.7120  0.00  0.00     0.000 OA
ENDBRANCH 39 45
BRANCH 35 48
ATOM     48  O3  ASG B   4     -12.852  30.800  79.3230  0.00  0.00     0.000 O
BRANCH 48 51
ATOM     49  C1  ASG B   4     -13.670  31.692  82.8200  0.00  0.00     0.000 C
ATOM     50  C2  ASG B   4     -13.395  30.833  81.5740  0.00  0.00     0.000 C
ATOM     51  C3  ASG B   4     -12.828  31.678  80.4360  0.00  0.00     0.000 C
ATOM     52  C4  ASG B   4     -13.676  32.915  80.1940  0.00  0.00     0.000 C
ATOM     53  C5  ASG B   4     -13.809  33.666  81.5160  0.00  0.00     0.000 C
ATOM     54  O5  ASG B   4     -14.465  32.816  82.4770  0.00  0.00     0.000 O
BRANCH 50 57
ATOM     55   N  ASG B   4     -14.584  30.105  81.1960  0.00  0.00     0.000 N
ATOM     57  HD  ASG B   4     -14.264  29.305  81.2910  0.00  0.00     0.000 HD
ATOM     57   O  ASG B   4     -14.083  28.282  82.3970  0.00  0.00     0.000 OA
ATOM     58   C  ASG B   4     -14.890  28.915  81.7240  0.00  0.00     0.000 C
ATOM     59   C  ASG B   4     -16.254  28.392  81.3950  0.00  0.00     0.000 C
ENDBRANCH 50 57
BRANCH 52 60
ATOM     60   O  ASG B   4     -14.951  32.365  79.6650  0.00  0.00     0.000 O
ATOM     61   O  ASG B   4     -14.599  33.373  77.4080  0.00  0.00     0.000 OA
ATOM     62   O  ASG B   4     -16.455  31.930  77.7860  0.00  0.00     0.000 OA
ATOM     63   O  ASG B   4     -16.353  34.023  78.9370  0.00  0.00     0.000 OA
ATOM     64   S  ASG B   4     -15.605  32.928  78.3140  0.00  0.00     0.000 S
ENDBRANCH 52 60
ATOM     65   O  ASG B   4     -14.379  35.761  82.5970  0.00  0.00     0.000 O
ATOM     67  HD  ASG B   4     -14.859  35.334  83.1780  0.00  0.00     0.000 HD
ATOM     67   O  ASG B   4     -14.379  35.761  82.5970  0.00  0.00     0.000 O
ATOM     69  HD  ASG B   4     -14.859  35.334  83.1780  0.00  0.00     0.000 HD
ENDBRANCH 48 51
ENDBRANCH 35 48
ENDBRANCH 34 38
ENDBRANCH 15 34
ENDBRANCH 14 17
ENDBRANCH 1 14
TORSDOF 12
ENDMDL
MODEL 10
REMARK VINA RESULT:      -9.1      2.667     10.445
ROOT
ATOM      1  C1  GAD B   1     -10.866  32.108  76.3120  0.00  0.00     0.000 C
ATOM      2  C2  GAD B   1     -10.536  30.625  76.5100  0.00  0.00     0.000 C
ATOM      3  C3  GAD B   1     -11.759  29.764  76.1740  0.00  0.00     0.000 C
ATOM      4  C4  GAD B   1     -13.105  30.426  76.4790  0.00  0.00     0.000 C
ATOM      5  C5  GAD B   1     -13.250  31.711  76.8610  0.00  0.00     0.000 C
ATOM      6  O5  GAD B   1     -12.048  32.486  77.0330  0.00  0.00     0.000 O
ATOM      7   O  GAD B   1      -9.335  30.235  75.7470  0.00  0.00     0.000 O
ATOM      9  HD  GAD B   1      -9.248  31.096  75.7130  0.00  0.00     0.000 HD
ATOM      9   O  GAD B   1     -11.750  28.519  76.9080  0.00  0.00     0.000 O
ATOM     11  HD  GAD B   1     -11.663  29.380  76.8750  0.00  0.00     0.000 HD
ENDROOT
BRANCH 5 11
ATOM     11   C  GAD B   1     -14.552  32.391  77.0560  0.00  0.00     0.000 C
ATOM     12   O  GAD B   1     -14.597  33.633  76.7920  0.00  0.00     0.000 OA
ATOM     13   O  GAD B   1     -15.550  31.747  77.5490  0.00  0.00     0.000 OA
ENDBRANCH 5 11
BRANCH 1 14
ATOM     14  O3  ASG B   2     -10.186  33.114  76.8940  0.00  0.00     0.000 O
BRANCH 14 17
ATOM     15  C1  ASG B   2      -9.222  36.666  76.0400  0.00  0.00     0.000 C
ATOM     16  C2  ASG B   2      -9.023  35.153  76.2030  0.00  0.00     0.000 C
ATOM     17  C3  ASG B   2     -10.320  34.530  76.7270  0.00  0.00     0.000 C
ATOM     18  C4  ASG B   2     -10.702  35.165  78.0510  0.00  0.00     0.000 C
ATOM     19  C5  ASG B   2     -10.768  36.679  77.8760  0.00  0.00     0.000 C
ATOM     20  O5  ASG B   2      -9.527  37.167  77.3280  0.00  0.00     0.000 O
ATOM     21   C  ASG B   2     -10.975  37.402  79.1680  0.00  0.00     0.000 C
ATOM     22   O  ASG B   2     -10.812  38.783  78.9610  0.00  0.00     0.000 O
ATOM     24  HD  ASG B   2     -10.743  39.647  78.9790  0.00  0.00     0.000 HD
BRANCH 16 26
ATOM     24   N  ASG B   2      -8.637  34.405  75.0290  0.00  0.00     0.000 N
ATOM     26  HD  ASG B   2      -8.544  35.264  75.0810  0.00  0.00     0.000 HD
ATOM     26   C  ASG B   2      -7.712  33.427  75.0290  0.00  0.00     0.000 C
ATOM     27   C  ASG B   2      -7.690  32.545  73.8280  0.00  0.00     0.000 C
ATOM     28   O  ASG B   2      -6.936  33.275  75.9640  0.00  0.00     0.000 OA
ENDBRANCH 16 26
BRANCH 18 29
ATOM     29   O  ASG B   2      -9.683  34.747  79.0230  0.00  0.00     0.000 O
ATOM     30   O  ASG B   2     -11.243  34.654  80.9210  0.00  0.00     0.000 OA
ATOM     31   O  ASG B   2     -10.433  32.598  79.9170  0.00  0.00     0.000 OA
ATOM     32   O  ASG B   2      -8.928  33.995  81.1920  0.00  0.00     0.000 OA
ATOM     33   S  ASG B   2     -10.119  33.941  80.3430  0.00  0.00     0.000 S
ENDBRANCH 18 29
BRANCH 15 34
ATOM     34  O4  ASG B   3      -8.090  37.333  75.5580  0.00  0.00     0.000 O
BRANCH 34 38
ATOM     35  C1  GCT B   3      -4.120  38.051  75.8480  0.00  0.00     0.000 C
ATOM     36  C2  GCT B   3      -4.475  36.936  74.8890  0.00  0.00     0.000 C
ATOM     37  C3  GCT B   3      -5.945  37.006  74.4970  0.00  0.00     0.000 C
ATOM     38  C4  GCT B   3      -6.809  36.886  75.7580  0.00  0.00     0.000 C
ATOM     39  C5  GCT B   3      -6.138  37.543  76.9860  0.00  0.00     0.000 C
ATOM     40  O5  GCT B   3      -5.287  38.559  76.4860  0.00  0.00     0.000 O
ATOM     41   O  GCT B   3      -3.652  37.110  73.7450  0.00  0.00     0.000 O
ATOM     43  HD  GCT B   3      -2.816  36.937  73.5990  0.00  0.00     0.000 HD
ATOM     43   O  GCT B   3      -6.213  35.968  73.5320  0.00  0.00     0.000 O
ATOM     45  HD  GCT B   3      -5.377  35.795  73.3860  0.00  0.00     0.000 HD
BRANCH 39 45
ATOM     45   C  GCT B   3      -5.360  36.662  77.9380  0.00  0.00     0.000 C
ATOM     46   O  GCT B   3      -4.814  37.176  78.9650  0.00  0.00     0.000 OA
ATOM     47   O  GCT B   3      -5.296  35.448  77.6810  0.00  0.00     0.000 OA
ENDBRANCH 39 45
BRANCH 35 48
ATOM     48  O3  ASG B   4      -2.935  37.815  76.3690  0.00  0.00     0.000 O
BRANCH 48 51
ATOM     49  C1  ASG B   4      -1.400  41.094  75.6070  0.00  0.00     0.000 C
ATOM     50  C2  ASG B   4      -2.238  39.816  75.4360  0.00  0.00     0.000 C
ATOM     51  C3  ASG B   4      -2.345  39.046  76.7500  0.00  0.00     0.000 C
ATOM     52  C4  ASG B   4      -0.977  38.842  77.3810  0.00  0.00     0.000 C
ATOM     53  C5  ASG B   4      -0.308  40.208  77.5150  0.00  0.00     0.000 C
ATOM     54  O5  ASG B   4      -0.151  40.787  76.2050  0.00  0.00     0.000 O
BRANCH 50 57
ATOM     55   N  ASG B   4      -1.396  39.592  74.2840  0.00  0.00     0.000 N
ATOM     57  HD  ASG B   4      -2.014  39.321  73.7410  0.00  0.00     0.000 HD
ATOM     57   O  ASG B   4      -3.027  39.925  72.7860  0.00  0.00     0.000 OA
ATOM     58   C  ASG B   4      -1.836  39.768  73.0340  0.00  0.00     0.000 C
ATOM     59   C  ASG B   4      -0.789  39.707  71.9640  0.00  0.00     0.000 C
ENDBRANCH 50 57
BRANCH 52 60
ATOM     60   O  ASG B   4      -0.298  37.911  76.4440  0.00  0.00     0.000 O
ATOM     61   O  ASG B   4       0.960  36.778  78.2790  0.00  0.00     0.000 OA
ATOM     62   O  ASG B   4       1.107  35.947  76.0530  0.00  0.00     0.000 OA
ATOM     63   O  ASG B   4       1.981  38.117  76.5470  0.00  0.00     0.000 OA
ATOM     64   S  ASG B   4       1.001  37.082  76.8880  0.00  0.00     0.000 S
ENDBRANCH 52 60
ATOM     65   O  ASG B   4       1.451  41.494  78.5770  0.00  0.00     0.000 O
ATOM     67  HD  ASG B   4       1.664  41.840  77.8120  0.00  0.00     0.000 HD
ATOM     67   O  ASG B   4       1.451  41.494  78.5770  0.00  0.00     0.000 O
ATOM     69  HD  ASG B   4       1.664  41.840  77.8120  0.00  0.00     0.000 HD
ENDBRANCH 48 51
ENDBRANCH 35 48
ENDBRANCH 34 38
ENDBRANCH 15 34
ENDBRANCH 14 17
ENDBRANCH 1 14
TORSDOF 12
ENDMDL
MODEL 11
REMARK VINA RESULT:      -9.1      2.379     10.448
ROOT
ATOM      1  C1  GAD B   1     -10.630  34.849  78.7940  0.00  0.00     0.000 C
ATOM      2  C2  GAD B   1     -10.863  33.475  79.4300  0.00  0.00     0.000 C
ATOM      3  C3  GAD B   1     -12.206  33.458  80.1690  0.00  0.00     0.000 C
ATOM      4  C4  GAD B   1     -12.613  34.803  80.7770  0.00  0.00     0.000 C
ATOM      5  C5  GAD B   1     -11.955  35.961  80.5680  0.00  0.00     0.000 C
ATOM      6  O5  GAD B   1     -10.767  35.906  79.7560  0.00  0.00     0.000 O
ATOM      7   O  GAD B   1     -10.745  32.394  78.4330  0.00  0.00     0.000 O
ATOM      9  HD  GAD B   1     -10.376  33.037  77.9850  0.00  0.00     0.000 HD
ATOM      9   O  GAD B   1     -12.200  32.511  81.2600  0.00  0.00     0.000 O
ATOM     11  HD  GAD B   1     -11.831  33.154  80.8130  0.00  0.00     0.000 HD
ENDROOT
BRANCH 5 11
ATOM     11   C  GAD B   1     -12.400  37.285  81.0630  0.00  0.00     0.000 C
ATOM     12   O  GAD B   1     -13.572  37.354  81.5480  0.00  0.00     0.000 OA
ATOM     13   O  GAD B   1     -11.643  38.315  80.9210  0.00  0.00     0.000 OA
ENDBRANCH 5 11
BRANCH 1 14
ATOM     14  O3  ASG B   2      -9.417  35.320  78.4460  0.00  0.00     0.000 O
BRANCH 14 17
ATOM     15  C1  ASG B   2      -6.019  34.052  77.3870  0.00  0.00     0.000 C
ATOM     16  C2  ASG B   2      -7.057  34.687  78.3240  0.00  0.00     0.000 C
ATOM     17  C3  ASG B   2      -8.411  34.737  77.6100  0.00  0.00     0.000 C
ATOM     18  C4  ASG B   2      -8.290  35.535  76.3250  0.00  0.00     0.000 C
ATOM     19  C5  ASG B   2      -7.165  34.949  75.4780  0.00  0.00     0.000 C
ATOM     20  O5  ASG B   2      -5.948  34.889  76.2480  0.00  0.00     0.000 O
ATOM     21   C  ASG B   2      -6.862  35.772  74.2680  0.00  0.00     0.000 C
ATOM     22   O  ASG B   2      -5.688  35.293  73.6600  0.00  0.00     0.000 O
ATOM     24  HD  ASG B   2      -4.989  35.107  73.1840  0.00  0.00     0.000 HD
BRANCH 16 26
ATOM     24   N  ASG B   2      -7.206  34.050  79.6120  0.00  0.00     0.000 N
ATOM     26  HD  ASG B   2      -6.486  33.971  79.1380  0.00  0.00     0.000 HD
ATOM     26   C  ASG B   2      -7.423  34.717  80.7600  0.00  0.00     0.000 C
ATOM     27   C  ASG B   2      -7.889  33.898  81.9150  0.00  0.00     0.000 C
ATOM     28   O  ASG B   2      -7.247  35.926  80.8470  0.00  0.00     0.000 OA
ENDBRANCH 16 26
BRANCH 18 29
ATOM     29   O  ASG B   2      -8.040  36.927  76.7210  0.00  0.00     0.000 O
ATOM     30   O  ASG B   2      -9.321  37.899  74.8620  0.00  0.00     0.000 OA
ATOM     31   O  ASG B   2     -10.235  37.932  77.1100  0.00  0.00     0.000 OA
ATOM     32   O  ASG B   2      -8.334  39.320  76.5570  0.00  0.00     0.000 OA
ATOM     33   S  ASG B   2      -9.065  38.083  76.2780  0.00  0.00     0.000 S
ENDBRANCH 18 29
BRANCH 15 34
ATOM     34  O4  ASG B   3      -4.741  33.954  77.9490  0.00  0.00     0.000 O
BRANCH 34 38
ATOM     35  C1  GCT B   3      -1.122  35.504  78.8760  0.00  0.00     0.000 C
ATOM     36  C2  GCT B   3      -2.257  36.046  79.7170  0.00  0.00     0.000 C
ATOM     37  C3  GCT B   3      -3.475  35.137  79.6320  0.00  0.00     0.000 C
ATOM     38  C4  GCT B   3      -3.929  35.037  78.1710  0.00  0.00     0.000 C
ATOM     39  C5  GCT B   3      -2.737  35.093  77.1880  0.00  0.00     0.000 C
ATOM     40  O5  GCT B   3      -1.610  34.599  77.8910  0.00  0.00     0.000 O
ATOM     41   O  GCT B   3      -1.778  36.105  81.0520  0.00  0.00     0.000 O
ATOM     43  HD  GCT B   3      -1.247  36.657  81.4550  0.00  0.00     0.000 HD
ATOM     43   O  GCT B   3      -4.500  35.660  80.5030  0.00  0.00     0.000 O
ATOM     45  HD  GCT B   3      -3.969  36.213  80.9060  0.00  0.00     0.000 HD
BRANCH 39 45
ATOM     45   C  GCT B   3      -2.389  36.422  76.5550  0.00  0.00     0.000 C
ATOM     46   O  GCT B   3      -3.037  37.464  76.8870  0.00  0.00     0.000 OA
ATOM     47   O  GCT B   3      -1.459  36.444  75.7320  0.00  0.00     0.000 OA
ENDBRANCH 39 45
BRANCH 35 48
ATOM     48  O3  ASG B   4      -0.191  36.427  78.7550  0.00  0.00     0.000 O
BRANCH 48 51
ATOM     49  C1  ASG B   4       2.896  35.196  80.3810  0.00  0.00     0.000 C
ATOM     50  C2  ASG B   4       1.436  35.646  80.2050  0.00  0.00     0.000 C
ATOM     51  C3  ASG B   4       1.079  35.800  78.7290  0.00  0.00     0.000 C
ATOM     52  C4  ASG B   4       2.109  36.647  78.0000  0.00  0.00     0.000 C
ATOM     53  C5  ASG B   4       3.486  36.035  78.2450  0.00  0.00     0.000 C
ATOM     54  O5  ASG B   4       3.765  36.053  79.6590  0.00  0.00     0.000 O
BRANCH 50 57
ATOM     55   N  ASG B   4       1.424  36.810  81.0610  0.00  0.00     0.000 N
ATOM     57  HD  ASG B   4       0.751  36.582  81.5560  0.00  0.00     0.000 HD
ATOM     57   O  ASG B   4       0.489  35.758  82.8030  0.00  0.00     0.000 OA
ATOM     58   C  ASG B   4       1.044  36.750  82.3410  0.00  0.00     0.000 C
ATOM     59   C  ASG B   4       1.292  37.987  83.1480  0.00  0.00     0.000 C
ENDBRANCH 50 57
BRANCH 52 60
ATOM     60   O  ASG B   4       1.922  38.000  78.5830  0.00  0.00     0.000 O
ATOM     61   O  ASG B   4       0.759  38.857  76.5470  0.00  0.00     0.000 OA
ATOM     62   O  ASG B   4       0.931  40.235  78.4810  0.00  0.00     0.000 OA
ATOM     63   O  ASG B   4       2.922  39.619  77.3080  0.00  0.00     0.000 OA
ATOM     64   S  ASG B   4       1.546  39.259  77.6640  0.00  0.00     0.000 S
ENDBRANCH 52 60
ATOM     65   O  ASG B   4       5.800  35.928  77.5290  0.00  0.00     0.000 O
ATOM     67  HD  ASG B   4       6.062  36.009  78.3510  0.00  0.00     0.000 HD
ATOM     67   O  ASG B   4       5.800  35.928  77.5290  0.00  0.00     0.000 O
ATOM     69  HD  ASG B   4       6.062  36.009  78.3510  0.00  0.00     0.000 HD
ENDBRANCH 48 51
ENDBRANCH 35 48
ENDBRANCH 34 38
ENDBRANCH 15 34
ENDBRANCH 14 17
ENDBRANCH 1 14
TORSDOF 12
ENDMDL
MODEL 12
REMARK VINA RESULT:      -9.1      3.344     10.809
ROOT
ATOM      1  C1  GAD B   1     -12.748  30.369  78.5820  0.00  0.00     0.000 C
ATOM      2  C2  GAD B   1     -13.699  31.534  78.2950  0.00  0.00     0.000 C
ATOM      3  C3  GAD B   1     -14.224  31.443  76.8570  0.00  0.00     0.000 C
ATOM      4  C4  GAD B   1     -13.239  30.829  75.8590  0.00  0.00     0.000 C
ATOM      5  C5  GAD B   1     -12.066  30.261  76.2020  0.00  0.00     0.000 C
ATOM      6  O5  GAD B   1     -11.707  30.282  77.5970  0.00  0.00     0.000 O
ATOM      7   O  GAD B   1     -14.781  31.604  79.2960  0.00  0.00     0.000 O
ATOM      9  HD  GAD B   1     -14.239  31.074  79.7130  0.00  0.00     0.000 HD
ATOM      9   O  GAD B   1     -14.566  32.745  76.3330  0.00  0.00     0.000 O
ATOM     11  HD  GAD B   1     -14.024  32.215  76.7500  0.00  0.00     0.000 HD
ENDROOT
BRANCH 5 11
ATOM     11   C  GAD B   1     -11.155  29.571  75.2590  0.00  0.00     0.000 C
ATOM     12   O  GAD B   1     -10.907  28.347  75.4910  0.00  0.00     0.000 OA
ATOM     13   O  GAD B   1     -10.592  30.227  74.3070  0.00  0.00     0.000 OA
ENDBRANCH 5 11
BRANCH 1 14
ATOM     14  O3  ASG B   2     -11.823  30.377  79.5610  0.00  0.00     0.000 O
BRANCH 14 17
ATOM     15  C1  ASG B   2     -10.017  32.473  82.1340  0.00  0.00     0.000 C
ATOM     16  C2  ASG B   2     -10.156  31.478  80.9740  0.00  0.00     0.000 C
ATOM     17  C3  ASG B   2     -11.641  31.297  80.6440  0.00  0.00     0.000 C
ATOM     18  C4  ASG B   2     -12.387  30.799  81.8670  0.00  0.00     0.000 C
ATOM     19  C5  ASG B   2     -12.123  31.748  83.0320  0.00  0.00     0.000 C
ATOM     20  O5  ASG B   2     -10.703  31.900  83.2320  0.00  0.00     0.000 O
ATOM     21   C  ASG B   2     -12.683  31.248  84.3250  0.00  0.00     0.000 C
ATOM     22   O  ASG B   2     -12.221  32.058  85.3770  0.00  0.00     0.000 O
ATOM     24  HD  ASG B   2     -12.019  32.467  86.1140  0.00  0.00     0.000 HD
BRANCH 16 26
ATOM     24   N  ASG B   2      -9.322  30.594  80.1930  0.00  0.00     0.000 N
ATOM     26  HD  ASG B   2     -10.132  30.386  80.4190  0.00  0.00     0.000 HD
ATOM     26   C  ASG B   2      -8.809  30.911  78.9900  0.00  0.00     0.000 C
ATOM     27   C  ASG B   2      -7.712  30.033  78.4930  0.00  0.00     0.000 C
ATOM     28   O  ASG B   2      -9.223  31.866  78.3440  0.00  0.00     0.000 OA
ENDBRANCH 16 26
BRANCH 18 29
ATOM     29   O  ASG B   2     -11.906  29.435  82.1220  0.00  0.00     0.000 O
ATOM     30   O  ASG B   2     -14.087  28.590  82.8780  0.00  0.00     0.000 OA
ATOM     31   O  ASG B   2     -13.235  27.963  80.6930  0.00  0.00     0.000 OA
ATOM     32   O  ASG B   2     -12.184  27.104  82.6930  0.00  0.00     0.000 OA
ATOM     33   S  ASG B   2     -12.936  28.202  82.0850  0.00  0.00     0.000 S
ENDBRANCH 18 29
BRANCH 15 34
ATOM     34  O4  ASG B   3      -8.692  32.714  82.5130  0.00  0.00     0.000 O
BRANCH 34 38
ATOM     35  C1  GCT B   3      -7.493  34.886  79.3170  0.00  0.00     0.000 C
ATOM     36  C2  GCT B   3      -6.356  34.297  80.1230  0.00  0.00     0.000 C
ATOM     37  C3  GCT B   3      -6.852  33.167  81.0140  0.00  0.00     0.000 C
ATOM     38  C4  GCT B   3      -7.922  33.711  81.9690  0.00  0.00     0.000 C
ATOM     39  C5  GCT B   3      -8.771  34.824  81.3150  0.00  0.00     0.000 C
ATOM     40  O5  GCT B   3      -8.747  34.584  79.9190  0.00  0.00     0.000 O
ATOM     41   O  GCT B   3      -5.410  33.805  79.1850  0.00  0.00     0.000 O
ATOM     43  HD  GCT B   3      -4.822  34.204  78.6900  0.00  0.00     0.000 HD
ATOM     43   O  GCT B   3      -5.721  32.596  81.7050  0.00  0.00     0.000 O
ATOM     45  HD  GCT B   3      -5.133  32.995  81.2100  0.00  0.00     0.000 HD
BRANCH 39 45
ATOM     45   C  GCT B   3      -8.395  36.266  81.5810  0.00  0.00     0.000 C
ATOM     46   O  GCT B   3      -7.408  36.527  82.3380  0.00  0.00     0.000 OA
ATOM     47   O  GCT B   3      -9.068  37.150  81.0270  0.00  0.00     0.000 OA
ENDBRANCH 39 45
BRANCH 35 48
ATOM     48  O3  ASG B   4      -7.097  36.013  78.7660  0.00  0.00     0.000 O
BRANCH 48 51
ATOM     49  C1  ASG B   4      -6.477  37.167  75.3050  0.00  0.00     0.000 C
ATOM     50  C2  ASG B   4      -6.275  36.949  76.8140  0.00  0.00     0.000 C
ATOM     51  C3  ASG B   4      -7.263  35.922  77.3610  0.00  0.00     0.000 C
ATOM     52  C4  ASG B   4      -8.686  36.250  76.9410  0.00  0.00     0.000 C
ATOM     53  C5  ASG B   4      -8.712  36.387  75.4210  0.00  0.00     0.000 C
ATOM     54  O5  ASG B   4      -7.837  37.463  75.0290  0.00  0.00     0.000 O
BRANCH 50 57
ATOM     55   N  ASG B   4      -4.950  36.516  77.1970  0.00  0.00     0.000 N
ATOM     57  HD  ASG B   4      -4.516  37.207  76.9100  0.00  0.00     0.000 HD
ATOM     57   O  ASG B   4      -4.124  38.586  77.4080  0.00  0.00     0.000 OA
ATOM     58   C  ASG B   4      -3.998  37.376  77.5690  0.00  0.00     0.000 C
ATOM     59   C  ASG B   4      -2.757  36.762  78.1400  0.00  0.00     0.000 C
ENDBRANCH 50 57
BRANCH 52 60
ATOM     60   O  ASG B   4      -8.987  37.503  77.6800  0.00  0.00     0.000 O
ATOM     61   O  ASG B   4     -11.446  37.076  77.6620  0.00  0.00     0.000 OA
ATOM     62   O  ASG B   4     -10.576  38.939  78.8620  0.00  0.00     0.000 OA
ATOM     63   O  ASG B   4     -10.365  38.885  76.4810  0.00  0.00     0.000 OA
ATOM     64   S  ASG B   4     -10.470  38.111  77.7210  0.00  0.00     0.000 S
ENDBRANCH 52 60
ATOM     65   O  ASG B   4     -10.089  36.438  73.4250  0.00  0.00     0.000 O
ATOM     67  HD  ASG B   4      -9.661  37.136  73.1440  0.00  0.00     0.000 HD
ATOM     67   O  ASG B   4     -10.089  36.438  73.4250  0.00  0.00     0.000 O
ATOM     69  HD  ASG B   4      -9.661  37.136  73.1440  0.00  0.00     0.000 HD
ENDBRANCH 48 51
ENDBRANCH 35 48
ENDBRANCH 34 38
ENDBRANCH 15 34
ENDBRANCH 14 17
ENDBRANCH 1 14
TORSDOF 12
ENDMDL
MODEL 13
REMARK VINA RESULT:      -9.0      2.743     10.194
ROOT
ATOM      1  C1  GAD B   1     -10.769  37.515  77.3920  0.00  0.00     0.000 C
ATOM      2  C2  GAD B   1     -10.946  39.005  77.7010  0.00  0.00     0.000 C
ATOM      3  C3  GAD B   1     -10.712  39.837  76.4350  0.00  0.00     0.000 C
ATOM      4  C4  GAD B   1      -9.687  39.243  75.4650  0.00  0.00     0.000 C
ATOM      5  C5  GAD B   1      -9.135  38.021  75.5990  0.00  0.00     0.000 C
ATOM      6  O5  GAD B   1      -9.507  37.254  76.7590  0.00  0.00     0.000 O
ATOM      7   O  GAD B   1     -12.254  39.272  78.3280  0.00  0.00     0.000 O
ATOM      9  HD  GAD B   1     -12.224  38.413  78.4290  0.00  0.00     0.000 HD
ATOM      9   O  GAD B   1     -10.241  41.166  76.7520  0.00  0.00     0.000 O
ATOM     11  HD  GAD B   1     -10.210  40.306  76.8530  0.00  0.00     0.000 HD
ENDROOT
BRANCH 5 11
ATOM     11   C  GAD B   1      -8.224  37.395  74.6120  0.00  0.00     0.000 C
ATOM     12   O  GAD B   1      -8.667  37.253  73.4300  0.00  0.00     0.000 OA
ATOM     13   O  GAD B   1      -7.076  36.950  74.9830  0.00  0.00     0.000 OA
ENDBRANCH 5 11
BRANCH 1 14
ATOM     14  O3  ASG B   2     -10.499  36.581  78.3230  0.00  0.00     0.000 O
BRANCH 14 17
ATOM     15  C1  ASG B   2      -7.739  35.066  80.4120  0.00  0.00     0.000 C
ATOM     16  C2  ASG B   2      -8.886  35.083  79.3920  0.00  0.00     0.000 C
ATOM     17  C3  ASG B   2      -9.425  36.511  79.2690  0.00  0.00     0.000 C
ATOM     18  C4  ASG B   2      -9.905  37.002  80.6210  0.00  0.00     0.000 C
ATOM     19  C5  ASG B   2      -8.776  36.852  81.6350  0.00  0.00     0.000 C
ATOM     20  O5  ASG B   2      -8.296  35.493  81.6410  0.00  0.00     0.000 O
ATOM     21   C  ASG B   2      -9.209  37.156  83.0340  0.00  0.00     0.000 C
ATOM     22   O  ASG B   2      -8.186  36.792  83.9280  0.00  0.00     0.000 O
ATOM     24  HD  ASG B   2      -7.649  36.620  84.5850  0.00  0.00     0.000 HD
BRANCH 16 26
ATOM     24   N  ASG B   2      -9.706  34.206  78.5890  0.00  0.00     0.000 N
ATOM     26  HD  ASG B   2     -10.000  34.959  78.8980  0.00  0.00     0.000 HD
ATOM     26   C  ASG B   2      -9.407  33.839  77.3290  0.00  0.00     0.000 C
ATOM     27   C  ASG B   2     -10.168  32.679  76.7860  0.00  0.00     0.000 C
ATOM     28   O  ASG B   2      -8.558  34.428  76.6710  0.00  0.00     0.000 OA
ENDBRANCH 16 26
BRANCH 18 29
ATOM     29   O  ASG B   2     -11.087  36.198  80.9610  0.00  0.00     0.000 O
ATOM     30   O  ASG B   2     -12.110  37.930  82.3740  0.00  0.00     0.000 OA
ATOM     31   O  ASG B   2     -13.025  37.466  80.1740  0.00  0.00     0.000 OA
ATOM     32   O  ASG B   2     -13.263  35.843  81.9510  0.00  0.00     0.000 OA
ATOM     33   S  ASG B   2     -12.456  36.925  81.3860  0.00  0.00     0.000 S
ENDBRANCH 18 29
BRANCH 15 34
ATOM     34  O4  ASG B   3      -7.169  33.801  80.5950  0.00  0.00     0.000 O
BRANCH 34 38
ATOM     35  C1  GCT B   3      -3.423  34.954  79.5930  0.00  0.00     0.000 C
ATOM     36  C2  GCT B   3      -4.054  33.989  78.6130  0.00  0.00     0.000 C
ATOM     37  C3  GCT B   3      -5.564  33.940  78.7950  0.00  0.00     0.000 C
ATOM     38  C4  GCT B   3      -5.885  33.491  80.2260  0.00  0.00     0.000 C
ATOM     39  C5  GCT B   3      -4.838  34.002  81.2420  0.00  0.00     0.000 C
ATOM     40  O5  GCT B   3      -4.291  35.190  80.6970  0.00  0.00     0.000 O
ATOM     41   O  GCT B   3      -3.729  34.464  77.3140  0.00  0.00     0.000 O
ATOM     43  HD  GCT B   3      -3.001  34.427  76.8470  0.00  0.00     0.000 HD
ATOM     43   O  GCT B   3      -6.120  33.062  77.7940  0.00  0.00     0.000 O
ATOM     45  HD  GCT B   3      -5.392  33.025  77.3270  0.00  0.00     0.000 HD
BRANCH 39 45
ATOM     45   C  GCT B   3      -3.714  33.073  81.6460  0.00  0.00     0.000 C
ATOM     46   O  GCT B   3      -2.855  33.461  82.4990  0.00  0.00     0.000 OA
ATOM     47   O  GCT B   3      -3.684  31.944  81.1300  0.00  0.00     0.000 OA
ENDBRANCH 39 45
BRANCH 35 48
ATOM     48  O3  ASG B   4      -2.119  34.781  79.5960  0.00  0.00     0.000 O
BRANCH 48 51
ATOM     49  C1  ASG B   4       0.055  37.729  79.0660  0.00  0.00     0.000 C
ATOM     50  C2  ASG B   4      -0.873  36.543  78.7540  0.00  0.00     0.000 C
ATOM     51  C3  ASG B   4      -1.496  35.979  80.0280  0.00  0.00     0.000 C
ATOM     52  C4  ASG B   4      -0.438  35.711  81.0870  0.00  0.00     0.000 C
ATOM     53  C5  ASG B   4       0.354  36.998  81.3010  0.00  0.00     0.000 C
ATOM     54  O5  ASG B   4       0.996  37.368  80.0640  0.00  0.00     0.000 O
BRANCH 50 57
ATOM     55   N  ASG B   4      -0.504  35.378  77.9820  0.00  0.00     0.000 N
ATOM     57  HD  ASG B   4      -0.956  35.567  77.2680  0.00  0.00     0.000 HD
ATOM     57   O  ASG B   4      -0.778  36.372  75.9940  0.00  0.00     0.000 OA
ATOM     58   C  ASG B   4      -0.383  35.414  76.6520  0.00  0.00     0.000 C
ATOM     59   C  ASG B   4       0.212  34.192  76.0230  0.00  0.00     0.000 C
ENDBRANCH 50 57
BRANCH 52 60
ATOM     60   O  ASG B   4       0.349  34.588  80.5150  0.00  0.00     0.000 O
ATOM     61   O  ASG B   4       0.715  33.538  82.7500  0.00  0.00     0.000 OA
ATOM     62   O  ASG B   4       1.454  32.423  80.7810  0.00  0.00     0.000 OA
ATOM     63   O  ASG B   4       2.464  34.503  81.3900  0.00  0.00     0.000 OA
ATOM     64   S  ASG B   4       1.267  33.657  81.4420  0.00  0.00     0.000 S
ENDBRANCH 52 60
ATOM     65   O  ASG B   4       1.873  38.212  82.7500  0.00  0.00     0.000 O
ATOM     67  HD  ASG B   4       2.362  38.422  82.0670  0.00  0.00     0.000 HD
ATOM     67   O  ASG B   4       1.873  38.212  82.7500  0.00  0.00     0.000 O
ATOM     69  HD  ASG B   4       2.362  38.422  82.0670  0.00  0.00     0.000 HD
ENDBRANCH 48 51
ENDBRANCH 35 48
ENDBRANCH 34 38
ENDBRANCH 15 34
ENDBRANCH 14 17
ENDBRANCH 1 14
TORSDOF 12
ENDMDL
MODEL 14
REMARK VINA RESULT:      -8.9      9.747     14.652
ROOT
ATOM      1  C1  GAD B   1     -13.471  29.371  80.3930  0.00  0.00     0.000 C
ATOM      2  C2  GAD B   1     -13.028  29.865  81.7730  0.00  0.00     0.000 C
ATOM      3  C3  GAD B   1     -14.002  30.931  82.2880  0.00  0.00     0.000 C
ATOM      4  C4  GAD B   1     -14.635  31.794  81.1940  0.00  0.00     0.000 C
ATOM      5  C5  GAD B   1     -14.499  31.565  79.8730  0.00  0.00     0.000 C
ATOM      6  O5  GAD B   1     -13.661  30.462  79.4790  0.00  0.00     0.000 O
ATOM      7   O  GAD B   1     -12.858  28.743  82.7160  0.00  0.00     0.000 O
ATOM      9  HD  GAD B   1     -12.878  28.299  81.9730  0.00  0.00     0.000 HD
ATOM      9   O  GAD B   1     -13.352  31.849  83.1960  0.00  0.00     0.000 O
ATOM     11  HD  GAD B   1     -13.373  31.405  82.4530  0.00  0.00     0.000 HD
ENDROOT
BRANCH 5 11
ATOM     11   C  GAD B   1     -15.192  32.328  78.8080  0.00  0.00     0.000 C
ATOM     12   O  GAD B   1     -14.923  33.566  78.7200  0.00  0.00     0.000 OA
ATOM     13   O  GAD B   1     -16.082  31.755  78.0770  0.00  0.00     0.000 OA
ENDBRANCH 5 11
BRANCH 1 14
ATOM     14  O3  ASG B   2     -12.650  28.771  79.5100  0.00  0.00     0.000 O
BRANCH 14 17
ATOM     15  C1  ASG B   2      -9.148  28.375  78.1460  0.00  0.00     0.000 C
ATOM     16  C2  ASG B   2     -10.679  28.478  78.0900  0.00  0.00     0.000 C
ATOM     17  C3  ASG B   2     -11.222  28.666  79.5090  0.00  0.00     0.000 C
ATOM     18  C4  ASG B   2     -10.796  27.503  80.3850  0.00  0.00     0.000 C
ATOM     19  C5  ASG B   2      -9.279  27.356  80.3160  0.00  0.00     0.000 C
ATOM     20  O5  ASG B   2      -8.857  27.242  78.9430  0.00  0.00     0.000 O
ATOM     21   C  ASG B   2      -8.783  26.132  81.0170  0.00  0.00     0.000 C
ATOM     22   O  ASG B   2      -7.418  25.952  80.7300  0.00  0.00     0.000 O
ATOM     24  HD  ASG B   2      -6.588  25.721  80.6440  0.00  0.00     0.000 HD
BRANCH 16 26
ATOM     24   N  ASG B   2     -11.267  29.540  77.3060  0.00  0.00     0.000 N
ATOM     26  HD  ASG B   2     -10.438  29.305  77.2190  0.00  0.00     0.000 HD
ATOM     26   C  ASG B   2     -12.311  29.372  76.4730  0.00  0.00     0.000 C
ATOM     27   C  ASG B   2     -12.993  30.617  76.0190  0.00  0.00     0.000 C
ATOM     28   O  ASG B   2     -12.675  28.260  76.1130  0.00  0.00     0.000 OA
ENDBRANCH 16 26
BRANCH 18 29
ATOM     29   O  ASG B   2     -11.507  26.320  79.8820  0.00  0.00     0.000 O
ATOM     30   O  ASG B   2     -11.706  25.251  82.0870  0.00  0.00     0.000 OA
ATOM     31   O  ASG B   2     -13.654  26.264  81.0510  0.00  0.00     0.000 OA
ATOM     32   O  ASG B   2     -12.709  24.239  80.1290  0.00  0.00     0.000 OA
ATOM     33   S  ASG B   2     -12.457  25.477  80.8660  0.00  0.00     0.000 S
ENDBRANCH 18 29
BRANCH 15 34
ATOM     34  O4  ASG B   3      -8.550  28.206  76.8930  0.00  0.00     0.000 O
BRANCH 34 38
ATOM     35  C1  GCT B   3      -7.056  25.896  73.9270  0.00  0.00     0.000 C
ATOM     36  C2  GCT B   3      -8.561  25.823  74.0650  0.00  0.00     0.000 C
ATOM     37  C3  GCT B   3      -9.089  27.004  74.8680  0.00  0.00     0.000 C
ATOM     38  C4  GCT B   3      -8.451  26.992  76.2620  0.00  0.00     0.000 C
ATOM     39  C5  GCT B   3      -7.000  26.459  76.2310  0.00  0.00     0.000 C
ATOM     40  O5  GCT B   3      -6.497  26.731  74.9350  0.00  0.00     0.000 O
ATOM     41   O  GCT B   3      -9.089  25.849  72.7460  0.00  0.00     0.000 O
ATOM     43  HD  GCT B   3      -9.140  25.243  72.1290  0.00  0.00     0.000 HD
ATOM     43   O  GCT B   3     -10.530  26.925  74.9090  0.00  0.00     0.000 O
ATOM     45  HD  GCT B   3     -10.580  26.319  74.2920  0.00  0.00     0.000 HD
BRANCH 39 45
ATOM     45   C  GCT B   3      -6.762  25.002  76.5640  0.00  0.00     0.000 C
ATOM     46   O  GCT B   3      -7.755  24.229  76.7430  0.00  0.00     0.000 OA
ATOM     47   O  GCT B   3      -5.586  24.611  76.6370  0.00  0.00     0.000 OA
ENDBRANCH 39 45
BRANCH 35 48
ATOM     48  O3  ASG B   4      -6.606  24.747  73.4680  0.00  0.00     0.000 O
BRANCH 48 51
ATOM     49  C1  ASG B   4      -4.564  24.584  70.3870  0.00  0.00     0.000 C
ATOM     50  C2  ASG B   4      -5.800  24.623  71.3010  0.00  0.00     0.000 C
ATOM     51  C3  ASG B   4      -5.416  24.979  72.7350  0.00  0.00     0.000 C
ATOM     52  C4  ASG B   4      -4.272  24.108  73.2300  0.00  0.00     0.000 C
ATOM     53  C5  ASG B   4      -3.123  24.223  72.2330  0.00  0.00     0.000 C
ATOM     54  O5  ASG B   4      -3.565  23.748  70.9460  0.00  0.00     0.000 O
BRANCH 50 57
ATOM     55   N  ASG B   4      -6.772  23.563  71.4390  0.00  0.00     0.000 N
ATOM     57  HD  ASG B   4      -7.418  23.942  71.0040  0.00  0.00     0.000 HD
ATOM     57   O  ASG B   4      -7.889  24.081  69.5680  0.00  0.00     0.000 OA
ATOM     58   C  ASG B   4      -7.687  23.307  70.4990  0.00  0.00     0.000 C
ATOM     59   C  ASG B   4      -8.476  22.049  70.6880  0.00  0.00     0.000 C
ENDBRANCH 50 57
BRANCH 52 60
ATOM     60   O  ASG B   4      -4.880  22.755  73.3200  0.00  0.00     0.000 O
ATOM     61   O  ASG B   4      -3.574  22.165  75.3650  0.00  0.00     0.000 OA
ATOM     62   O  ASG B   4      -5.232  20.667  74.5430  0.00  0.00     0.000 OA
ATOM     63   O  ASG B   4      -3.295  21.106  73.2120  0.00  0.00     0.000 OA
ATOM     64   S  ASG B   4      -4.225  21.607  74.2270  0.00  0.00     0.000 S
ENDBRANCH 52 60
ATOM     65   O  ASG B   4      -0.756  23.871  71.8360  0.00  0.00     0.000 O
ATOM     67  HD  ASG B   4      -0.936  23.503  71.0730  0.00  0.00     0.000 HD
ATOM     67   O  ASG B   4      -0.756  23.871  71.8360  0.00  0.00     0.000 O
ATOM     69  HD  ASG B   4      -0.936  23.503  71.0730  0.00  0.00     0.000 HD
ENDBRANCH 48 51
ENDBRANCH 35 48
ENDBRANCH 34 38
ENDBRANCH 15 34
ENDBRANCH 14 17
ENDBRANCH 1 14
TORSDOF 12
ENDMDL
MODEL 15
REMARK VINA RESULT:      -8.8      1.945      2.881
ROOT
ATOM      1  C1  GAD B   1       1.090  37.104  79.3010  0.00  0.00     0.000 C
ATOM      2  C2  GAD B   1       1.672  38.332  80.0070  0.00  0.00     0.000 C
ATOM      3  C3  GAD B   1       1.994  37.996  81.4680  0.00  0.00     0.000 C
ATOM      4  C4  GAD B   1       1.061  36.961  82.1030  0.00  0.00     0.000 C
ATOM      5  C5  GAD B   1       0.126  36.266  81.4250  0.00  0.00     0.000 C
ATOM      6  O5  GAD B   1      -0.025  36.560  80.0230  0.00  0.00     0.000 O
ATOM      7   O  GAD B   1       2.834  38.873  79.2760  0.00  0.00     0.000 O
ATOM      9  HD  GAD B   1       2.505  38.363  78.6580  0.00  0.00     0.000 HD
ATOM      9   O  GAD B   1       1.925  39.168  82.3110  0.00  0.00     0.000 O
ATOM     11  HD  GAD B   1       1.596  38.658  81.6930  0.00  0.00     0.000 HD
ENDROOT
BRANCH 5 11
ATOM     11   C  GAD B   1      -0.709  35.188  82.0050  0.00  0.00     0.000 C
ATOM     12   O  GAD B   1      -1.959  35.246  81.7830  0.00  0.00     0.000 OA
ATOM     13   O  GAD B   1      -0.177  34.295  82.7620  0.00  0.00     0.000 OA
ENDBRANCH 5 11
BRANCH 1 14
ATOM     14  O3  ASG B   2       0.341  37.164  78.1840  0.00  0.00     0.000 O
BRANCH 14 17
ATOM     15  C1  ASG B   2      -2.892  35.749  76.8330  0.00  0.00     0.000 C
ATOM     16  C2  ASG B   2      -1.371  35.902  76.9740  0.00  0.00     0.000 C
ATOM     17  C3  ASG B   2      -1.069  36.985  78.0140  0.00  0.00     0.000 C
ATOM     18  C4  ASG B   2      -1.702  38.298  77.5920  0.00  0.00     0.000 C
ATOM     19  C5  ASG B   2      -3.190  38.076  77.3420  0.00  0.00     0.000 C
ATOM     20  O5  ASG B   2      -3.377  37.005  76.3960  0.00  0.00     0.000 O
ATOM     21   C  ASG B   2      -3.866  39.278  76.7630  0.00  0.00     0.000 C
ATOM     22   O  ASG B   2      -5.169  38.933  76.3640  0.00  0.00     0.000 O
ATOM     24  HD  ASG B   2      -5.984  38.865  76.0780  0.00  0.00     0.000 HD
BRANCH 16 26
ATOM     24   N  ASG B   2      -0.694  34.648  77.2140  0.00  0.00     0.000 N
ATOM     26  HD  ASG B   2      -1.431  34.697  76.7620  0.00  0.00     0.000 HD
ATOM     26   C  ASG B   2       0.560  34.379  76.8070  0.00  0.00     0.000 C
ATOM     27   C  ASG B   2       1.210  33.192  77.4300  0.00  0.00     0.000 C
ATOM     28   O  ASG B   2       1.130  35.073  75.9740  0.00  0.00     0.000 OA
ENDBRANCH 16 26
BRANCH 18 29
ATOM     29   O  ASG B   2      -0.982  38.742  76.3910  0.00  0.00     0.000 O
ATOM     30   O  ASG B   2      -1.341  41.137  76.8140  0.00  0.00     0.000 OA
ATOM     31   O  ASG B   2       0.850  40.158  77.1770  0.00  0.00     0.000 OA
ATOM     32   O  ASG B   2      -0.008  40.402  74.9300  0.00  0.00     0.000 OA
ATOM     33   S  ASG B   2      -0.329  40.209  76.3450  0.00  0.00     0.000 S
ENDBRANCH 18 29
BRANCH 15 34
ATOM     34  O4  ASG B   3      -3.275  34.775  75.9060  0.00  0.00     0.000 O
BRANCH 34 38
ATOM     35  C1  GCT B   3      -7.053  34.498  77.3260  0.00  0.00     0.000 C
ATOM     36  C2  GCT B   3      -6.280  33.198  77.3730  0.00  0.00     0.000 C
ATOM     37  C3  GCT B   3      -4.785  33.451  77.2490  0.00  0.00     0.000 C
ATOM     38  C4  GCT B   3      -4.502  34.161  75.9200  0.00  0.00     0.000 C
ATOM     39  C5  GCT B   3      -5.647  35.119  75.5190  0.00  0.00     0.000 C
ATOM     40  O5  GCT B   3      -6.274  35.526  76.7230  0.00  0.00     0.000 O
ATOM     41   O  GCT B   3      -6.576  32.598  78.6260  0.00  0.00     0.000 O
ATOM     43  HD  GCT B   3      -7.271  32.169  78.9150  0.00  0.00     0.000 HD
ATOM     43   O  GCT B   3      -4.093  32.190  77.3700  0.00  0.00     0.000 O
ATOM     45  HD  GCT B   3      -4.788  31.761  77.6590  0.00  0.00     0.000 HD
BRANCH 39 45
ATOM     45   C  GCT B   3      -6.698  34.620  74.5520  0.00  0.00     0.000 C
ATOM     46   O  GCT B   3      -6.676  33.406  74.1740  0.00  0.00     0.000 OA
ATOM     47   O  GCT B   3      -7.562  35.426  74.1700  0.00  0.00     0.000 OA
ENDBRANCH 39 45
BRANCH 35 48
ATOM     48  O3  ASG B   4      -8.333  34.238  77.1690  0.00  0.00     0.000 O
BRANCH 48 51
ATOM     49  C1  ASG B   4     -11.392  34.484  79.2360  0.00  0.00     0.000 C
ATOM     50  C2  ASG B   4     -10.421  34.008  78.1430  0.00  0.00     0.000 C
ATOM     51  C3  ASG B   4      -9.022  34.578  78.3600  0.00  0.00     0.000 C
ATOM     52  C4  ASG B   4      -9.068  36.082  78.5730  0.00  0.00     0.000 C
ATOM     53  C5  ASG B   4     -10.039  36.370  79.7150  0.00  0.00     0.000 C
ATOM     54  O5  ASG B   4     -11.350  35.897  79.3490  0.00  0.00     0.000 O
BRANCH 50 57
ATOM     55   N  ASG B   4     -10.070  32.679  77.6970  0.00  0.00     0.000 N
ATOM     57  HD  ASG B   4     -10.875  32.367  77.6220  0.00  0.00     0.000 HD
ATOM     57   O  ASG B   4     -11.986  32.336  76.5900  0.00  0.00     0.000 OA
ATOM     58   C  ASG B   4     -10.844  31.980  76.8600  0.00  0.00     0.000 C
ATOM     59   C  ASG B   4     -10.242  30.717  76.3250  0.00  0.00     0.000 C
ENDBRANCH 50 57
BRANCH 52 60
ATOM     60   O  ASG B   4      -9.495  36.608  77.2510  0.00  0.00     0.000 O
ATOM     61   O  ASG B   4      -7.732  38.375  77.2390  0.00  0.00     0.000 OA
ATOM     62   O  ASG B   4      -9.115  38.067  75.3250  0.00  0.00     0.000 OA
ATOM     63   O  ASG B   4     -10.104  38.812  77.3710  0.00  0.00     0.000 OA
ATOM     64   S  ASG B   4      -9.025  38.051  76.7360  0.00  0.00     0.000 S
ENDBRANCH 52 60
ATOM     65   O  ASG B   4     -10.798  37.986  81.3560  0.00  0.00     0.000 O
ATOM     67  HD  ASG B   4     -11.621  37.816  81.1470  0.00  0.00     0.000 HD
ATOM     67   O  ASG B   4     -10.798  37.986  81.3560  0.00  0.00     0.000 O
ATOM     69  HD  ASG B   4     -11.621  37.816  81.1470  0.00  0.00     0.000 HD
ENDBRANCH 48 51
ENDBRANCH 35 48
ENDBRANCH 34 38
ENDBRANCH 15 34
ENDBRANCH 14 17
ENDBRANCH 1 14
TORSDOF 12
ENDMDL
MODEL 16
REMARK VINA RESULT:      -8.7      4.331      7.667
ROOT
ATOM      1  C1  GAD B   1       0.574  36.871  80.5370  0.00  0.00     0.000 C
ATOM      2  C2  GAD B   1       1.490  37.080  81.7470  0.00  0.00     0.000 C
ATOM      3  C3  GAD B   1       2.136  38.469  81.6850  0.00  0.00     0.000 C
ATOM      4  C4  GAD B   1       2.400  38.984  80.2670  0.00  0.00     0.000 C
ATOM      5  C5  GAD B   1       1.973  38.371  79.1450  0.00  0.00     0.000 C
ATOM      6  O5  GAD B   1       1.263  37.127  79.3040  0.00  0.00     0.000 O
ATOM      7   O  GAD B   1       0.771  36.839  83.0130  0.00  0.00     0.000 O
ATOM      9  HD  GAD B   1       0.212  36.473  82.4630  0.00  0.00     0.000 HD
ATOM      9   O  GAD B   1       3.411  38.493  82.3640  0.00  0.00     0.000 O
ATOM     11  HD  GAD B   1       2.852  38.126  81.8130  0.00  0.00     0.000 HD
ENDROOT
BRANCH 5 11
ATOM     11   C  GAD B   1       2.131  38.914  77.7760  0.00  0.00     0.000 C
ATOM     12   O  GAD B   1       2.362  40.158  77.6730  0.00  0.00     0.000 OA
ATOM     13   O  GAD B   1       1.954  38.152  76.7550  0.00  0.00     0.000 OA
ENDBRANCH 5 11
BRANCH 1 14
ATOM     14  O3  ASG B   2       0.199  35.662  80.0780  0.00  0.00     0.000 O
BRANCH 14 17
ATOM     15  C1  ASG B   2      -0.144  33.898  76.7540  0.00  0.00     0.000 C
ATOM     16  C2  ASG B   2      -0.620  34.635  78.0140  0.00  0.00     0.000 C
ATOM     17  C3  ASG B   2       0.592  34.969  78.8890  0.00  0.00     0.000 C
ATOM     18  C4  ASG B   2       1.328  33.696  79.2600  0.00  0.00     0.000 C
ATOM     19  C5  ASG B   2       1.675  32.931  77.9870  0.00  0.00     0.000 C
ATOM     20  O5  ASG B   2       0.485  32.712  77.2030  0.00  0.00     0.000 O
ATOM     21   C  ASG B   2       2.256  31.581  78.2620  0.00  0.00     0.000 C
ATOM     22   O  ASG B   2       2.349  30.859  77.0590  0.00  0.00     0.000 O
ATOM     24  HD  ASG B   2       2.466  30.305  76.4030  0.00  0.00     0.000 HD
BRANCH 16 26
ATOM     24   N  ASG B   2      -1.815  35.032  78.7220  0.00  0.00     0.000 N
ATOM     26  HD  ASG B   2      -1.072  34.857  79.1310  0.00  0.00     0.000 HD
ATOM     26   C  ASG B   2      -2.450  36.203  78.5320  0.00  0.00     0.000 C
ATOM     27   C  ASG B   2      -3.831  36.297  79.0830  0.00  0.00     0.000 C
ATOM     28   O  ASG B   2      -1.919  37.135  77.9400  0.00  0.00     0.000 OA
ENDBRANCH 16 26
BRANCH 18 29
ATOM     29   O  ASG B   2       0.436  32.943  80.1520  0.00  0.00     0.000 O
ATOM     30   O  ASG B   2       2.259  31.959  81.4760  0.00  0.00     0.000 OA
ATOM     31   O  ASG B   2       0.904  33.740  82.4170  0.00  0.00     0.000 OA
ATOM     32   O  ASG B   2      -0.055  31.549  82.0640  0.00  0.00     0.000 OA
ATOM     33   S  ASG B   2       0.935  32.533  81.6240  0.00  0.00     0.000 S
ENDBRANCH 18 29
BRANCH 15 34
ATOM     34  O4  ASG B   3      -1.180  33.551  75.8800  0.00  0.00     0.000 O
BRANCH 34 38
ATOM     35  C1  GCT B   3      -5.006  32.421  75.2120  0.00  0.00     0.000 C
ATOM     36  C2  GCT B   3      -4.834  33.907  75.4430  0.00  0.00     0.000 C
ATOM     37  C3  GCT B   3      -3.381  34.320  75.2510  0.00  0.00     0.000 C
ATOM     38  C4  GCT B   3      -2.503  33.548  76.2430  0.00  0.00     0.000 C
ATOM     39  C5  GCT B   3      -3.040  32.123  76.5050  0.00  0.00     0.000 C
ATOM     40  O5  GCT B   3      -3.762  31.743  75.3470  0.00  0.00     0.000 O
ATOM     41   O  GCT B   3      -5.662  34.561  74.4920  0.00  0.00     0.000 O
ATOM     43  HD  GCT B   3      -6.518  34.689  74.4570  0.00  0.00     0.000 HD
ATOM     43   O  GCT B   3      -3.286  35.751  75.4140  0.00  0.00     0.000 O
ATOM     45  HD  GCT B   3      -4.142  35.879  75.3790  0.00  0.00     0.000 HD
BRANCH 39 45
ATOM     45   C  GCT B   3      -3.900  31.892  77.7290  0.00  0.00     0.000 C
ATOM     46   O  GCT B   3      -4.379  30.736  77.9510  0.00  0.00     0.000 OA
ATOM     47   O  GCT B   3      -4.096  32.856  78.4870  0.00  0.00     0.000 OA
ENDBRANCH 39 45
BRANCH 35 48
ATOM     48  O3  ASG B   4      -6.195  32.050  75.6360  0.00  0.00     0.000 O
BRANCH 48 51
ATOM     49  C1  ASG B   4      -9.402  31.657  73.8320  0.00  0.00     0.000 C
ATOM     50  C2  ASG B   4      -8.354  32.208  74.8140  0.00  0.00     0.000 C
ATOM     51  C3  ASG B   4      -6.970  31.632  74.5260  0.00  0.00     0.000 C
ATOM     52  C4  ASG B   4      -7.017  30.117  74.4130  0.00  0.00     0.000 C
ATOM     53  C5  ASG B   4      -8.071  29.751  73.3710  0.00  0.00     0.000 C
ATOM     54  O5  ASG B   4      -9.355  30.240  73.8060  0.00  0.00     0.000 O
BRANCH 50 57
ATOM     55   N  ASG B   4      -8.862  33.496  74.4040  0.00  0.00     0.000 N
ATOM     57  HD  ASG B   4      -9.534  33.534  74.9490  0.00  0.00     0.000 HD
ATOM     57   O  ASG B   4      -9.811  33.967  76.3760  0.00  0.00     0.000 OA
ATOM     58   C  ASG B   4      -9.467  34.329  75.2550  0.00  0.00     0.000 C
ATOM     59   C  ASG B   4      -9.741  35.706  74.7310  0.00  0.00     0.000 C
ENDBRANCH 50 57
BRANCH 52 60
ATOM     60   O  ASG B   4      -7.336  29.674  75.7950  0.00  0.00     0.000 O
ATOM     61   O  ASG B   4      -5.396  28.106  75.8780  0.00  0.00     0.000 OA
ATOM     62   O  ASG B   4      -6.730  28.446  77.8210  0.00  0.00     0.000 OA
ATOM     63   O  ASG B   4      -7.711  27.417  75.8980  0.00  0.00     0.000 OA
ATOM     64   S  ASG B   4      -6.695  28.341  76.4120  0.00  0.00     0.000 S
ENDBRANCH 52 60
ATOM     65   O  ASG B   4      -8.938  28.030  71.8990  0.00  0.00     0.000 O
ATOM     67  HD  ASG B   4      -9.744  28.209  72.1600  0.00  0.00     0.000 HD
ATOM     67   O  ASG B   4      -8.938  28.030  71.8990  0.00  0.00     0.000 O
ATOM     69  HD  ASG B   4      -9.744  28.209  72.1600  0.00  0.00     0.000 HD
ENDBRANCH 48 51
ENDBRANCH 35 48
ENDBRANCH 34 38
ENDBRANCH 15 34
ENDBRANCH 14 17
ENDBRANCH 1 14
TORSDOF 12
ENDMDL
MODEL 17
REMARK VINA RESULT:      -8.7      3.287      5.473
ROOT
ATOM      1  C1  GAD B   1      -0.697  34.464  76.9700  0.00  0.00     0.000 C
ATOM      2  C2  GAD B   1       0.684  33.826  76.7960  0.00  0.00     0.000 C
ATOM      3  C3  GAD B   1       0.656  32.818  75.6400  0.00  0.00     0.000 C
ATOM      4  C4  GAD B   1      -0.686  32.105  75.4510  0.00  0.00     0.000 C
ATOM      5  C5  GAD B   1      -1.814  32.422  76.1180  0.00  0.00     0.000 C
ATOM      6  O5  GAD B   1      -1.725  33.470  77.1020  0.00  0.00     0.000 O
ATOM      7   O  GAD B   1       1.734  34.850  76.6360  0.00  0.00     0.000 O
ATOM      9  HD  GAD B   1       1.095  35.351  76.9390  0.00  0.00     0.000 HD
ATOM      9   O  GAD B   1       1.641  31.776  75.8210  0.00  0.00     0.000 O
ATOM     11  HD  GAD B   1       1.002  32.276  76.1240  0.00  0.00     0.000 HD
ENDROOT
BRANCH 5 11
ATOM     11   C  GAD B   1      -3.141  31.812  75.8670  0.00  0.00     0.000 C
ATOM     12   O  GAD B   1      -3.294  30.602  76.2230  0.00  0.00     0.000 OA
ATOM     13   O  GAD B   1      -4.049  32.475  75.2430  0.00  0.00     0.000 OA
ENDBRANCH 5 11
BRANCH 1 14
ATOM     14  O3  ASG B   2      -1.116  35.051  78.1070  0.00  0.00     0.000 O
BRANCH 14 17
ATOM     15  C1  ASG B   2      -4.039  34.959  80.5010  0.00  0.00     0.000 C
ATOM     16  C2  ASG B   2      -3.132  35.538  79.4050  0.00  0.00     0.000 C
ATOM     17  C3  ASG B   2      -1.990  34.556  79.1280  0.00  0.00     0.000 C
ATOM     18  C4  ASG B   2      -1.201  34.308  80.3990  0.00  0.00     0.000 C
ATOM     19  C5  ASG B   2      -2.156  33.853  81.4980  0.00  0.00     0.000 C
ATOM     20  O5  ASG B   2      -3.225  34.808  81.6490  0.00  0.00     0.000 O
ATOM     21   C  ASG B   2      -1.492  33.744  82.8340  0.00  0.00     0.000 C
ATOM     22   O  ASG B   2      -2.468  33.532  83.8230  0.00  0.00     0.000 O
ATOM     24  HD  ASG B   2      -2.953  33.397  84.5280  0.00  0.00     0.000 HD
BRANCH 16 26
ATOM     24   N  ASG B   2      -2.949  36.749  78.6390  0.00  0.00     0.000 N
ATOM     26  HD  ASG B   2      -2.284  36.250  78.8810  0.00  0.00     0.000 HD
ATOM     26   C  ASG B   2      -3.481  36.957  77.4200  0.00  0.00     0.000 C
ATOM     27   C  ASG B   2      -3.478  38.366  76.9350  0.00  0.00     0.000 C
ATOM     28   O  ASG B   2      -3.941  36.039  76.7530  0.00  0.00     0.000 OA
ENDBRANCH 16 26
BRANCH 18 29
ATOM     29   O  ASG B   2      -0.521  35.570  80.7210  0.00  0.00     0.000 O
ATOM     30   O  ASG B   2       1.444  34.489  81.7280  0.00  0.00     0.000 OA
ATOM     31   O  ASG B   2       1.617  35.515  79.5350  0.00  0.00     0.000 OA
ATOM     32   O  ASG B   2       1.342  36.898  81.4990  0.00  0.00     0.000 OA
ATOM     33   S  ASG B   2       1.079  35.602  80.8720  0.00  0.00     0.000 S
ENDBRANCH 18 29
BRANCH 15 34
ATOM     34  O4  ASG B   3      -5.122  35.781  80.8260  0.00  0.00     0.000 O
BRANCH 34 38
ATOM     35  C1  GCT B   3      -8.457  33.523  81.2080  0.00  0.00     0.000 C
ATOM     36  C2  GCT B   3      -7.990  33.696  79.7790  0.00  0.00     0.000 C
ATOM     37  C3  GCT B   3      -6.541  34.160  79.7340  0.00  0.00     0.000 C
ATOM     38  C4  GCT B   3      -6.417  35.498  80.4740  0.00  0.00     0.000 C
ATOM     39  C5  GCT B   3      -7.390  35.590  81.6710  0.00  0.00     0.000 C
ATOM     40  O5  GCT B   3      -7.630  34.262  82.1010  0.00  0.00     0.000 O
ATOM     41   O  GCT B   3      -8.121  32.426  79.1560  0.00  0.00     0.000 O
ATOM     43  HD  GCT B   3      -8.809  31.995  78.8540  0.00  0.00     0.000 HD
ATOM     43   O  GCT B   3      -6.127  34.242  78.3540  0.00  0.00     0.000 O
ATOM     45  HD  GCT B   3      -6.815  33.810  78.0530  0.00  0.00     0.000 HD
BRANCH 39 45
ATOM     45   C  GCT B   3      -8.712  36.298  81.4710  0.00  0.00     0.000 C
ATOM     46   O  GCT B   3      -9.509  36.429  82.4530  0.00  0.00     0.000 OA
ATOM     47   O  GCT B   3      -8.965  36.742  80.3390  0.00  0.00     0.000 OA
ENDBRANCH 39 45
BRANCH 35 48
ATOM     48  O3  ASG B   4      -9.765  33.382  81.2250  0.00  0.00     0.000 O
BRANCH 48 51
ATOM     49  C1  ASG B   4     -10.977  31.016  83.7980  0.00  0.00     0.000 C
ATOM     50  C2  ASG B   4     -10.306  31.539  82.5170  0.00  0.00     0.000 C
ATOM     51  C3  ASG B   4     -10.177  33.060  82.5420  0.00  0.00     0.000 C
ATOM     52  C4  ASG B   4     -11.501  33.718  82.8930  0.00  0.00     0.000 C
ATOM     53  C5  ASG B   4     -11.997  33.116  84.2050  0.00  0.00     0.000 C
ATOM     54  O5  ASG B   4     -12.197  31.700  84.0290  0.00  0.00     0.000 O
BRANCH 50 57
ATOM     55   N  ASG B   4      -9.291  30.565  82.8490  0.00  0.00     0.000 N
ATOM     57  HD  ASG B   4      -9.667  29.878  82.4780  0.00  0.00     0.000 HD
ATOM     57   O  ASG B   4      -9.736  29.225  81.1100  0.00  0.00     0.000 OA
ATOM     58   C  ASG B   4      -9.012  29.527  82.0550  0.00  0.00     0.000 C
ATOM     59   C  ASG B   4      -7.797  28.734  82.4270  0.00  0.00     0.000 C
ENDBRANCH 50 57
BRANCH 52 60
ATOM     60   O  ASG B   4     -12.359  33.425  81.7160  0.00  0.00     0.000 O
ATOM     61   O  ASG B   4     -13.190  35.775  81.5750  0.00  0.00     0.000 OA
ATOM     62   O  ASG B   4     -13.802  34.198  79.8990  0.00  0.00     0.000 OA
ATOM     63   O  ASG B   4     -14.564  33.871  82.1420  0.00  0.00     0.000 OA
ATOM     64   S  ASG B   4     -13.528  34.426  81.2670  0.00  0.00     0.000 S
ENDBRANCH 52 60
ATOM     65   O  ASG B   4     -13.503  33.355  86.0910  0.00  0.00     0.000 O
ATOM     67  HD  ASG B   4     -13.739  32.526  86.0110  0.00  0.00     0.000 HD
ATOM     67   O  ASG B   4     -13.503  33.355  86.0910  0.00  0.00     0.000 O
ATOM     69  HD  ASG B   4     -13.739  32.526  86.0110  0.00  0.00     0.000 HD
ENDBRANCH 48 51
ENDBRANCH 35 48
ENDBRANCH 34 38
ENDBRANCH 15 34
ENDBRANCH 14 17
ENDBRANCH 1 14
TORSDOF 12
ENDMDL
MODEL 18
REMARK VINA RESULT:      -8.7      3.472     10.805
ROOT
ATOM      1  C1  GAD B   1     -13.795  31.201  79.6600  0.00  0.00     0.000 C
ATOM      2  C2  GAD B   1     -15.134  31.732  80.1830  0.00  0.00     0.000 C
ATOM      3  C3  GAD B   1     -16.017  32.179  79.0120  0.00  0.00     0.000 C
ATOM      4  C4  GAD B   1     -15.246  32.734  77.8110  0.00  0.00     0.000 C
ATOM      5  C5  GAD B   1     -13.904  32.701  77.6900  0.00  0.00     0.000 C
ATOM      6  O5  GAD B   1     -13.157  32.148  78.7900  0.00  0.00     0.000 O
ATOM      7   O  GAD B   1     -15.798  30.746  81.0570  0.00  0.00     0.000 O
ATOM      9  HD  GAD B   1     -15.003  30.404  81.0410  0.00  0.00     0.000 HD
ATOM      9   O  GAD B   1     -16.940  33.218  79.4100  0.00  0.00     0.000 O
ATOM     11  HD  GAD B   1     -16.144  32.876  79.3940  0.00  0.00     0.000 HD
ENDROOT
BRANCH 5 11
ATOM     11   C  GAD B   1     -13.155  33.137  76.4880  0.00  0.00     0.000 C
ATOM     12   O  GAD B   1     -12.881  32.245  75.6260  0.00  0.00     0.000 OA
ATOM     13   O  GAD B   1     -12.744  34.351  76.3880  0.00  0.00     0.000 OA
ENDBRANCH 5 11
BRANCH 1 14
ATOM     14  O3  ASG B   2     -12.675  31.124  80.4020  0.00  0.00     0.000 O
BRANCH 14 17
ATOM     15  C1  ASG B   2      -9.004  32.007  80.2650  0.00  0.00     0.000 C
ATOM     16  C2  ASG B   2     -10.231  31.085  80.2930  0.00  0.00     0.000 C
ATOM     17  C3  ASG B   2     -11.499  31.940  80.3770  0.00  0.00     0.000 C
ATOM     18  C4  ASG B   2     -11.455  32.811  81.6180  0.00  0.00     0.000 C
ATOM     19  C5  ASG B   2     -10.161  33.619  81.6150  0.00  0.00     0.000 C
ATOM     20  O5  ASG B   2      -9.030  32.738  81.4770  0.00  0.00     0.000 O
ATOM     21   C  ASG B   2      -9.953  34.384  82.8830  0.00  0.00     0.000 C
ATOM     22   O  ASG B   2      -8.655  34.926  82.8920  0.00  0.00     0.000 O
ATOM     24  HD  ASG B   2      -7.895  35.317  83.0320  0.00  0.00     0.000 HD
BRANCH 16 26
ATOM     24   N  ASG B   2     -10.333  30.155  79.1920  0.00  0.00     0.000 N
ATOM     26  HD  ASG B   2      -9.578  30.500  79.4370  0.00  0.00     0.000 HD
ATOM     26   C  ASG B   2     -10.793  28.896  79.3100  0.00  0.00     0.000 C
ATOM     27   C  ASG B   2     -11.149  28.206  78.0380  0.00  0.00     0.000 C
ATOM     28   O  ASG B   2     -10.912  28.353  80.4020  0.00  0.00     0.000 OA
ENDBRANCH 16 26
BRANCH 18 29
ATOM     29   O  ASG B   2     -11.557  31.903  82.7680  0.00  0.00     0.000 O
ATOM     30   O  ASG B   2     -12.679  33.540  84.2190  0.00  0.00     0.000 OA
ATOM     31   O  ASG B   2     -13.942  31.698  83.2680  0.00  0.00     0.000 OA
ATOM     32   O  ASG B   2     -12.291  31.275  84.9830  0.00  0.00     0.000 OA
ATOM     33   S  ASG B   2     -12.704  32.131  83.8710  0.00  0.00     0.000 S
ENDBRANCH 18 29
BRANCH 15 34
ATOM     34  O4  ASG B   3      -7.787  31.320  80.1830  0.00  0.00     0.000 O
BRANCH 34 38
ATOM     35  C1  GCT B   3      -6.529  33.332  76.9070  0.00  0.00     0.000 C
ATOM     36  C2  GCT B   3      -6.238  31.847  76.8680  0.00  0.00     0.000 C
ATOM     37  C3  GCT B   3      -7.096  31.100  77.8790  0.00  0.00     0.000 C
ATOM     38  C4  GCT B   3      -6.801  31.638  79.2850  0.00  0.00     0.000 C
ATOM     39  C5  GCT B   3      -6.477  33.149  79.2710  0.00  0.00     0.000 C
ATOM     40  O5  GCT B   3      -7.137  33.694  78.1420  0.00  0.00     0.000 O
ATOM     41   O  GCT B   3      -6.540  31.412  75.5490  0.00  0.00     0.000 O
ATOM     43  HD  GCT B   3      -6.114  31.492  74.8000  0.00  0.00     0.000 HD
ATOM     43   O  GCT B   3      -6.831  29.687  77.7520  0.00  0.00     0.000 O
ATOM     45  HD  GCT B   3      -6.405  29.767  77.0030  0.00  0.00     0.000 HD
BRANCH 39 45
ATOM     45   C  GCT B   3      -5.025  33.574  79.2550  0.00  0.00     0.000 C
ATOM     46   O  GCT B   3      -4.113  32.689  79.2280  0.00  0.00     0.000 OA
ATOM     47   O  GCT B   3      -4.779  34.792  79.2560  0.00  0.00     0.000 OA
ENDBRANCH 39 45
BRANCH 35 48
ATOM     48  O3  ASG B   4      -5.605  33.974  76.2260  0.00  0.00     0.000 O
BRANCH 48 51
ATOM     49  C1  ASG B   4      -5.586  36.292  73.3420  0.00  0.00     0.000 C
ATOM     50  C2  ASG B   4      -5.068  35.383  74.4690  0.00  0.00     0.000 C
ATOM     51  C3  ASG B   4      -6.199  34.563  75.0830  0.00  0.00     0.000 C
ATOM     52  C4  ASG B   4      -7.379  35.446  75.4550  0.00  0.00     0.000 C
ATOM     53  C5  ASG B   4      -7.788  36.238  74.2160  0.00  0.00     0.000 C
ATOM     54  O5  ASG B   4      -6.684  37.065  73.7990  0.00  0.00     0.000 O
BRANCH 50 57
ATOM     55   N  ASG B   4      -4.121  34.933  75.4640  0.00  0.00     0.000 N
ATOM     57  HD  ASG B   4      -3.419  34.918  74.9560  0.00  0.00     0.000 HD
ATOM     57   O  ASG B   4      -2.344  35.877  74.4790  0.00  0.00     0.000 OA
ATOM     58   C  ASG B   4      -2.837  35.306  75.4470  0.00  0.00     0.000 C
ATOM     59   C  ASG B   4      -2.039  34.934  76.6590  0.00  0.00     0.000 C
ENDBRANCH 50 57
BRANCH 52 60
ATOM     60   O  ASG B   4      -6.856  36.273  76.5720  0.00  0.00     0.000 O
ATOM     61   O  ASG B   4      -9.082  36.393  77.6960  0.00  0.00     0.000 OA
ATOM     62   O  ASG B   4      -7.164  37.317  78.7630  0.00  0.00     0.000 OA
ATOM     63   O  ASG B   4      -7.941  38.285  76.7190  0.00  0.00     0.000 OA
ATOM     64   S  ASG B   4      -7.842  37.079  77.5460  0.00  0.00     0.000 S
ENDBRANCH 52 60
ATOM     65   O  ASG B   4      -9.517  37.564  73.1520  0.00  0.00     0.000 O
ATOM     67  HD  ASG B   4      -8.927  38.154  72.9210  0.00  0.00     0.000 HD
ATOM     67   O  ASG B   4      -9.517  37.564  73.1520  0.00  0.00     0.000 O
ATOM     69  HD  ASG B   4      -8.927  38.154  72.9210  0.00  0.00     0.000 HD
ENDBRANCH 48 51
ENDBRANCH 35 48
ENDBRANCH 34 38
ENDBRANCH 15 34
ENDBRANCH 14 17
ENDBRANCH 1 14
TORSDOF 12
ENDMDL
MODEL 19
REMARK VINA RESULT:      -8.6      5.548      8.149
ROOT
ATOM      1  C1  GAD B   1      -0.106  37.242  79.8060  0.00  0.00     0.000 C
ATOM      2  C2  GAD B   1      -0.351  36.230  80.9290  0.00  0.00     0.000 C
ATOM      3  C3  GAD B   1       0.421  36.642  82.1880  0.00  0.00     0.000 C
ATOM      4  C4  GAD B   1       1.741  37.368  81.9140  0.00  0.00     0.000 C
ATOM      5  C5  GAD B   1       2.148  37.769  80.6930  0.00  0.00     0.000 C
ATOM      6  O5  GAD B   1       1.297  37.446  79.5770  0.00  0.00     0.000 O
ATOM      7   O  GAD B   1      -1.793  36.042  81.1780  0.00  0.00     0.000 O
ATOM      9  HD  GAD B   1      -1.834  36.438  80.4090  0.00  0.00     0.000 HD
ATOM      9   O  GAD B   1       0.755  35.498  83.0040  0.00  0.00     0.000 O
ATOM     11  HD  GAD B   1       0.714  35.894  82.2360  0.00  0.00     0.000 HD
ENDROOT
BRANCH 5 11
ATOM     11   C  GAD B   1       3.370  38.565  80.4300  0.00  0.00     0.000 C
ATOM     12   O  GAD B   1       3.515  39.025  79.2550  0.00  0.00     0.000 OA
ATOM     13   O  GAD B   1       4.264  38.696  81.3450  0.00  0.00     0.000 OA
ENDBRANCH 5 11
BRANCH 1 14
ATOM     14  O3  ASG B   2      -0.283  36.973  78.4990  0.00  0.00     0.000 O
BRANCH 14 17
ATOM     15  C1  ASG B   2      -2.203  34.622  76.2490  0.00  0.00     0.000 C
ATOM     16  C2  ASG B   2      -0.968  35.214  76.9410  0.00  0.00     0.000 C
ATOM     17  C3  ASG B   2      -1.403  36.386  77.8260  0.00  0.00     0.000 C
ATOM     18  C4  ASG B   2      -2.101  37.439  76.9850  0.00  0.00     0.000 C
ATOM     19  C5  ASG B   2      -3.245  36.785  76.2170  0.00  0.00     0.000 C
ATOM     20  O5  ASG B   2      -2.752  35.662  75.4600  0.00  0.00     0.000 O
ATOM     21   C  ASG B   2      -3.886  37.711  75.2340  0.00  0.00     0.000 C
ATOM     22   O  ASG B   2      -4.777  36.986  74.4220  0.00  0.00     0.000 O
ATOM     24  HD  ASG B   2      -5.353  36.672  73.8580  0.00  0.00     0.000 HD
BRANCH 16 26
ATOM     24   N  ASG B   2       0.469  35.068  76.9180  0.00  0.00     0.000 N
ATOM     26  HD  ASG B   2       0.084  35.835  77.0300  0.00  0.00     0.000 HD
ATOM     26   C  ASG B   2       1.162  34.308  77.7870  0.00  0.00     0.000 C
ATOM     27   C  ASG B   2       2.571  34.002  77.4100  0.00  0.00     0.000 C
ATOM     28   O  ASG B   2       0.660  33.893  78.8240  0.00  0.00     0.000 OA
ENDBRANCH 16 26
BRANCH 18 29
ATOM     29   O  ASG B   2      -1.076  38.014  76.1030  0.00  0.00     0.000 O
ATOM     30   O  ASG B   2      -2.058  40.268  76.0970  0.00  0.00     0.000 OA
ATOM     31   O  ASG B   2      -0.033  39.832  77.3620  0.00  0.00     0.000 OA
ATOM     32   O  ASG B   2       0.026  39.826  74.9450  0.00  0.00     0.000 OA
ATOM     33   S  ASG B   2      -0.775  39.592  76.1470  0.00  0.00     0.000 S
ENDBRANCH 18 29
BRANCH 15 34
ATOM     34  O4  ASG B   3      -1.914  33.535  75.4170  0.00  0.00     0.000 O
BRANCH 34 38
ATOM     35  C1  GCT B   3      -1.175  30.747  78.2530  0.00  0.00     0.000 C
ATOM     36  C2  GCT B   3      -0.608  30.406  76.8920  0.00  0.00     0.000 C
ATOM     37  C3  GCT B   3      -0.532  31.645  76.0110  0.00  0.00     0.000 C
ATOM     38  C4  GCT B   3      -1.939  32.231  75.8420  0.00  0.00     0.000 C
ATOM     39  C5  GCT B   3      -2.802  32.040  77.1100  0.00  0.00     0.000 C
ATOM     40  O5  GCT B   3      -1.905  31.968  78.2040  0.00  0.00     0.000 O
ATOM     41   O  GCT B   3       0.692  29.880  77.1160  0.00  0.00     0.000 O
ATOM     43  HD  GCT B   3       0.966  29.109  77.3980  0.00  0.00     0.000 HD
ATOM     43   O  GCT B   3       0.077  31.279  74.7550  0.00  0.00     0.000 O
ATOM     45  HD  GCT B   3       0.351  30.507  75.0360  0.00  0.00     0.000 HD
BRANCH 39 45
ATOM     45   C  GCT B   3      -3.751  30.862  77.1630  0.00  0.00     0.000 C
ATOM     46   O  GCT B   3      -3.733  29.999  76.2290  0.00  0.00     0.000 OA
ATOM     47   O  GCT B   3      -4.512  30.776  78.1410  0.00  0.00     0.000 OA
ENDBRANCH 39 45
BRANCH 35 48
ATOM     48  O3  ASG B   4      -1.474  29.636  78.8900  0.00  0.00     0.000 O
BRANCH 48 51
ATOM     49  C1  ASG B   4      -0.552  29.207  82.4480  0.00  0.00     0.000 C
ATOM     50  C2  ASG B   4      -0.433  29.211  80.9150  0.00  0.00     0.000 C
ATOM     51  C3  ASG B   4      -1.621  29.921  80.2710  0.00  0.00     0.000 C
ATOM     52  C4  ASG B   4      -2.939  29.395  80.8160  0.00  0.00     0.000 C
ATOM     53  C5  ASG B   4      -2.900  29.506  82.3380  0.00  0.00     0.000 C
ATOM     54  O5  ASG B   4      -1.817  28.701  82.8420  0.00  0.00     0.000 O
BRANCH 50 57
ATOM     55   N  ASG B   4       0.859  29.850  80.8240  0.00  0.00     0.000 N
ATOM     57  HD  ASG B   4       1.339  29.176  81.0790  0.00  0.00     0.000 HD
ATOM     57   O  ASG B   4       1.989  27.951  80.4630  0.00  0.00     0.000 OA
ATOM     58   C  ASG B   4       1.967  29.177  80.4990  0.00  0.00     0.000 C
ATOM     59   C  ASG B   4       3.181  30.015  80.2370  0.00  0.00     0.000 C
ENDBRANCH 50 57
BRANCH 52 60
ATOM     60   O  ASG B   4      -2.998  28.003  80.2990  0.00  0.00     0.000 O
ATOM     61   O  ASG B   4      -5.459  28.119  79.9010  0.00  0.00     0.000 OA
ATOM     62   O  ASG B   4      -4.236  26.196  79.2110  0.00  0.00     0.000 OA
ATOM     63   O  ASG B   4      -4.406  26.695  81.5440  0.00  0.00     0.000 OA
ATOM     64   S  ASG B   4      -4.390  27.218  80.1750  0.00  0.00     0.000 S
ENDBRANCH 52 60
ATOM     65   O  ASG B   4      -4.191  29.514  84.3910  0.00  0.00     0.000 O
ATOM     67  HD  ASG B   4      -3.624  28.968  84.7530  0.00  0.00     0.000 HD
ATOM     67   O  ASG B   4      -4.191  29.514  84.3910  0.00  0.00     0.000 O
ATOM     69  HD  ASG B   4      -3.624  28.968  84.7530  0.00  0.00     0.000 HD
ENDBRANCH 48 51
ENDBRANCH 35 48
ENDBRANCH 34 38
ENDBRANCH 15 34
ENDBRANCH 14 17
ENDBRANCH 1 14
TORSDOF 12
ENDMDL
MODEL 20
REMARK VINA RESULT:      -8.6     14.386     18.060
ROOT
ATOM      1  C1  GAD B   1       9.835  48.591  83.1420  0.00  0.00     0.000 C
ATOM      2  C2  GAD B   1      10.258  50.052  82.9560  0.00  0.00     0.000 C
ATOM      3  C3  GAD B   1       9.905  50.866  84.2070  0.00  0.00     0.000 C
ATOM      4  C4  GAD B   1       8.650  50.387  84.9430  0.00  0.00     0.000 C
ATOM      5  C5  GAD B   1       7.977  49.259  84.6420  0.00  0.00     0.000 C
ATOM      6  O5  GAD B   1       8.454  48.487  83.5230  0.00  0.00     0.000 O
ATOM      7   O  GAD B   1      11.683  50.156  82.5890  0.00  0.00     0.000 O
ATOM      9  HD  GAD B   1      11.560  49.313  82.4340  0.00  0.00     0.000 HD
ATOM      9   O  GAD B   1       9.676  52.257  83.8890  0.00  0.00     0.000 O
ATOM     11  HD  GAD B   1       9.554  51.414  83.7340  0.00  0.00     0.000 HD
ENDROOT
BRANCH 5 11
ATOM     11   C  GAD B   1       6.827  48.732  85.4120  0.00  0.00     0.000 C
ATOM     12   O  GAD B   1       5.765  48.481  84.7620  0.00  0.00     0.000 OA
ATOM     13   O  GAD B   1       6.902  48.621  86.6910  0.00  0.00     0.000 OA
ENDBRANCH 5 11
BRANCH 1 14
ATOM     14  O3  ASG B   2       9.622  47.735  82.1250  0.00  0.00     0.000 O
BRANCH 14 17
ATOM     15  C1  ASG B   2       8.780  44.052  82.0940  0.00  0.00     0.000 C
ATOM     16  C2  ASG B   2       9.687  45.289  82.1470  0.00  0.00     0.000 C
ATOM     17  C3  ASG B   2       8.820  46.550  82.0760  0.00  0.00     0.000 C
ATOM     18  C4  ASG B   2       7.999  46.543  80.8000  0.00  0.00     0.000 C
ATOM     19  C5  ASG B   2       7.207  45.241  80.7240  0.00  0.00     0.000 C
ATOM     20  O5  ASG B   2       8.096  44.114  80.8560  0.00  0.00     0.000 O
ATOM     21   C  ASG B   2       6.495  45.071  79.4210  0.00  0.00     0.000 C
ATOM     22   O  ASG B   2       5.971  43.769  79.3420  0.00  0.00     0.000 O
ATOM     24  HD  ASG B   2       5.594  43.010  79.1600  0.00  0.00     0.000 HD
BRANCH 16 26
ATOM     24   N  ASG B   2      10.603  45.284  83.2640  0.00  0.00     0.000 N
ATOM     26  HD  ASG B   2      10.310  44.553  82.9030  0.00  0.00     0.000 HD
ATOM     26   C  ASG B   2      11.828  45.839  83.2360  0.00  0.00     0.000 C
ATOM     27   C  ASG B   2      12.487  46.041  84.5570  0.00  0.00     0.000 C
ATOM     28   O  ASG B   2      12.367  46.158  82.1830  0.00  0.00     0.000 OA
ENDBRANCH 16 26
BRANCH 18 29
ATOM     29   O  ASG B   2       8.950  46.697  79.6910  0.00  0.00     0.000 O
ATOM     30   O  ASG B   2       7.432  48.049  78.3100  0.00  0.00     0.000 OA
ATOM     31   O  ASG B   2       9.311  49.101  79.4300  0.00  0.00     0.000 OA
ATOM     32   O  ASG B   2       9.695  47.597  77.5770  0.00  0.00     0.000 OA
ATOM     33   S  ASG B   2       8.827  47.954  78.6980  0.00  0.00     0.000 S
ENDBRANCH 18 29
BRANCH 15 34
ATOM     34  O4  ASG B   3       9.477  42.841  82.1590  0.00  0.00     0.000 O
BRANCH 34 38
ATOM     35  C1  GCT B   3       9.732  38.838  81.6330  0.00  0.00     0.000 C
ATOM     36  C2  GCT B   3       9.752  39.631  80.3440  0.00  0.00     0.000 C
ATOM     37  C3  GCT B   3      10.092  41.090  80.6110  0.00  0.00     0.000 C
ATOM     38  C4  GCT B   3       9.043  41.687  81.5580  0.00  0.00     0.000 C
ATOM     39  C5  GCT B   3       8.525  40.648  82.5780  0.00  0.00     0.000 C
ATOM     40  O5  GCT B   3       9.563  39.700  82.7530  0.00  0.00     0.000 O
ATOM     41   O  GCT B   3      10.745  39.036  79.5210  0.00  0.00     0.000 O
ATOM     43  HD  GCT B   3      10.750  38.311  79.0480  0.00  0.00     0.000 HD
ATOM     43   O  GCT B   3      10.166  41.783  79.3480  0.00  0.00     0.000 O
ATOM     45  HD  GCT B   3      10.170  41.058  78.8740  0.00  0.00     0.000 HD
BRANCH 39 45
ATOM     45   C  GCT B   3       7.232  39.923  82.2730  0.00  0.00     0.000 C
ATOM     46   O  GCT B   3       6.743  39.123  83.1330  0.00  0.00     0.000 OA
ATOM     47   O  GCT B   3       6.684  40.152  81.1820  0.00  0.00     0.000 OA
ENDBRANCH 39 45
BRANCH 35 48
ATOM     48  O3  ASG B   4       9.186  37.662  81.4120  0.00  0.00     0.000 O
BRANCH 48 51
ATOM     49  C1  ASG B   4      10.802  34.854  83.1990  0.00  0.00     0.000 C
ATOM     50  C2  ASG B   4      10.583  35.981  82.1760  0.00  0.00     0.000 C
ATOM     51  C3  ASG B   4       9.379  36.841  82.5510  0.00  0.00     0.000 C
ATOM     52  C4  ASG B   4       8.158  35.984  82.8410  0.00  0.00     0.000 C
ATOM     53  C5  ASG B   4       8.541  34.956  83.9020  0.00  0.00     0.000 C
ATOM     54  O5  ASG B   4       9.602  34.124  83.3920  0.00  0.00     0.000 O
BRANCH 50 57
ATOM     55   N  ASG B   4      11.870  36.634  82.2330  0.00  0.00     0.000 N
ATOM     57  HD  ASG B   4      12.327  36.024  81.8220  0.00  0.00     0.000 HD
ATOM     57   O  ASG B   4      12.674  35.637  80.3960  0.00  0.00     0.000 OA
ATOM     58   C  ASG B   4      12.787  36.489  81.2720  0.00  0.00     0.000 C
ATOM     59   C  ASG B   4      13.976  37.395  81.3690  0.00  0.00     0.000 C
ENDBRANCH 50 57
BRANCH 52 60
ATOM     60   O  ASG B   4       7.817  35.406  81.5150  0.00  0.00     0.000 O
ATOM     61   O  ASG B   4       5.739  36.773  81.3100  0.00  0.00     0.000 OA
ATOM     62   O  ASG B   4       6.442  35.405  79.4920  0.00  0.00     0.000 OA
ATOM     63   O  ASG B   4       5.776  34.369  81.5420  0.00  0.00     0.000 OA
ATOM     64   S  ASG B   4       6.347  35.553  80.8940  0.00  0.00     0.000 S
ENDBRANCH 52 60
ATOM     65   O  ASG B   4       7.741  33.369  85.5520  0.00  0.00     0.000 O
ATOM     67  HD  ASG B   4       8.302  32.777  85.2590  0.00  0.00     0.000 HD
ATOM     67   O  ASG B   4       7.741  33.369  85.5520  0.00  0.00     0.000 O
ATOM     69  HD  ASG B   4       8.302  32.777  85.2590  0.00  0.00     0.000 HD
ENDBRANCH 48 51
ENDBRANCH 35 48
ENDBRANCH 34 38
ENDBRANCH 15 34
ENDBRANCH 14 17
ENDBRANCH 1 14
TORSDOF 12
ENDMDL
MODEL 21
REMARK VINA RESULT:      -8.5     17.128     20.860
ROOT
ATOM      1  C1  GAD B   1      11.047  44.174  81.1150  0.00  0.00     0.000 C
ATOM      2  C2  GAD B   1      10.412  43.237  82.1460  0.00  0.00     0.000 C
ATOM      3  C3  GAD B   1      10.808  41.785  81.8530  0.00  0.00     0.000 C
ATOM      4  C4  GAD B   1      11.012  41.470  80.3690  0.00  0.00     0.000 C
ATOM      5  C5  GAD B   1      11.010  42.396  79.3890  0.00  0.00     0.000 C
ATOM      6  O5  GAD B   1      10.750  43.760  79.7730  0.00  0.00     0.000 O
ATOM      7   O  GAD B   1      10.739  43.652  83.5240  0.00  0.00     0.000 O
ATOM      9  HD  GAD B   1      10.964  44.375  83.1030  0.00  0.00     0.000 HD
ATOM      9   O  GAD B   1       9.807  40.855  82.3250  0.00  0.00     0.000 O
ATOM     11  HD  GAD B   1      10.032  41.578  81.9040  0.00  0.00     0.000 HD
ENDROOT
BRANCH 5 11
ATOM     11   C  GAD B   1      11.311  42.118  77.9650  0.00  0.00     0.000 C
ATOM     12   O  GAD B   1      12.414  41.540  77.7130  0.00  0.00     0.000 OA
ATOM     13   O  GAD B   1      10.514  42.528  77.0440  0.00  0.00     0.000 OA
ENDBRANCH 5 11
BRANCH 1 14
ATOM     14  O3  ASG B   2      10.587  45.409  80.8380  0.00  0.00     0.000 O
BRANCH 14 17
ATOM     15  C1  ASG B   2       9.635  47.598  77.9090  0.00  0.00     0.000 C
ATOM     16  C2  ASG B   2      10.470  47.141  79.1130  0.00  0.00     0.000 C
ATOM     17  C3  ASG B   2       9.840  45.879  79.7100  0.00  0.00     0.000 C
ATOM     18  C4  ASG B   2       8.409  46.162  80.1280  0.00  0.00     0.000 C
ATOM     19  C5  ASG B   2       7.646  46.732  78.9360  0.00  0.00     0.000 C
ATOM     20  O5  ASG B   2       8.340  47.879  78.4080  0.00  0.00     0.000 O
ATOM     21   C  ASG B   2       6.271  47.196  79.2980  0.00  0.00     0.000 C
ATOM     22   O  ASG B   2       5.715  47.896  78.2120  0.00  0.00     0.000 O
ATOM     24  HD  ASG B   2       5.252  48.342  77.6330  0.00  0.00     0.000 HD
BRANCH 16 26
ATOM     24   N  ASG B   2      11.871  46.907  78.8480  0.00  0.00     0.000 N
ATOM     26  HD  ASG B   2      11.385  47.421  78.3480  0.00  0.00     0.000 HD
ATOM     26   C  ASG B   2      12.860  47.212  79.7080  0.00  0.00     0.000 C
ATOM     27   C  ASG B   2      14.188  46.598  79.4230  0.00  0.00     0.000 C
ATOM     28   O  ASG B   2      12.676  47.952  80.6660  0.00  0.00     0.000 OA
ENDBRANCH 16 26
BRANCH 18 29
ATOM     29   O  ASG B   2       8.483  47.097  81.2580  0.00  0.00     0.000 O
ATOM     30   O  ASG B   2       6.432  46.273  82.3350  0.00  0.00     0.000 OA
ATOM     31   O  ASG B   2       8.601  45.721  83.2760  0.00  0.00     0.000 OA
ATOM     32   O  ASG B   2       7.775  47.991  83.3880  0.00  0.00     0.000 OA
ATOM     33   S  ASG B   2       7.773  46.727  82.6520  0.00  0.00     0.000 S
ENDBRANCH 18 29
BRANCH 15 34
ATOM     34  O4  ASG B   3      10.131  48.747  77.2840  0.00  0.00     0.000 O
BRANCH 34 38
ATOM     35  C1  GCT B   3       9.066  51.507  74.5250  0.00  0.00     0.000 C
ATOM     36  C2  GCT B   3       9.326  52.081  75.9010  0.00  0.00     0.000 C
ATOM     37  C3  GCT B   3      10.124  51.104  76.7530  0.00  0.00     0.000 C
ATOM     38  C4  GCT B   3       9.338  49.794  76.8890  0.00  0.00     0.000 C
ATOM     39  C5  GCT B   3       8.524  49.472  75.6160  0.00  0.00     0.000 C
ATOM     40  O5  GCT B   3       9.201  50.090  74.5360  0.00  0.00     0.000 O
ATOM     41   O  GCT B   3      10.061  53.280  75.7070  0.00  0.00     0.000 O
ATOM     43  HD  GCT B   3       9.824  54.071  75.4470  0.00  0.00     0.000 HD
ATOM     43   O  GCT B   3      10.403  51.725  78.0260  0.00  0.00     0.000 O
ATOM     45  HD  GCT B   3      10.165  52.517  77.7660  0.00  0.00     0.000 HD
BRANCH 39 45
ATOM     45   C  GCT B   3       7.062  49.861  75.5780  0.00  0.00     0.000 C
ATOM     46   O  GCT B   3       6.363  49.574  74.5560  0.00  0.00     0.000 OA
ATOM     47   O  GCT B   3       6.593  50.442  76.5710  0.00  0.00     0.000 OA
ENDBRANCH 39 45
BRANCH 35 48
ATOM     48  O3  ASG B   4       8.165  52.243  73.9110  0.00  0.00     0.000 O
BRANCH 48 51
ATOM     49  C1  ASG B   4       8.497  53.608  70.4880  0.00  0.00     0.000 C
ATOM     50  C2  ASG B   4       8.536  53.532  72.0240  0.00  0.00     0.000 C
ATOM     51  C3  ASG B   4       8.330  52.100  72.5100  0.00  0.00     0.000 C
ATOM     52  C4  ASG B   4       7.109  51.468  71.8620  0.00  0.00     0.000 C
ATOM     53  C5  ASG B   4       7.257  51.594  70.3480  0.00  0.00     0.000 C
ATOM     54  O5  ASG B   4       7.321  52.989  69.9940  0.00  0.00     0.000 O
BRANCH 50 57
ATOM     55   N  ASG B   4       7.812  54.297  73.0130  0.00  0.00     0.000 N
ATOM     57  HD  ASG B   4       8.457  54.829  73.2400  0.00  0.00     0.000 HD
ATOM     57   O  ASG B   4       9.057  56.144  72.7760  0.00  0.00     0.000 OA
ATOM     58   C  ASG B   4       8.065  55.590  73.2400  0.00  0.00     0.000 C
ATOM     59   C  ASG B   4       7.092  56.292  74.1360  0.00  0.00     0.000 C
ENDBRANCH 50 57
BRANCH 52 60
ATOM     60   O  ASG B   4       5.974  52.236  72.4370  0.00  0.00     0.000 O
ATOM     61   O  ASG B   4       4.398  50.312  72.2250  0.00  0.00     0.000 OA
ATOM     62   O  ASG B   4       3.689  52.310  73.3080  0.00  0.00     0.000 OA
ATOM     63   O  ASG B   4       4.215  52.372  70.9760  0.00  0.00     0.000 OA
ATOM     64   S  ASG B   4       4.460  51.734  72.2730  0.00  0.00     0.000 S
ENDBRANCH 52 60
ATOM     65   O  ASG B   4       6.508  50.813  68.1780  0.00  0.00     0.000 O
ATOM     67  HD  ASG B   4       6.447  51.631  67.9010  0.00  0.00     0.000 HD
ATOM     67   O  ASG B   4       6.508  50.813  68.1780  0.00  0.00     0.000 O
ATOM     69  HD  ASG B   4       6.447  51.631  67.9010  0.00  0.00     0.000 HD
ENDBRANCH 48 51
ENDBRANCH 35 48
ENDBRANCH 34 38
ENDBRANCH 15 34
ENDBRANCH 14 17
ENDBRANCH 1 14
TORSDOF 12
ENDMDL
MODEL 22
REMARK VINA RESULT:      -8.5      3.307      5.340
ROOT
ATOM      1  C1  GAD B   1      -0.350  36.946  79.9580  0.00  0.00     0.000 C
ATOM      2  C2  GAD B   1      -0.472  36.064  81.2040  0.00  0.00     0.000 C
ATOM      3  C3  GAD B   1       0.432  36.601  82.3200  0.00  0.00     0.000 C
ATOM      4  C4  GAD B   1       1.714  37.278  81.8280  0.00  0.00     0.000 C
ATOM      5  C5  GAD B   1       1.986  37.540  80.5340  0.00  0.00     0.000 C
ATOM      6  O5  GAD B   1       1.019  37.108  79.5580  0.00  0.00     0.000 O
ATOM      7   O  GAD B   1      -1.878  35.920  81.6260  0.00  0.00     0.000 O
ATOM      9  HD  GAD B   1      -2.003  36.231  80.8280  0.00  0.00     0.000 HD
ATOM      9   O  GAD B   1       0.853  35.548  83.2160  0.00  0.00     0.000 O
ATOM     11  HD  GAD B   1       0.728  35.859  82.4170  0.00  0.00     0.000 HD
ENDROOT
BRANCH 5 11
ATOM     11   C  GAD B   1       3.172  38.288  80.0570  0.00  0.00     0.000 C
ATOM     12   O  GAD B   1       4.299  37.941  80.5290  0.00  0.00     0.000 OA
ATOM     13   O  GAD B   1       3.028  39.291  79.2640  0.00  0.00     0.000 OA
ENDBRANCH 5 11
BRANCH 1 14
ATOM     14  O3  ASG B   2      -0.668  36.539  78.7150  0.00  0.00     0.000 O
BRANCH 14 17
ATOM     15  C1  ASG B   2      -3.262  34.743  76.6360  0.00  0.00     0.000 C
ATOM     16  C2  ASG B   2      -1.868  35.025  77.2130  0.00  0.00     0.000 C
ATOM     17  C3  ASG B   2      -1.947  36.236  78.1470  0.00  0.00     0.000 C
ATOM     18  C4  ASG B   2      -2.466  37.443  77.3880  0.00  0.00     0.000 C
ATOM     19  C5  ASG B   2      -3.792  37.083  76.7260  0.00  0.00     0.000 C
ATOM     20  O5  ASG B   2      -3.634  35.902  75.9140  0.00  0.00     0.000 O
ATOM     21   C  ASG B   2      -4.298  38.158  75.8190  0.00  0.00     0.000 C
ATOM     22   O  ASG B   2      -5.398  37.673  75.0890  0.00  0.00     0.000 O
ATOM     24  HD  ASG B   2      -6.080  37.513  74.5790  0.00  0.00     0.000 HD
BRANCH 16 26
ATOM     24   N  ASG B   2      -0.516  34.547  77.0360  0.00  0.00     0.000 N
ATOM     26  HD  ASG B   2      -0.696  35.383  77.1700  0.00  0.00     0.000 HD
ATOM     26   C  ASG B   2       0.075  33.644  77.8400  0.00  0.00     0.000 C
ATOM     27   C  ASG B   2       1.323  33.019  77.3190  0.00  0.00     0.000 C
ATOM     28   O  ASG B   2      -0.391  33.356  78.9360  0.00  0.00     0.000 OA
ENDBRANCH 16 26
BRANCH 18 29
ATOM     29   O  ASG B   2      -1.424  37.804  76.4170  0.00  0.00     0.000 O
ATOM     30   O  ASG B   2      -1.967  40.202  76.4230  0.00  0.00     0.000 OA
ATOM     31   O  ASG B   2       0.034  39.410  77.5460  0.00  0.00     0.000 OA
ATOM     32   O  ASG B   2      -0.097  39.362  75.1330  0.00  0.00     0.000 OA
ATOM     33   S  ASG B   2      -0.832  39.298  76.3960  0.00  0.00     0.000 S
ENDBRANCH 18 29
BRANCH 15 34
ATOM     34  O4  ASG B   3      -3.300  33.646  75.7690  0.00  0.00     0.000 O
BRANCH 34 38
ATOM     35  C1  GCT B   3      -6.911  32.298  76.9950  0.00  0.00     0.000 C
ATOM     36  C2  GCT B   3      -5.753  31.417  77.4080  0.00  0.00     0.000 C
ATOM     37  C3  GCT B   3      -4.435  32.173  77.3100  0.00  0.00     0.000 C
ATOM     38  C4  GCT B   3      -4.228  32.640  75.8650  0.00  0.00     0.000 C
ATOM     39  C5  GCT B   3      -5.563  33.000  75.1740  0.00  0.00     0.000 C
ATOM     40  O5  GCT B   3      -6.457  33.389  76.2010  0.00  0.00     0.000 O
ATOM     41   O  GCT B   3      -6.000  31.028  78.7510  0.00  0.00     0.000 O
ATOM     43  HD  GCT B   3      -6.537  30.444  79.0980  0.00  0.00     0.000 HD
ATOM     43   O  GCT B   3      -3.376  31.313  77.7790  0.00  0.00     0.000 O
ATOM     45  HD  GCT B   3      -3.913  30.728  78.1260  0.00  0.00     0.000 HD
BRANCH 39 45
ATOM     45   C  GCT B   3      -6.226  31.956  74.3030  0.00  0.00     0.000 C
ATOM     46   O  GCT B   3      -5.686  30.812  74.1720  0.00  0.00     0.000 OA
ATOM     47   O  GCT B   3      -7.297  32.258  73.7520  0.00  0.00     0.000 OA
ENDBRANCH 39 45
BRANCH 35 48
ATOM     48  O3  ASG B   4      -7.986  31.557  76.8350  0.00  0.00     0.000 O
BRANCH 48 51
ATOM     49  C1  ASG B   4     -10.924  32.784  78.7210  0.00  0.00     0.000 C
ATOM     50  C2  ASG B   4      -9.548  32.159  78.4350  0.00  0.00     0.000 C
ATOM     51  C3  ASG B   4      -9.136  32.373  76.9810  0.00  0.00     0.000 C
ATOM     52  C4  ASG B   4     -10.244  31.959  76.0280  0.00  0.00     0.000 C
ATOM     53  C5  ASG B   4     -11.516  32.701  76.4270  0.00  0.00     0.000 C
ATOM     54  O5  ASG B   4     -11.877  32.330  77.7720  0.00  0.00     0.000 O
BRANCH 50 57
ATOM     55   N  ASG B   4      -9.032  32.922  79.5480  0.00  0.00     0.000 N
ATOM     57  HD  ASG B   4      -9.290  32.390  80.1810  0.00  0.00     0.000 HD
ATOM     57   O  ASG B   4      -8.786  31.151  80.8970  0.00  0.00     0.000 OA
ATOM     58   C  ASG B   4      -8.589  32.340  80.6670  0.00  0.00     0.000 C
ATOM     59   C  ASG B   4      -7.890  33.245  81.6340  0.00  0.00     0.000 C
ENDBRANCH 50 57
BRANCH 52 60
ATOM     60   O  ASG B   4     -10.312  30.484  76.1940  0.00  0.00     0.000 O
ATOM     61   O  ASG B   4     -10.166  30.071  73.7360  0.00  0.00     0.000 OA
ATOM     62   O  ASG B   4     -10.143  28.233  75.2500  0.00  0.00     0.000 OA
ATOM     63   O  ASG B   4     -12.108  29.587  75.0900  0.00  0.00     0.000 OA
ATOM     64   S  ASG B   4     -10.649  29.520  74.9580  0.00  0.00     0.000 S
ENDBRANCH 52 60
ATOM     65   O  ASG B   4     -13.737  33.403  75.7520  0.00  0.00     0.000 O
ATOM     67  HD  ASG B   4     -14.056  33.138  76.5130  0.00  0.00     0.000 HD
ATOM     67   O  ASG B   4     -13.737  33.403  75.7520  0.00  0.00     0.000 O
ATOM     69  HD  ASG B   4     -14.056  33.138  76.5130  0.00  0.00     0.000 HD
ENDBRANCH 48 51
ENDBRANCH 35 48
ENDBRANCH 34 38
ENDBRANCH 15 34
ENDBRANCH 14 17
ENDBRANCH 1 14
TORSDOF 12
ENDMDL
MODEL 23
REMARK VINA RESULT:      -8.5      3.821     11.849
ROOT
ATOM      1  C1  GAD B   1     -12.079  31.855  82.5280  0.00  0.00     0.000 C
ATOM      2  C2  GAD B   1     -12.396  32.812  83.6800  0.00  0.00     0.000 C
ATOM      3  C3  GAD B   1     -13.909  33.045  83.7700  0.00  0.00     0.000 C
ATOM      4  C4  GAD B   1     -14.640  32.995  82.4250  0.00  0.00     0.000 C
ATOM      5  C5  GAD B   1     -14.067  32.624  81.2630  0.00  0.00     0.000 C
ATOM      6  O5  GAD B   1     -12.664  32.302  81.2950  0.00  0.00     0.000 O
ATOM      7   O  GAD B   1     -11.815  32.337  84.9500  0.00  0.00     0.000 O
ATOM      9  HD  GAD B   1     -11.371  31.839  84.3980  0.00  0.00     0.000 HD
ATOM      9   O  GAD B   1     -14.215  34.336  84.3430  0.00  0.00     0.000 O
ATOM     11  HD  GAD B   1     -13.771  33.838  83.7910  0.00  0.00     0.000 HD
ENDROOT
BRANCH 5 11
ATOM     11   C  GAD B   1     -14.789  32.469  79.9790  0.00  0.00     0.000 C
ATOM     12   O  GAD B   1     -14.828  33.484  79.2150  0.00  0.00     0.000 OA
ATOM     13   O  GAD B   1     -15.407  31.373  79.7130  0.00  0.00     0.000 OA
ENDBRANCH 5 11
BRANCH 1 14
ATOM     14  O3  ASG B   2     -10.876  31.771  81.9300  0.00  0.00     0.000 O
BRANCH 14 17
ATOM     15  C1  ASG B   2      -7.367  33.153  82.1750  0.00  0.00     0.000 C
ATOM     16  C2  ASG B   2      -8.755  32.935  81.5570  0.00  0.00     0.000 C
ATOM     17  C3  ASG B   2      -9.567  32.005  82.4630  0.00  0.00     0.000 C
ATOM     18  C4  ASG B   2      -8.842  30.683  82.6320  0.00  0.00     0.000 C
ATOM     19  C5  ASG B   2      -7.425  30.951  83.1290  0.00  0.00     0.000 C
ATOM     20  O5  ASG B   2      -6.760  31.877  82.2470  0.00  0.00     0.000 O
ATOM     21   C  ASG B   2      -6.581  29.718  83.1660  0.00  0.00     0.000 C
ATOM     22   O  ASG B   2      -5.246  30.075  83.4250  0.00  0.00     0.000 O
ATOM     24  HD  ASG B   2      -4.397  30.146  83.5790  0.00  0.00     0.000 HD
BRANCH 16 26
ATOM     24   N  ASG B   2      -9.463  33.254  80.3380  0.00  0.00     0.000 N
ATOM     26  HD  ASG B   2      -9.570  32.500  80.7510  0.00  0.00     0.000 HD
ATOM     26   C  ASG B   2     -10.299  34.299  80.2050  0.00  0.00     0.000 C
ATOM     27   C  ASG B   2     -10.665  34.673  78.8090  0.00  0.00     0.000 C
ATOM     28   O  ASG B   2     -10.732  34.906  81.1770  0.00  0.00     0.000 OA
ENDBRANCH 16 26
BRANCH 18 29
ATOM     29   O  ASG B   2      -8.870  30.022  81.3200  0.00  0.00     0.000 O
ATOM     30   O  ASG B   2      -8.994  27.747  82.2430  0.00  0.00     0.000 OA
ATOM     31   O  ASG B   2     -10.960  28.755  81.2380  0.00  0.00     0.000 OA
ATOM     32   O  ASG B   2      -9.086  28.115  79.8510  0.00  0.00     0.000 OA
ATOM     33   S  ASG B   2      -9.530  28.564  81.1710  0.00  0.00     0.000 S
ENDBRANCH 18 29
BRANCH 15 34
ATOM     34  O4  ASG B   3      -6.544  33.998  81.4230  0.00  0.00     0.000 O
BRANCH 34 38
ATOM     35  C1  GCT B   3      -2.793  35.076  80.3600  0.00  0.00     0.000 C
ATOM     36  C2  GCT B   3      -3.455  34.118  79.3950  0.00  0.00     0.000 C
ATOM     37  C3  GCT B   3      -4.963  34.098  79.5990  0.00  0.00     0.000 C
ATOM     38  C4  GCT B   3      -5.271  33.663  81.0370  0.00  0.00     0.000 C
ATOM     39  C5  GCT B   3      -4.200  34.160  82.0350  0.00  0.00     0.000 C
ATOM     40  O5  GCT B   3      -3.640  35.334  81.4750  0.00  0.00     0.000 O
ATOM     41   O  GCT B   3      -3.141  34.580  78.0890  0.00  0.00     0.000 O
ATOM     43  HD  GCT B   3      -2.420  34.526  77.6110  0.00  0.00     0.000 HD
ATOM     43   O  GCT B   3      -5.549  33.225  78.6110  0.00  0.00     0.000 O
ATOM     45  HD  GCT B   3      -4.829  33.171  78.1340  0.00  0.00     0.000 HD
BRANCH 39 45
ATOM     45   C  GCT B   3      -3.088  33.213  82.4280  0.00  0.00     0.000 C
ATOM     46   O  GCT B   3      -3.096  32.020  81.9890  0.00  0.00     0.000 OA
ATOM     47   O  GCT B   3      -2.190  33.650  83.1660  0.00  0.00     0.000 OA
ENDBRANCH 39 45
BRANCH 35 48
ATOM     48  O3  ASG B   4      -1.492  34.880  80.3450  0.00  0.00     0.000 O
BRANCH 48 51
ATOM     49  C1  ASG B   4       0.439  37.863  79.3120  0.00  0.00     0.000 C
ATOM     50  C2  ASG B   4      -0.492  36.642  79.2240  0.00  0.00     0.000 C
ATOM     51  C3  ASG B   4      -0.837  36.109  80.6110  0.00  0.00     0.000 C
ATOM     52  C4  ASG B   4       0.414  35.908  81.4510  0.00  0.00     0.000 C
ATOM     53  C5  ASG B   4       1.190  37.222  81.4670  0.00  0.00     0.000 C
ATOM     54  O5  ASG B   4       1.567  37.564  80.1180  0.00  0.00     0.000 O
BRANCH 50 57
ATOM     55   N  ASG B   4       0.119  35.665  78.3520  0.00  0.00     0.000 N
ATOM     57  HD  ASG B   4      -0.511  35.630  77.7590  0.00  0.00     0.000 HD
ATOM     57   O  ASG B   4      -0.927  36.374  76.5040  0.00  0.00     0.000 OA
ATOM     58   C  ASG B   4      -0.068  35.672  77.0290  0.00  0.00     0.000 C
ATOM     59   C  ASG B   4       0.799  34.735  76.2470  0.00  0.00     0.000 C
ENDBRANCH 50 57
BRANCH 52 60
ATOM     60   O  ASG B   4       1.112  34.786  80.7710  0.00  0.00     0.000 O
ATOM     61   O  ASG B   4       1.450  33.535  82.9050  0.00  0.00     0.000 OA
ATOM     62   O  ASG B   4       2.074  32.538  80.8340  0.00  0.00     0.000 OA
ATOM     63   O  ASG B   4       3.233  34.491  81.5840  0.00  0.00     0.000 OA
ATOM     64   S  ASG B   4       1.983  33.724  81.5970  0.00  0.00     0.000 S
ENDBRANCH 52 60
ATOM     65   O  ASG B   4       2.920  38.528  82.5550  0.00  0.00     0.000 O
ATOM     67  HD  ASG B   4       3.260  38.726  81.7830  0.00  0.00     0.000 HD
ATOM     67   O  ASG B   4       2.920  38.528  82.5550  0.00  0.00     0.000 O
ATOM     69  HD  ASG B   4       3.260  38.726  81.7830  0.00  0.00     0.000 HD
ENDBRANCH 48 51
ENDBRANCH 35 48
ENDBRANCH 34 38
ENDBRANCH 15 34
ENDBRANCH 14 17
ENDBRANCH 1 14
TORSDOF 12
ENDMDL
MODEL 24
REMARK VINA RESULT:      -8.5     29.195     34.573
ROOT
ATOM      1  C1  GAD B   1      21.739  26.532  53.2340  0.00  0.00     0.000 C
ATOM      2  C2  GAD B   1      23.163  26.035  53.5020  0.00  0.00     0.000 C
ATOM      3  C3  GAD B   1      23.712  25.317  52.2640  0.00  0.00     0.000 C
ATOM      4  C4  GAD B   1      22.654  24.585  51.4330  0.00  0.00     0.000 C
ATOM      5  C5  GAD B   1      21.326  24.673  51.6470  0.00  0.00     0.000 C
ATOM      6  O5  GAD B   1      20.891  25.474  52.7630  0.00  0.00     0.000 O
ATOM      7   O  GAD B   1      24.037  27.131  53.9620  0.00  0.00     0.000 O
ATOM      9  HD  GAD B   1      23.266  27.510  54.0760  0.00  0.00     0.000 HD
ATOM      9   O  GAD B   1      24.698  24.322  52.6210  0.00  0.00     0.000 O
ATOM     11  HD  GAD B   1      23.928  24.701  52.7350  0.00  0.00     0.000 HD
ENDROOT
BRANCH 5 11
ATOM     11   C  GAD B   1      20.290  24.057  50.7860  0.00  0.00     0.000 C
ATOM     12   O  GAD B   1      20.317  22.792  50.6700  0.00  0.00     0.000 OA
ATOM     13   O  GAD B   1      19.467  24.799  50.1340  0.00  0.00     0.000 OA
ENDBRANCH 5 11
BRANCH 1 14
ATOM     14  O3  ASG B   2      20.848  26.819  54.2010  0.00  0.00     0.000 O
BRANCH 14 17
ATOM     15  C1  ASG B   2      20.131  26.971  57.9080  0.00  0.00     0.000 C
ATOM     16  C2  ASG B   2      19.852  26.661  56.4310  0.00  0.00     0.000 C
ATOM     17  C3  ASG B   2      21.058  27.092  55.5920  0.00  0.00     0.000 C
ATOM     18  C4  ASG B   2      21.322  28.573  55.7860  0.00  0.00     0.000 C
ATOM     19  C5  ASG B   2      21.470  28.861  57.2770  0.00  0.00     0.000 C
ATOM     20  O5  ASG B   2      20.317  28.372  57.9900  0.00  0.00     0.000 O
ATOM     21   C  ASG B   2      21.568  30.322  57.5770  0.00  0.00     0.000 C
ATOM     22   O  ASG B   2      21.486  30.519  58.9670  0.00  0.00     0.000 O
ATOM     24  HD  ASG B   2      21.452  30.786  59.7900  0.00  0.00     0.000 HD
BRANCH 16 26
ATOM     24   N  ASG B   2      19.562  25.288  56.0880  0.00  0.00     0.000 N
ATOM     26  HD  ASG B   2      19.498  25.585  56.8990  0.00  0.00     0.000 HD
ATOM     26   C  ASG B   2      18.604  24.915  55.2190  0.00  0.00     0.000 C
ATOM     27   C  ASG B   2      18.672  23.509  54.7310  0.00  0.00     0.000 C
ATOM     28   O  ASG B   2      17.729  25.690  54.8540  0.00  0.00     0.000 OA
ENDBRANCH 16 26
BRANCH 18 29
ATOM     29   O  ASG B   2      20.188  29.282  55.1780  0.00  0.00     0.000 O
ATOM     30   O  ASG B   2      21.456  31.340  54.7280  0.00  0.00     0.000 OA
ATOM     31   O  ASG B   2      20.879  29.848  52.9020  0.00  0.00     0.000 OA
ATOM     32   O  ASG B   2      19.153  31.126  54.0110  0.00  0.00     0.000 OA
ATOM     33   S  ASG B   2      20.456  30.473  54.1330  0.00  0.00     0.000 S
ENDBRANCH 18 29
BRANCH 15 34
ATOM     34  O4  ASG B   3      19.087  26.608  58.7660  0.00  0.00     0.000 O
BRANCH 34 38
ATOM     35  C1  GCT B   3      20.314  28.590  62.0720  0.00  0.00     0.000 C
ATOM     36  C2  GCT B   3      20.675  27.121  62.0650  0.00  0.00     0.000 C
ATOM     37  C3  GCT B   3      20.587  26.548  60.6580  0.00  0.00     0.000 C
ATOM     38  C4  GCT B   3      19.158  26.721  60.1310  0.00  0.00     0.000 C
ATOM     39  C5  GCT B   3      18.502  28.020  60.6520  0.00  0.00     0.000 C
ATOM     40  O5  GCT B   3      19.556  28.929  60.9150  0.00  0.00     0.000 O
ATOM     41   O  GCT B   3      22.007  27.030  62.5520  0.00  0.00     0.000 O
ATOM     43  HD  GCT B   3      22.338  27.084  63.3500  0.00  0.00     0.000 HD
ATOM     43   O  GCT B   3      21.007  25.167  60.6960  0.00  0.00     0.000 O
ATOM     45  HD  GCT B   3      21.339  25.221  61.4950  0.00  0.00     0.000 HD
BRANCH 39 45
ATOM     45   C  GCT B   3      17.601  27.935  61.8650  0.00  0.00     0.000 C
ATOM     46   O  GCT B   3      17.085  28.995  62.3390  0.00  0.00     0.000 OA
ATOM     47   O  GCT B   3      17.387  26.811  62.3480  0.00  0.00     0.000 OA
ENDBRANCH 39 45
BRANCH 35 48
ATOM     48  O3  ASG B   4      20.142  28.990  63.3130  0.00  0.00     0.000 O
BRANCH 48 51
ATOM     49  C1  ASG B   4      21.757  32.296  63.7040  0.00  0.00     0.000 C
ATOM     50  C2  ASG B   4      21.590  30.793  63.4230  0.00  0.00     0.000 C
ATOM     51  C3  ASG B   4      20.116  30.407  63.3420  0.00  0.00     0.000 C
ATOM     52  C4  ASG B   4      19.343  30.930  64.5410  0.00  0.00     0.000 C
ATOM     53  C5  ASG B   4      19.585  32.434  64.6430  0.00  0.00     0.000 C
ATOM     54  O5  ASG B   4      20.993  32.672  64.8380  0.00  0.00     0.000 O
BRANCH 50 57
ATOM     55   N  ASG B   4      22.474  31.027  62.3050  0.00  0.00     0.000 N
ATOM     57  HD  ASG B   4      23.223  30.973  62.7360  0.00  0.00     0.000 HD
ATOM     57   O  ASG B   4      24.198  29.900  63.1820  0.00  0.00     0.000 OA
ATOM     58   C  ASG B   4      23.686  30.469  62.2240  0.00  0.00     0.000 C
ATOM     59   C  ASG B   4      24.388  30.634  60.9110  0.00  0.00     0.000 C
ENDBRANCH 50 57
BRANCH 52 60
ATOM     60   O  ASG B   4      19.884  30.139  65.6770  0.00  0.00     0.000 O
ATOM     61   O  ASG B   4      17.806  28.773  65.8840  0.00  0.00     0.000 OA
ATOM     62   O  ASG B   4      19.703  28.254  67.2250  0.00  0.00     0.000 OA
ATOM     63   O  ASG B   4      18.581  30.341  67.5490  0.00  0.00     0.000 OA
ATOM     64   S  ASG B   4      18.924  29.264  66.6160  0.00  0.00     0.000 S
ENDBRANCH 52 60
ATOM     65   O  ASG B   4      18.835  34.537  65.5880  0.00  0.00     0.000 O
ATOM     67  HD  ASG B   4      19.650  34.731  65.8100  0.00  0.00     0.000 HD
ATOM     67   O  ASG B   4      18.835  34.537  65.5880  0.00  0.00     0.000 O
ATOM     69  HD  ASG B   4      19.650  34.731  65.8100  0.00  0.00     0.000 HD
ENDBRANCH 48 51
ENDBRANCH 35 48
ENDBRANCH 34 38
ENDBRANCH 15 34
ENDBRANCH 14 17
ENDBRANCH 1 14
TORSDOF 12
ENDMDL
MODEL 25
REMARK VINA RESULT:      -8.5     24.245     28.144
ROOT
ATOM      1  C1  GAD B   1      19.314  30.124  64.8300  0.00  0.00     0.000 C
ATOM      2  C2  GAD B   1      18.763  31.481  64.3800  0.00  0.00     0.000 C
ATOM      3  C3  GAD B   1      19.053  32.545  65.4450  0.00  0.00     0.000 C
ATOM      4  C4  GAD B   1      19.063  32.019  66.8830  0.00  0.00     0.000 C
ATOM      5  C5  GAD B   1      18.987  30.715  67.2150  0.00  0.00     0.000 C
ATOM      6  O5  GAD B   1      18.840  29.770  66.1380  0.00  0.00     0.000 O
ATOM      7   O  GAD B   1      19.272  31.852  63.0460  0.00  0.00     0.000 O
ATOM      9  HD  GAD B   1      19.479  31.011  63.0460  0.00  0.00     0.000 HD
ATOM      9   O  GAD B   1      18.073  33.607  65.4140  0.00  0.00     0.000 O
ATOM     11  HD  GAD B   1      18.279  32.766  65.4140  0.00  0.00     0.000 HD
ENDROOT
BRANCH 5 11
ATOM     11   C  GAD B   1      19.103  30.188  68.5940  0.00  0.00     0.000 C
ATOM     12   O  GAD B   1      19.944  30.755  69.3580  0.00  0.00     0.000 OA
ATOM     13   O  GAD B   1      18.430  29.150  68.9480  0.00  0.00     0.000 OA
ENDBRANCH 5 11
BRANCH 1 14
ATOM     14  O3  ASG B   2      18.883  28.942  64.3510  0.00  0.00     0.000 O
BRANCH 14 17
ATOM     15  C1  ASG B   2      16.829  25.951  65.4080  0.00  0.00     0.000 C
ATOM     16  C2  ASG B   2      18.100  26.726  65.0340  0.00  0.00     0.000 C
ATOM     17  C3  ASG B   2      17.726  28.174  64.7050  0.00  0.00     0.000 C
ATOM     18  C4  ASG B   2      16.726  28.205  63.5650  0.00  0.00     0.000 C
ATOM     19  C5  ASG B   2      15.534  27.323  63.9240  0.00  0.00     0.000 C
ATOM     20  O5  ASG B   2      15.986  26.000  64.2720  0.00  0.00     0.000 O
ATOM     21   C  ASG B   2      14.572  27.160  62.7910  0.00  0.00     0.000 C
ATOM     22   O  ASG B   2      13.624  26.175  63.1220  0.00  0.00     0.000 O
ATOM     24  HD  ASG B   2      12.982  25.599  63.1910  0.00  0.00     0.000 HD
BRANCH 16 26
ATOM     24   N  ASG B   2      19.506  26.501  64.7860  0.00  0.00     0.000 N
ATOM     26  HD  ASG B   2      19.051  27.102  64.3590  0.00  0.00     0.000 HD
ATOM     26   C  ASG B   2      20.466  26.635  65.7190  0.00  0.00     0.000 C
ATOM     27   C  ASG B   2      21.791  26.040  65.3870  0.00  0.00     0.000 C
ATOM     28   O  ASG B   2      20.258  27.214  66.7790  0.00  0.00     0.000 OA
ENDBRANCH 16 26
BRANCH 18 29
ATOM     29   O  ASG B   2      17.441  27.737  62.3700  0.00  0.00     0.000 O
ATOM     30   O  ASG B   2      16.131  29.105  60.8030  0.00  0.00     0.000 OA
ATOM     31   O  ASG B   2      18.416  29.727  61.3350  0.00  0.00     0.000 OA
ATOM     32   O  ASG B   2      17.977  27.750  60.0140  0.00  0.00     0.000 OA
ATOM     33   S  ASG B   2      17.488  28.657  61.0530  0.00  0.00     0.000 S
ENDBRANCH 18 29
BRANCH 15 34
ATOM     34  O4  ASG B   3      17.063  24.611  65.7340  0.00  0.00     0.000 O
BRANCH 34 38
ATOM     35  C1  GCT B   3      17.754  25.209  69.6740  0.00  0.00     0.000 C
ATOM     36  C2  GCT B   3      18.466  24.004  69.1000  0.00  0.00     0.000 C
ATOM     37  C3  GCT B   3      18.526  24.082  67.5810  0.00  0.00     0.000 C
ATOM     38  C4  GCT B   3      17.100  24.143  67.0230  0.00  0.00     0.000 C
ATOM     39  C5  GCT B   3      16.142  24.914  67.9590  0.00  0.00     0.000 C
ATOM     40  O5  GCT B   3      16.940  25.832  68.6860  0.00  0.00     0.000 O
ATOM     41   O  GCT B   3      19.777  24.012  69.6470  0.00  0.00     0.000 O
ATOM     43  HD  GCT B   3      20.083  23.792  70.4270  0.00  0.00     0.000 HD
ATOM     43   O  GCT B   3      19.273  22.949  67.0920  0.00  0.00     0.000 O
ATOM     45  HD  GCT B   3      19.579  22.729  67.8720  0.00  0.00     0.000 HD
BRANCH 39 45
ATOM     45   C  GCT B   3      15.286  24.122  68.9230  0.00  0.00     0.000 C
ATOM     46   O  GCT B   3      15.422  22.860  68.9910  0.00  0.00     0.000 OA
ATOM     47   O  GCT B   3      14.481  24.749  69.6310  0.00  0.00     0.000 OA
ENDBRANCH 39 45
BRANCH 35 48
ATOM     48  O3  ASG B   4      17.484  24.992  70.9440  0.00  0.00     0.000 O
BRANCH 48 51
ATOM     49  C1  ASG B   4      18.366  27.921  73.0240  0.00  0.00     0.000 C
ATOM     50  C2  ASG B   4      18.530  26.702  72.1010  0.00  0.00     0.000 C
ATOM     51  C3  ASG B   4      17.181  26.227  71.5690  0.00  0.00     0.000 C
ATOM     52  C4  ASG B   4      16.175  26.055  72.6950  0.00  0.00     0.000 C
ATOM     53  C5  ASG B   4      16.107  27.365  73.4750  0.00  0.00     0.000 C
ATOM     54  O5  ASG B   4      17.405  27.650  74.0320  0.00  0.00     0.000 O
BRANCH 50 57
ATOM     55   N  ASG B   4      19.466  27.393  71.2440  0.00  0.00     0.000 N
ATOM     57  HD  ASG B   4      20.162  27.324  71.7550  0.00  0.00     0.000 HD
ATOM     57   O  ASG B   4      21.271  26.326  72.0300  0.00  0.00     0.000 OA
ATOM     58   C  ASG B   4      20.763  27.074  71.2010  0.00  0.00     0.000 C
ATOM     59   C  ASG B   4      21.556  27.731  70.1130  0.00  0.00     0.000 C
ENDBRANCH 50 57
BRANCH 52 60
ATOM     60   O  ASG B   4      16.710  24.903  73.4660  0.00  0.00     0.000 O
ATOM     61   O  ASG B   4      14.866  23.389  72.7320  0.00  0.00     0.000 OA
ATOM     62   O  ASG B   4      16.665  22.523  74.0280  0.00  0.00     0.000 OA
ATOM     63   O  ASG B   4      15.197  24.137  75.0050  0.00  0.00     0.000 OA
ATOM     64   S  ASG B   4      15.806  23.616  73.7780  0.00  0.00     0.000 S
ENDBRANCH 52 60
ATOM     65   O  ASG B   4      14.850  28.706  75.0560  0.00  0.00     0.000 O
ATOM     67  HD  ASG B   4      15.576  28.871  75.4980  0.00  0.00     0.000 HD
ATOM     67   O  ASG B   4      14.850  28.706  75.0560  0.00  0.00     0.000 O
ATOM     69  HD  ASG B   4      15.576  28.871  75.4980  0.00  0.00     0.000 HD
ENDBRANCH 48 51
ENDBRANCH 35 48
ENDBRANCH 34 38
ENDBRANCH 15 34
ENDBRANCH 14 17
ENDBRANCH 1 14
TORSDOF 12
ENDMDL
MODEL 26
REMARK VINA RESULT:      -8.5     28.561     33.888
ROOT
ATOM      1  C1  GAD B   1      20.820  29.086  55.6170  0.00  0.00     0.000 C
ATOM      2  C2  GAD B   1      20.489  30.108  56.7090  0.00  0.00     0.000 C
ATOM      3  C3  GAD B   1      20.794  31.527  56.2130  0.00  0.00     0.000 C
ATOM      4  C4  GAD B   1      21.967  31.618  55.2330  0.00  0.00     0.000 C
ATOM      5  C5  GAD B   1      22.599  30.551  54.7040  0.00  0.00     0.000 C
ATOM      6  O5  GAD B   1      22.163  29.247  55.1340  0.00  0.00     0.000 O
ATOM      7   O  GAD B   1      19.101  29.956  57.1850  0.00  0.00     0.000 O
ATOM      9  HD  GAD B   1      19.190  29.201  56.7690  0.00  0.00     0.000 HD
ATOM      9   O  GAD B   1      21.117  32.414  57.3070  0.00  0.00     0.000 O
ATOM     11  HD  GAD B   1      21.207  31.660  56.8910  0.00  0.00     0.000 HD
ENDROOT
BRANCH 5 11
ATOM     11   C  GAD B   1      23.663  30.625  53.6750  0.00  0.00     0.000 C
ATOM     12   O  GAD B   1      24.218  31.754  53.5030  0.00  0.00     0.000 OA
ATOM     13   O  GAD B   1      23.932  29.598  52.9490  0.00  0.00     0.000 OA
ENDBRANCH 5 11
BRANCH 1 14
ATOM     14  O3  ASG B   2      21.060  27.783  55.8550  0.00  0.00     0.000 O
BRANCH 14 17
ATOM     15  C1  ASG B   2      20.156  25.160  58.4200  0.00  0.00     0.000 C
ATOM     16  C2  ASG B   2      21.051  26.182  57.7050  0.00  0.00     0.000 C
ATOM     17  C3  ASG B   2      20.266  26.817  56.5540  0.00  0.00     0.000 C
ATOM     18  C4  ASG B   2      19.804  25.743  55.5880  0.00  0.00     0.000 C
ATOM     19  C5  ASG B   2      19.024  24.682  56.3580  0.00  0.00     0.000 C
ATOM     20  O5  ASG B   2      19.819  24.184  57.4530  0.00  0.00     0.000 O
ATOM     21   C  ASG B   2      18.670  23.498  55.5160  0.00  0.00     0.000 C
ATOM     22   O  ASG B   2      18.148  22.482  56.3370  0.00  0.00     0.000 O
ATOM     24  HD  ASG B   2      17.812  21.779  56.7140  0.00  0.00     0.000 HD
BRANCH 16 26
ATOM     24   N  ASG B   2      21.598  27.241  58.5210  0.00  0.00     0.000 N
ATOM     26  HD  ASG B   2      21.310  26.499  58.8610  0.00  0.00     0.000 HD
ATOM     26   C  ASG B   2      22.852  27.714  58.4010  0.00  0.00     0.000 C
ATOM     27   C  ASG B   2      23.130  29.014  59.0730  0.00  0.00     0.000 C
ATOM     28   O  ASG B   2      23.712  27.107  57.7740  0.00  0.00     0.000 OA
ENDBRANCH 16 26
BRANCH 18 29
ATOM     29   O  ASG B   2      21.013  25.209  54.9480  0.00  0.00     0.000 O
ATOM     30   O  ASG B   2      19.936  24.823  52.7720  0.00  0.00     0.000 OA
ATOM     31   O  ASG B   2      21.483  26.673  53.0470  0.00  0.00     0.000 OA
ATOM     32   O  ASG B   2      22.301  24.398  53.0710  0.00  0.00     0.000 OA
ATOM     33   S  ASG B   2      21.180  25.295  53.3520  0.00  0.00     0.000 S
ENDBRANCH 18 29
BRANCH 15 34
ATOM     34  O4  ASG B   3      20.781  24.523  59.4980  0.00  0.00     0.000 O
BRANCH 34 38
ATOM     35  C1  GCT B   3      19.749  27.086  62.4530  0.00  0.00     0.000 C
ATOM     36  C2  GCT B   3      20.920  26.191  62.7950  0.00  0.00     0.000 C
ATOM     37  C3  GCT B   3      21.525  25.584  61.5370  0.00  0.00     0.000 C
ATOM     38  C4  GCT B   3      20.454  24.763  60.8090  0.00  0.00     0.000 C
ATOM     39  C5  GCT B   3      19.045  25.379  60.9630  0.00  0.00     0.000 C
ATOM     40  O5  GCT B   3      19.232  26.769  61.1650  0.00  0.00     0.000 O
ATOM     41   O  GCT B   3      21.875  27.010  63.4550  0.00  0.00     0.000 O
ATOM     43  HD  GCT B   3      21.911  27.326  64.2600  0.00  0.00     0.000 HD
ATOM     43   O  GCT B   3      22.676  24.799  61.9120  0.00  0.00     0.000 O
ATOM     45  HD  GCT B   3      22.712  25.115  62.7170  0.00  0.00     0.000 HD
BRANCH 39 45
ATOM     45   C  GCT B   3      18.136  24.835  62.0430  0.00  0.00     0.000 C
ATOM     46   O  GCT B   3      18.534  23.872  62.7720  0.00  0.00     0.000 OA
ATOM     47   O  GCT B   3      17.024  25.369  62.1860  0.00  0.00     0.000 OA
ENDBRANCH 39 45
BRANCH 35 48
ATOM     48  O3  ASG B   4      19.091  27.380  63.5540  0.00  0.00     0.000 O
BRANCH 48 51
ATOM     49  C1  ASG B   4      18.800  30.310  65.7940  0.00  0.00     0.000 C
ATOM     50  C2  ASG B   4      18.701  28.860  65.2910  0.00  0.00     0.000 C
ATOM     51  C3  ASG B   4      19.470  28.675  63.9860  0.00  0.00     0.000 C
ATOM     52  C4  ASG B   4      19.093  29.740  62.9690  0.00  0.00     0.000 C
ATOM     53  C5  ASG B   4      19.291  31.107  63.6170  0.00  0.00     0.000 C
ATOM     54  O5  ASG B   4      18.428  31.214  64.7670  0.00  0.00     0.000 O
BRANCH 50 57
ATOM     55   N  ASG B   4      18.516  27.435  65.4450  0.00  0.00     0.000 N
ATOM     57  HD  ASG B   4      18.376  27.430  66.3000  0.00  0.00     0.000 HD
ATOM     57   O  ASG B   4      17.213  27.606  67.2580  0.00  0.00     0.000 OA
ATOM     58   C  ASG B   4      17.694  26.918  66.3630  0.00  0.00     0.000 C
ATOM     59   C  ASG B   4      17.448  25.445  66.2550  0.00  0.00     0.000 C
ENDBRANCH 50 57
BRANCH 52 60
ATOM     60   O  ASG B   4      17.682  29.415  62.6320  0.00  0.00     0.000 O
ATOM     61   O  ASG B   4      18.090  29.604  60.1770  0.00  0.00     0.000 OA
ATOM     62   O  ASG B   4      15.970  28.868  60.9730  0.00  0.00     0.000 OA
ATOM     63   O  ASG B   4      16.682  31.101  61.4480  0.00  0.00     0.000 OA
ATOM     64   S  ASG B   4      17.082  29.716  61.1770  0.00  0.00     0.000 S
ENDBRANCH 52 60
ATOM     65   O  ASG B   4      19.534  33.493  63.2570  0.00  0.00     0.000 O
ATOM     67  HD  ASG B   4      18.964  33.650  63.8900  0.00  0.00     0.000 HD
ATOM     67   O  ASG B   4      19.534  33.493  63.2570  0.00  0.00     0.000 O
ATOM     69  HD  ASG B   4      18.964  33.650  63.8900  0.00  0.00     0.000 HD
ENDBRANCH 48 51
ENDBRANCH 35 48
ENDBRANCH 34 38
ENDBRANCH 15 34
ENDBRANCH 14 17
ENDBRANCH 1 14
TORSDOF 12
ENDMDL
MODEL 27
REMARK VINA RESULT:      -8.4     14.460     18.325
ROOT
ATOM      1  C1  GAD B   1       8.429  48.884  83.7100  0.00  0.00     0.000 C
ATOM      2  C2  GAD B   1       7.801  48.702  85.0960  0.00  0.00     0.000 C
ATOM      3  C3  GAD B   1       7.878  50.015  85.8840  0.00  0.00     0.000 C
ATOM      4  C4  GAD B   1       9.103  50.877  85.5660  0.00  0.00     0.000 C
ATOM      5  C5  GAD B   1       9.976  50.616  84.5730  0.00  0.00     0.000 C
ATOM      6  O5  GAD B   1       9.756  49.422  83.7990  0.00  0.00     0.000 O
ATOM      7   O  GAD B   1       6.427  48.173  84.9990  0.00  0.00     0.000 O
ATOM      9  HD  GAD B   1       6.700  48.003  84.1950  0.00  0.00     0.000 HD
ATOM      9   O  GAD B   1       7.915  49.777  87.3090  0.00  0.00     0.000 O
ATOM     11  HD  GAD B   1       8.187  49.607  86.5050  0.00  0.00     0.000 HD
ENDROOT
BRANCH 5 11
ATOM     11   C  GAD B   1      11.103  51.498  84.1880  0.00  0.00     0.000 C
ATOM     12   O  GAD B   1      10.846  52.735  84.0540  0.00  0.00     0.000 OA
ATOM     13   O  GAD B   1      12.258  50.995  83.9280  0.00  0.00     0.000 OA
ENDBRANCH 5 11
BRANCH 1 14
ATOM     14  O3  ASG B   2       8.888  47.868  82.9540  0.00  0.00     0.000 O
BRANCH 14 17
ATOM     15  C1  ASG B   2       8.356  44.172  82.3810  0.00  0.00     0.000 C
ATOM     16  C2  ASG B   2       9.102  45.434  82.8360  0.00  0.00     0.000 C
ATOM     17  C3  ASG B   2       8.235  46.662  82.5430  0.00  0.00     0.000 C
ATOM     18  C4  ASG B   2       7.920  46.732  81.0610  0.00  0.00     0.000 C
ATOM     19  C5  ASG B   2       7.294  45.413  80.6210  0.00  0.00     0.000 C
ATOM     20  O5  ASG B   2       8.151  44.314  80.9870  0.00  0.00     0.000 O
ATOM     21   C  ASG B   2       7.101  45.328  79.1410  0.00  0.00     0.000 C
ATOM     22   O  ASG B   2       6.725  44.018  78.7940  0.00  0.00     0.000 O
ATOM     24  HD  ASG B   2       6.488  43.264  78.4400  0.00  0.00     0.000 HD
BRANCH 16 26
ATOM     24   N  ASG B   2       9.486  45.515  84.2260  0.00  0.00     0.000 N
ATOM     26  HD  ASG B   2       9.276  44.765  83.8480  0.00  0.00     0.000 HD
ATOM     26   C  ASG B   2      10.679  45.970  84.6520  0.00  0.00     0.000 C
ATOM     27   C  ASG B   2      10.775  46.303  86.1010  0.00  0.00     0.000 C
ATOM     28   O  ASG B   2      11.628  46.101  83.8890  0.00  0.00     0.000 OA
ENDBRANCH 16 26
BRANCH 18 29
ATOM     29   O  ASG B   2       9.189  47.016  80.3780  0.00  0.00     0.000 O
ATOM     30   O  ASG B   2       8.164  48.377  78.6060  0.00  0.00     0.000 OA
ATOM     31   O  ASG B   2       9.433  49.449  80.3750  0.00  0.00     0.000 OA
ATOM     32   O  ASG B   2      10.568  48.103  78.7180  0.00  0.00     0.000 OA
ATOM     33   S  ASG B   2       9.332  48.332  79.4660  0.00  0.00     0.000 S
ENDBRANCH 18 29
BRANCH 15 34
ATOM     34  O4  ASG B   3       9.064  42.987  82.6100  0.00  0.00     0.000 O
BRANCH 34 38
ATOM     35  C1  GCT B   3       9.814  39.061  81.9870  0.00  0.00     0.000 C
ATOM     36  C2  GCT B   3       9.847  39.902  80.7290  0.00  0.00     0.000 C
ATOM     37  C3  GCT B   3       9.996  41.378  81.0670  0.00  0.00     0.000 C
ATOM     38  C4  GCT B   3       8.813  41.816  81.9400  0.00  0.00     0.000 C
ATOM     39  C5  GCT B   3       8.336  40.687  82.8810  0.00  0.00     0.000 C
ATOM     40  O5  GCT B   3       9.459  39.854  83.1140  0.00  0.00     0.000 O
ATOM     41   O  GCT B   3      10.964  39.454  79.9740  0.00  0.00     0.000 O
ATOM     43  HD  GCT B   3      11.089  38.753  79.4810  0.00  0.00     0.000 HD
ATOM     43   O  GCT B   3      10.092  42.125  79.8360  0.00  0.00     0.000 O
ATOM     45  HD  GCT B   3      10.216  41.424  79.3430  0.00  0.00     0.000 HD
BRANCH 39 45
ATOM     45   C  GCT B   3       7.163  39.835  82.4460  0.00  0.00     0.000 C
ATOM     46   O  GCT B   3       6.684  39.978  81.2780  0.00  0.00     0.000 OA
ATOM     47   O  GCT B   3       6.718  39.008  83.2580  0.00  0.00     0.000 OA
ENDBRANCH 39 45
BRANCH 35 48
ATOM     48  O3  ASG B   4       9.425  37.841  81.6850  0.00  0.00     0.000 O
BRANCH 48 51
ATOM     49  C1  ASG B   4      10.989  35.097  83.6110  0.00  0.00     0.000 C
ATOM     50  C2  ASG B   4      10.818  36.221  82.5760  0.00  0.00     0.000 C
ATOM     51  C3  ASG B   4       9.544  37.021  82.8340  0.00  0.00     0.000 C
ATOM     52  C4  ASG B   4       8.343  36.105  82.9990  0.00  0.00     0.000 C
ATOM     53  C5  ASG B   4       8.667  35.087  84.0880  0.00  0.00     0.000 C
ATOM     54  O5  ASG B   4       9.811  34.310  83.6820  0.00  0.00     0.000 O
BRANCH 50 57
ATOM     55   N  ASG B   4      10.886  36.379  81.1410  0.00  0.00     0.000 N
ATOM     57  HD  ASG B   4      11.714  36.629  81.0930  0.00  0.00     0.000 HD
ATOM     57   O  ASG B   4      13.088  35.990  81.0100  0.00  0.00     0.000 OA
ATOM     58   C  ASG B   4      12.007  36.146  80.4510  0.00  0.00     0.000 C
ATOM     59   C  ASG B   4      11.860  36.144  78.9600  0.00  0.00     0.000 C
ENDBRANCH 50 57
BRANCH 52 60
ATOM     60   O  ASG B   4       8.161  35.523  81.6440  0.00  0.00     0.000 O
ATOM     61   O  ASG B   4       5.937  36.612  81.3330  0.00  0.00     0.000 OA
ATOM     62   O  ASG B   4       6.922  35.397  79.5380  0.00  0.00     0.000 OA
ATOM     63   O  ASG B   4       6.276  34.228  81.5220  0.00  0.00     0.000 OA
ATOM     64   S  ASG B   4       6.724  35.494  80.9340  0.00  0.00     0.000 S
ENDBRANCH 52 60
ATOM     65   O  ASG B   4       7.785  33.450  85.6450  0.00  0.00     0.000 O
ATOM     67  HD  ASG B   4       8.399  32.888  85.4070  0.00  0.00     0.000 HD
ATOM     67   O  ASG B   4       7.785  33.450  85.6450  0.00  0.00     0.000 O
ATOM     69  HD  ASG B   4       8.399  32.888  85.4070  0.00  0.00     0.000 HD
ENDBRANCH 48 51
ENDBRANCH 35 48
ENDBRANCH 34 38
ENDBRANCH 15 34
ENDBRANCH 14 17
ENDBRANCH 1 14
TORSDOF 12
ENDMDL
MODEL 28
REMARK VINA RESULT:      -8.4     28.634     33.786
ROOT
ATOM      1  C1  GAD B   1      21.931  28.995  54.9940  0.00  0.00     0.000 C
ATOM      2  C2  GAD B   1      21.104  29.605  53.8580  0.00  0.00     0.000 C
ATOM      3  C3  GAD B   1      20.842  31.090  54.1360  0.00  0.00     0.000 C
ATOM      4  C4  GAD B   1      20.717  31.446  55.6190  0.00  0.00     0.000 C
ATOM      5  C5  GAD B   1      20.967  30.589  56.6290  0.00  0.00     0.000 C
ATOM      6  O5  GAD B   1      21.329  29.241  56.2740  0.00  0.00     0.000 O
ATOM      7   O  GAD B   1      21.739  29.372  52.5460  0.00  0.00     0.000 O
ATOM      9  HD  GAD B   1      22.182  28.798  53.0200  0.00  0.00     0.000 HD
ATOM      9   O  GAD B   1      19.618  31.539  53.5120  0.00  0.00     0.000 O
ATOM     11  HD  GAD B   1      20.061  30.965  53.9850  0.00  0.00     0.000 HD
ENDROOT
BRANCH 5 11
ATOM     11   C  GAD B   1      20.953  30.951  58.0660  0.00  0.00     0.000 C
ATOM     12   O  GAD B   1      20.378  30.141  58.8580  0.00  0.00     0.000 OA
ATOM     13   O  GAD B   1      21.435  32.079  58.4530  0.00  0.00     0.000 OA
ENDBRANCH 5 11
BRANCH 1 14
ATOM     14  O3  ASG B   2      21.977  27.677  55.2660  0.00  0.00     0.000 O
BRANCH 14 17
ATOM     15  C1  ASG B   2      20.520  25.083  57.5950  0.00  0.00     0.000 C
ATOM     16  C2  ASG B   2      21.613  25.966  56.9770  0.00  0.00     0.000 C
ATOM     17  C3  ASG B   2      20.995  26.830  55.8730  0.00  0.00     0.000 C
ATOM     18  C4  ASG B   2      20.362  25.945  54.8160  0.00  0.00     0.000 C
ATOM     19  C5  ASG B   2      19.373  24.997  55.4880  0.00  0.00     0.000 C
ATOM     20  O5  ASG B   2      20.028  24.270  56.5460  0.00  0.00     0.000 O
ATOM     21   C  ASG B   2      18.821  23.974  54.5470  0.00  0.00     0.000 C
ATOM     22   O  ASG B   2      18.093  23.016  55.2750  0.00  0.00     0.000 O
ATOM     24  HD  ASG B   2      17.619  22.363  55.5880  0.00  0.00     0.000 HD
BRANCH 16 26
ATOM     24   N  ASG B   2      23.042  26.175  57.0100  0.00  0.00     0.000 N
ATOM     26  HD  ASG B   2      22.573  26.301  56.2930  0.00  0.00     0.000 HD
ATOM     26   C  ASG B   2      23.655  27.062  57.8160  0.00  0.00     0.000 C
ATOM     27   C  ASG B   2      25.129  26.903  57.9660  0.00  0.00     0.000 C
ATOM     28   O  ASG B   2      23.032  27.946  58.3920  0.00  0.00     0.000 OA
ENDBRANCH 16 26
BRANCH 18 29
ATOM     29   O  ASG B   2      21.463  25.240  54.1480  0.00  0.00     0.000 O
ATOM     30   O  ASG B   2      20.345  25.148  51.9600  0.00  0.00     0.000 OA
ATOM     31   O  ASG B   2      22.188  26.688  52.3150  0.00  0.00     0.000 OA
ATOM     32   O  ASG B   2      22.600  24.307  52.2300  0.00  0.00     0.000 OA
ATOM     33   S  ASG B   2      21.649  25.370  52.5570  0.00  0.00     0.000 S
ENDBRANCH 18 29
BRANCH 15 34
ATOM     34  O4  ASG B   3      20.982  24.254  58.6230  0.00  0.00     0.000 O
BRANCH 34 38
ATOM     35  C1  GCT B   3      19.188  26.405  61.5420  0.00  0.00     0.000 C
ATOM     36  C2  GCT B   3      20.618  26.017  61.8530  0.00  0.00     0.000 C
ATOM     37  C3  GCT B   3      21.357  25.612  60.5850  0.00  0.00     0.000 C
ATOM     38  C4  GCT B   3      20.637  24.422  59.9400  0.00  0.00     0.000 C
ATOM     39  C5  GCT B   3      19.107  24.488  60.1460  0.00  0.00     0.000 C
ATOM     40  O5  GCT B   3      18.778  25.859  60.2930  0.00  0.00     0.000 O
ATOM     41   O  GCT B   3      21.228  27.159  62.4350  0.00  0.00     0.000 O
ATOM     43  HD  GCT B   3      21.174  27.506  63.2270  0.00  0.00     0.000 HD
ATOM     43   O  GCT B   3      22.728  25.320  60.9260  0.00  0.00     0.000 O
ATOM     45  HD  GCT B   3      22.675  25.667  61.7180  0.00  0.00     0.000 HD
BRANCH 39 45
ATOM     45   C  GCT B   3      18.500  23.703  61.2880  0.00  0.00     0.000 C
ATOM     46   O  GCT B   3      19.261  23.144  62.1390  0.00  0.00     0.000 OA
ATOM     47   O  GCT B   3      17.261  23.647  61.3570  0.00  0.00     0.000 OA
ENDBRANCH 39 45
BRANCH 35 48
ATOM     48  O3  ASG B   4      18.507  26.492  62.6640  0.00  0.00     0.000 O
BRANCH 48 51
ATOM     49  C1  ASG B   4      15.805  28.930  61.9960  0.00  0.00     0.000 C
ATOM     50  C2  ASG B   4      17.218  28.333  62.1070  0.00  0.00     0.000 C
ATOM     51  C3  ASG B   4      17.164  26.829  62.3640  0.00  0.00     0.000 C
ATOM     52  C4  ASG B   4      16.230  26.501  63.5170  0.00  0.00     0.000 C
ATOM     53  C5  ASG B   4      14.871  27.129  63.2210  0.00  0.00     0.000 C
ATOM     54  O5  ASG B   4      15.024  28.558  63.1200  0.00  0.00     0.000 O
BRANCH 50 57
ATOM     55   N  ASG B   4      17.607  29.327  63.0800  0.00  0.00     0.000 N
ATOM     57  HD  ASG B   4      18.361  29.554  62.7190  0.00  0.00     0.000 HD
ATOM     57   O  ASG B   4      18.864  30.511  61.6540  0.00  0.00     0.000 OA
ATOM     58   C  ASG B   4      18.322  30.407  62.7500  0.00  0.00     0.000 C
ATOM     59   C  ASG B   4      18.458  31.446  63.8210  0.00  0.00     0.000 C
ENDBRANCH 50 57
BRANCH 52 60
ATOM     60   O  ASG B   4      16.928  27.067  64.7010  0.00  0.00     0.000 O
ATOM     61   O  ASG B   4      17.190  24.830  65.7770  0.00  0.00     0.000 OA
ATOM     62   O  ASG B   4      18.191  26.747  66.7710  0.00  0.00     0.000 OA
ATOM     63   O  ASG B   4      15.807  26.610  66.6450  0.00  0.00     0.000 OA
ATOM     64   S  ASG B   4      17.091  26.223  66.0540  0.00  0.00     0.000 S
ENDBRANCH 52 60
ATOM     65   O  ASG B   4      12.507  27.162  63.7570  0.00  0.00     0.000 O
ATOM     67  HD  ASG B   4      12.523  28.027  63.7900  0.00  0.00     0.000 HD
ATOM     67   O  ASG B   4      12.507  27.162  63.7570  0.00  0.00     0.000 O
ATOM     69  HD  ASG B   4      12.523  28.027  63.7900  0.00  0.00     0.000 HD
ENDBRANCH 48 51
ENDBRANCH 35 48
ENDBRANCH 34 38
ENDBRANCH 15 34
ENDBRANCH 14 17
ENDBRANCH 1 14
TORSDOF 12
ENDMDL
MODEL 29
REMARK VINA RESULT:      -8.4      2.703     10.743
ROOT
ATOM      1  C1  GAD B   1     -12.470  32.620  80.5640  0.00  0.00     0.000 C
ATOM      2  C2  GAD B   1     -13.965  32.314  80.6890  0.00  0.00     0.000 C
ATOM      3  C3  GAD B   1     -14.187  31.163  81.6770  0.00  0.00     0.000 C
ATOM      4  C4  GAD B   1     -13.059  30.128  81.7090  0.00  0.00     0.000 C
ATOM      5  C5  GAD B   1     -11.886  30.263  81.0580  0.00  0.00     0.000 C
ATOM      6  O5  GAD B   1     -11.715  31.441  80.2480  0.00  0.00     0.000 O
ATOM      7   O  GAD B   1     -14.734  33.524  81.0390  0.00  0.00     0.000 O
ATOM      9  HD  GAD B   1     -13.992  33.896  80.7920  0.00  0.00     0.000 HD
ATOM      9   O  GAD B   1     -15.395  30.430  81.3760  0.00  0.00     0.000 O
ATOM     11  HD  GAD B   1     -14.653  30.802  81.1290  0.00  0.00     0.000 HD
ENDROOT
BRANCH 5 11
ATOM     11   C  GAD B   1     -10.749  29.320  81.1670  0.00  0.00     0.000 C
ATOM     12   O  GAD B   1     -10.096  29.329  82.2560  0.00  0.00     0.000 OA
ATOM     13   O  GAD B   1     -10.410  28.597  80.1580  0.00  0.00     0.000 OA
ENDBRANCH 5 11
BRANCH 1 14
ATOM     14  O3  ASG B   2     -11.918  33.258  79.5150  0.00  0.00     0.000 O
BRANCH 14 17
ATOM     15  C1  ASG B   2      -8.398  34.039  78.3840  0.00  0.00     0.000 C
ATOM     16  C2  ASG B   2      -9.749  34.298  79.0650  0.00  0.00     0.000 C
ATOM     17  C3  ASG B   2     -10.643  33.067  78.8910  0.00  0.00     0.000 C
ATOM     18  C4  ASG B   2     -10.836  32.771  77.4160  0.00  0.00     0.000 C
ATOM     19  C5  ASG B   2      -9.469  32.644  76.7500  0.00  0.00     0.000 C
ATOM     20  O5  ASG B   2      -8.681  33.822  77.0140  0.00  0.00     0.000 O
ATOM     21   C  ASG B   2      -9.560  32.517  75.2630  0.00  0.00     0.000 C
ATOM     22   O  ASG B   2      -8.272  32.620  74.7080  0.00  0.00     0.000 O
ATOM     24  HD  ASG B   2      -7.548  32.663  74.2340  0.00  0.00     0.000 HD
BRANCH 16 26
ATOM     24   N  ASG B   2      -9.674  34.671  80.4590  0.00  0.00     0.000 N
ATOM     26  HD  ASG B   2      -9.013  34.791  79.9120  0.00  0.00     0.000 HD
ATOM     26   C  ASG B   2     -10.492  35.566  81.0450  0.00  0.00     0.000 C
ATOM     27   C  ASG B   2     -10.497  35.571  82.5350  0.00  0.00     0.000 C
ATOM     28   O  ASG B   2     -11.189  36.328  80.3870  0.00  0.00     0.000 OA
ENDBRANCH 16 26
BRANCH 18 29
ATOM     29   O  ASG B   2     -11.635  33.877  76.8710  0.00  0.00     0.000 O
ATOM     30   O  ASG B   2     -12.943  32.450  75.3550  0.00  0.00     0.000 OA
ATOM     31   O  ASG B   2     -13.969  33.341  77.3670  0.00  0.00     0.000 OA
ATOM     32   O  ASG B   2     -13.415  34.819  75.5350  0.00  0.00     0.000 OA
ATOM     33   S  ASG B   2     -13.088  33.584  76.2490  0.00  0.00     0.000 S
ENDBRANCH 18 29
BRANCH 15 34
ATOM     34  O4  ASG B   3      -7.501  35.108  78.4900  0.00  0.00     0.000 O
BRANCH 34 38
ATOM     35  C1  GCT B   3      -4.786  37.628  76.8660  0.00  0.00     0.000 C
ATOM     36  C2  GCT B   3      -6.223  37.993  76.5640  0.00  0.00     0.000 C
ATOM     37  C3  GCT B   3      -7.173  37.300  77.5300  0.00  0.00     0.000 C
ATOM     38  C4  GCT B   3      -6.998  35.782  77.4060  0.00  0.00     0.000 C
ATOM     39  C5  GCT B   3      -5.536  35.390  77.0920  0.00  0.00     0.000 C
ATOM     40  O5  GCT B   3      -4.719  36.421  77.6180  0.00  0.00     0.000 O
ATOM     41   O  GCT B   3      -6.319  39.403  76.7050  0.00  0.00     0.000 O
ATOM     43  HD  GCT B   3      -6.069  40.057  76.1940  0.00  0.00     0.000 HD
ATOM     43   O  GCT B   3      -8.518  37.735  77.2440  0.00  0.00     0.000 O
ATOM     45  HD  GCT B   3      -8.269  38.389  76.7320  0.00  0.00     0.000 HD
BRANCH 39 45
ATOM     45   C  GCT B   3      -5.154  35.133  75.6510  0.00  0.00     0.000 C
ATOM     46   O  GCT B   3      -6.056  35.117  74.7560  0.00  0.00     0.000 OA
ATOM     47   O  GCT B   3      -3.951  34.959  75.3950  0.00  0.00     0.000 OA
ENDBRANCH 39 45
BRANCH 35 48
ATOM     48  O3  ASG B   4      -4.019  38.020  75.8710  0.00  0.00     0.000 O
BRANCH 48 51
ATOM     49  C1  ASG B   4      -1.635  40.795  75.3190  0.00  0.00     0.000 C
ATOM     50  C2  ASG B   4      -2.762  39.783  75.0520  0.00  0.00     0.000 C
ATOM     51  C3  ASG B   4      -3.158  39.048  76.3290  0.00  0.00     0.000 C
ATOM     52  C4  ASG B   4      -1.939  38.486  77.0410  0.00  0.00     0.000 C
ATOM     53  C5  ASG B   4      -0.951  39.627  77.2640  0.00  0.00     0.000 C
ATOM     54  O5  ASG B   4      -0.555  40.164  75.9860  0.00  0.00     0.000 O
BRANCH 50 57
ATOM     55   N  ASG B   4      -3.223  38.768  74.1330  0.00  0.00     0.000 N
ATOM     57  HD  ASG B   4      -3.634  39.292  73.5790  0.00  0.00     0.000 HD
ATOM     57   O  ASG B   4      -3.304  40.133  72.3600  0.00  0.00     0.000 OA
ATOM     58   C  ASG B   4      -3.360  38.999  72.8240  0.00  0.00     0.000 C
ATOM     59   C  ASG B   4      -3.637  37.793  71.9790  0.00  0.00     0.000 C
ENDBRANCH 50 57
BRANCH 52 60
ATOM     60   O  ASG B   4      -1.459  37.423  76.1210  0.00  0.00     0.000 O
ATOM     61   O  ASG B   4      -0.909  35.869  77.9950  0.00  0.00     0.000 OA
ATOM     62   O  ASG B   4      -0.706  35.127  75.7420  0.00  0.00     0.000 OA
ATOM     63   O  ASG B   4       0.727  36.873  76.5270  0.00  0.00     0.000 OA
ATOM     64   S  ASG B   4      -0.570  36.199  76.6520  0.00  0.00     0.000 S
ENDBRANCH 52 60
ATOM     65   O  ASG B   4       1.002  40.394  78.4800  0.00  0.00     0.000 O
ATOM     67  HD  ASG B   4       1.352  40.684  77.7420  0.00  0.00     0.000 HD
ATOM     67   O  ASG B   4       1.002  40.394  78.4800  0.00  0.00     0.000 O
ATOM     69  HD  ASG B   4       1.352  40.684  77.7420  0.00  0.00     0.000 HD
ENDBRANCH 48 51
ENDBRANCH 35 48
ENDBRANCH 34 38
ENDBRANCH 15 34
ENDBRANCH 14 17
ENDBRANCH 1 14
TORSDOF 12
ENDMDL
MODEL 30
REMARK VINA RESULT:      -8.4      4.001      6.278
ROOT
ATOM      1  C1  GAD B   1       1.221  37.150  79.2290  0.00  0.00     0.000 C
ATOM      2  C2  GAD B   1       1.648  38.466  79.8860  0.00  0.00     0.000 C
ATOM      3  C3  GAD B   1       2.137  38.206  81.3160  0.00  0.00     0.000 C
ATOM      4  C4  GAD B   1       1.439  37.042  82.0240  0.00  0.00     0.000 C
ATOM      5  C5  GAD B   1       0.580  36.194  81.4240  0.00  0.00     0.000 C
ATOM      6  O5  GAD B   1       0.271  36.440  80.0390  0.00  0.00     0.000 O
ATOM      7   O  GAD B   1       2.643  39.180  79.0620  0.00  0.00     0.000 O
ATOM      9  HD  GAD B   1       2.354  38.614  78.4740  0.00  0.00     0.000 HD
ATOM      9   O  GAD B   1       1.943  39.362  82.1610  0.00  0.00     0.000 O
ATOM     11  HD  GAD B   1       1.654  38.797  81.5720  0.00  0.00     0.000 HD
ENDROOT
BRANCH 5 11
ATOM     11   C  GAD B   1      -0.018  35.002  82.0700  0.00  0.00     0.000 C
ATOM     12   O  GAD B   1      -1.286  34.966  82.1490  0.00  0.00     0.000 OA
ATOM     13   O  GAD B   1       0.738  34.102  82.5910  0.00  0.00     0.000 OA
ENDBRANCH 5 11
BRANCH 1 14
ATOM     14  O3  ASG B   2       0.386  37.072  78.1760  0.00  0.00     0.000 O
BRANCH 14 17
ATOM     15  C1  ASG B   2      -2.901  35.429  77.2950  0.00  0.00     0.000 C
ATOM     16  C2  ASG B   2      -1.378  35.622  77.2960  0.00  0.00     0.000 C
ATOM     17  C3  ASG B   2      -1.029  36.851  78.1410  0.00  0.00     0.000 C
ATOM     18  C4  ASG B   2      -1.723  38.078  77.5820  0.00  0.00     0.000 C
ATOM     19  C5  ASG B   2      -3.219  37.802  77.4800  0.00  0.00     0.000 C
ATOM     20  O5  ASG B   2      -3.448  36.600  76.7170  0.00  0.00     0.000 O
ATOM     21   C  ASG B   2      -3.964  38.895  76.7840  0.00  0.00     0.000 C
ATOM     22   O  ASG B   2      -5.285  38.477  76.5400  0.00  0.00     0.000 O
ATOM     24  HD  ASG B   2      -6.116  38.357  76.3290  0.00  0.00     0.000 HD
BRANCH 16 26
ATOM     24   N  ASG B   2      -0.644  34.441  77.6880  0.00  0.00     0.000 N
ATOM     26  HD  ASG B   2      -1.423  34.397  77.3130  0.00  0.00     0.000 HD
ATOM     26   C  ASG B   2       0.572  34.117  77.2090  0.00  0.00     0.000 C
ATOM     27   C  ASG B   2       1.317  33.071  77.9640  0.00  0.00     0.000 C
ATOM     28   O  ASG B   2       1.034  34.654  76.2100  0.00  0.00     0.000 OA
ENDBRANCH 16 26
BRANCH 18 29
ATOM     29   O  ASG B   2      -1.103  38.349  76.2770  0.00  0.00     0.000 O
ATOM     30   O  ASG B   2      -1.344  40.790  76.4430  0.00  0.00     0.000 OA
ATOM     31   O  ASG B   2       0.839  39.767  76.7250  0.00  0.00     0.000 OA
ATOM     32   O  ASG B   2      -0.216  39.787  74.5500  0.00  0.00     0.000 OA
ATOM     33   S  ASG B   2      -0.410  39.772  76.0000  0.00  0.00     0.000 S
ENDBRANCH 18 29
BRANCH 15 34
ATOM     34  O4  ASG B   3      -3.327  34.323  76.5520  0.00  0.00     0.000 O
BRANCH 34 38
ATOM     35  C1  GCT B   3      -6.162  31.687  75.3790  0.00  0.00     0.000 C
ATOM     36  C2  GCT B   3      -6.344  33.079  74.8140  0.00  0.00     0.000 C
ATOM     37  C3  GCT B   3      -5.055  33.880  74.9230  0.00  0.00     0.000 C
ATOM     38  C4  GCT B   3      -4.647  33.981  76.3970  0.00  0.00     0.000 C
ATOM     39  C5  GCT B   3      -5.025  32.710  77.1920  0.00  0.00     0.000 C
ATOM     40  O5  GCT B   3      -5.046  31.642  76.2610  0.00  0.00     0.000 O
ATOM     41   O  GCT B   3      -6.710  32.916  73.4510  0.00  0.00     0.000 O
ATOM     43  HD  GCT B   3      -7.455  32.690  73.0730  0.00  0.00     0.000 HD
ATOM     43   O  GCT B   3      -5.262  35.170  74.3090  0.00  0.00     0.000 O
ATOM     45  HD  GCT B   3      -6.008  34.944  73.9300  0.00  0.00     0.000 HD
BRANCH 39 45
ATOM     45   C  GCT B   3      -6.317  32.712  77.9800  0.00  0.00     0.000 C
ATOM     46   O  GCT B   3      -7.070  33.735  77.9460  0.00  0.00     0.000 OA
ATOM     47   O  GCT B   3      -6.600  31.691  78.6270  0.00  0.00     0.000 OA
ENDBRANCH 39 45
BRANCH 35 48
ATOM     48  O3  ASG B   4      -7.340  31.115  75.5150  0.00  0.00     0.000 O
BRANCH 48 51
ATOM     49  C1  ASG B   4      -9.345  28.649  73.6210  0.00  0.00     0.000 C
ATOM     50  C2  ASG B   4      -9.003  29.854  74.5130  0.00  0.00     0.000 C
ATOM     51  C3  ASG B   4      -7.507  30.153  74.4880  0.00  0.00     0.000 C
ATOM     52  C4  ASG B   4      -6.690  28.899  74.7550  0.00  0.00     0.000 C
ATOM     53  C5  ASG B   4      -7.125  27.829  73.7580  0.00  0.00     0.000 C
ATOM     54  O5  ASG B   4      -8.524  27.541  73.9550  0.00  0.00     0.000 O
BRANCH 50 57
ATOM     55   N  ASG B   4      -9.466  31.217  74.6440  0.00  0.00     0.000 N
ATOM     57  HD  ASG B   4     -10.314  31.057  74.5700  0.00  0.00     0.000 HD
ATOM     57   O  ASG B   4     -11.474  30.660  75.4640  0.00  0.00     0.000 OA
ATOM     58   C  ASG B   4     -10.637  31.521  75.2120  0.00  0.00     0.000 C
ATOM     59   C  ASG B   4     -10.874  32.977  75.4670  0.00  0.00     0.000 C
ENDBRANCH 50 57
BRANCH 52 60
ATOM     60   O  ASG B   4      -6.994  28.582  76.1740  0.00  0.00     0.000 O
ATOM     61   O  ASG B   4      -4.580  28.430  76.7910  0.00  0.00     0.000 OA
ATOM     62   O  ASG B   4      -6.248  28.257  78.4810  0.00  0.00     0.000 OA
ATOM     63   O  ASG B   4      -6.113  26.563  76.7990  0.00  0.00     0.000 OA
ATOM     64   S  ASG B   4      -5.879  27.967  77.1480  0.00  0.00     0.000 S
ENDBRANCH 52 60
ATOM     65   O  ASG B   4      -6.577  25.716  72.7010  0.00  0.00     0.000 O
ATOM     67  HD  ASG B   4      -7.382  25.432  72.8450  0.00  0.00     0.000 HD
ATOM     67   O  ASG B   4      -6.577  25.716  72.7010  0.00  0.00     0.000 O
ATOM     69  HD  ASG B   4      -7.382  25.432  72.8450  0.00  0.00     0.000 HD
ENDBRANCH 48 51
ENDBRANCH 35 48
ENDBRANCH 34 38
ENDBRANCH 15 34
ENDBRANCH 14 17
ENDBRANCH 1 14
TORSDOF 12
ENDMDL
MODEL 31
REMARK VINA RESULT:      -8.4      3.456     11.090
ROOT
ATOM      1  C1  GAD B   1     -12.742  32.290  77.5200  0.00  0.00     0.000 C
ATOM      2  C2  GAD B   1     -14.107  32.395  76.8330  0.00  0.00     0.000 C
ATOM      3  C3  GAD B   1     -15.229  32.298  77.8730  0.00  0.00     0.000 C
ATOM      4  C4  GAD B   1     -14.903  31.411  79.0780  0.00  0.00     0.000 C
ATOM      5  C5  GAD B   1     -13.690  30.874  79.3190  0.00  0.00     0.000 C
ATOM      6  O5  GAD B   1     -12.656  31.120  78.3470  0.00  0.00     0.000 O
ATOM      7   O  GAD B   1     -14.200  33.612  76.0030  0.00  0.00     0.000 O
ATOM      9  HD  GAD B   1     -13.342  33.588  76.1220  0.00  0.00     0.000 HD
ATOM      9   O  GAD B   1     -16.441  31.762  77.2990  0.00  0.00     0.000 O
ATOM     11  HD  GAD B   1     -15.584  31.738  77.4170  0.00  0.00     0.000 HD
ENDROOT
BRANCH 5 11
ATOM     11   C  GAD B   1     -13.335  30.105  80.5350  0.00  0.00     0.000 C
ATOM     12   O  GAD B   1     -14.188  30.090  81.4760  0.00  0.00     0.000 OA
ATOM     13   O  GAD B   1     -12.176  29.556  80.6360  0.00  0.00     0.000 OA
ENDBRANCH 5 11
BRANCH 1 14
ATOM     14  O3  ASG B   2     -11.608  31.930  76.8890  0.00  0.00     0.000 O
BRANCH 14 17
ATOM     15  C1  ASG B   2      -8.008  33.046  77.1610  0.00  0.00     0.000 C
ATOM     16  C2  ASG B   2      -9.449  33.053  76.6310  0.00  0.00     0.000 C
ATOM     17  C3  ASG B   2     -10.252  31.963  77.3480  0.00  0.00     0.000 C
ATOM     18  C4  ASG B   2      -9.605  30.610  77.1220  0.00  0.00     0.000 C
ATOM     19  C5  ASG B   2      -8.141  30.680  77.5450  0.00  0.00     0.000 C
ATOM     20  O5  ASG B   2      -7.483  31.766  76.8640  0.00  0.00     0.000 O
ATOM     21   C  ASG B   2      -7.379  29.440  77.2050  0.00  0.00     0.000 C
ATOM     22   O  ASG B   2      -6.008  29.660  77.4270  0.00  0.00     0.000 O
ATOM     24  HD  ASG B   2      -5.147  29.652  77.5190  0.00  0.00     0.000 HD
BRANCH 16 26
ATOM     24   N  ASG B   2     -10.172  33.737  75.5840  0.00  0.00     0.000 N
ATOM     26  HD  ASG B   2     -10.284  32.894  75.7480  0.00  0.00     0.000 HD
ATOM     26   C  ASG B   2     -10.995  34.781  75.7950  0.00  0.00     0.000 C
ATOM     27   C  ASG B   2     -11.378  35.568  74.5890  0.00  0.00     0.000 C
ATOM     28   O  ASG B   2     -11.401  35.064  76.9150  0.00  0.00     0.000 OA
ENDBRANCH 16 26
BRANCH 18 29
ATOM     29   O  ASG B   2      -9.772  30.300  75.6960  0.00  0.00     0.000 O
ATOM     30   O  ASG B   2     -10.151  27.898  76.0540  0.00  0.00     0.000 OA
ATOM     31   O  ASG B   2     -12.009  29.343  75.4620  0.00  0.00     0.000 OA
ATOM     32   O  ASG B   2     -10.292  28.852  73.8330  0.00  0.00     0.000 OA
ATOM     33   S  ASG B   2     -10.620  29.011  75.2500  0.00  0.00     0.000 S
ENDBRANCH 18 29
BRANCH 15 34
ATOM     34  O4  ASG B   3      -7.188  34.014  76.5710  0.00  0.00     0.000 O
BRANCH 34 38
ATOM     35  C1  GCT B   3      -3.993  36.490  76.7260  0.00  0.00     0.000 C
ATOM     36  C2  GCT B   3      -3.653  35.070  76.3270  0.00  0.00     0.000 C
ATOM     37  C3  GCT B   3      -4.898  34.324  75.8680  0.00  0.00     0.000 C
ATOM     38  C4  GCT B   3      -5.921  34.299  77.0110  0.00  0.00     0.000 C
ATOM     39  C5  GCT B   3      -5.866  35.585  77.8660  0.00  0.00     0.000 C
ATOM     40  O5  GCT B   3      -5.380  36.613  77.0200  0.00  0.00     0.000 O
ATOM     41   O  GCT B   3      -2.715  35.164  75.2650  0.00  0.00     0.000 O
ATOM     43  HD  GCT B   3      -1.869  35.345  75.2520  0.00  0.00     0.000 HD
ATOM     43   O  GCT B   3      -4.509  33.004  75.4340  0.00  0.00     0.000 O
ATOM     45  HD  GCT B   3      -3.662  33.185  75.4210  0.00  0.00     0.000 HD
BRANCH 39 45
ATOM     45   C  GCT B   3      -5.058  35.565  79.1450  0.00  0.00     0.000 C
ATOM     46   O  GCT B   3      -4.435  34.508  79.4770  0.00  0.00     0.000 OA
ATOM     47   O  GCT B   3      -5.023  36.605  79.8230  0.00  0.00     0.000 OA
ENDBRANCH 39 45
BRANCH 35 48
ATOM     48  O3  ASG B   4      -2.969  37.020  77.3590  0.00  0.00     0.000 O
BRANCH 48 51
ATOM     49  C1  ASG B   4      -3.159  39.860  74.9940  0.00  0.00     0.000 C
ATOM     50  C2  ASG B   4      -3.391  38.465  75.6000  0.00  0.00     0.000 C
ATOM     51  C3  ASG B   4      -2.895  38.400  77.0420  0.00  0.00     0.000 C
ATOM     52  C4  ASG B   4      -1.474  38.928  77.1600  0.00  0.00     0.000 C
ATOM     53  C5  ASG B   4      -1.437  40.328  76.5540  0.00  0.00     0.000 C
ATOM     54  O5  ASG B   4      -1.806  40.251  75.1630  0.00  0.00     0.000 O
BRANCH 50 57
ATOM     55   N  ASG B   4      -2.996  38.439  74.2100  0.00  0.00     0.000 N
ATOM     57  HD  ASG B   4      -3.332  37.666  74.0100  0.00  0.00     0.000 HD
ATOM     57   O  ASG B   4      -4.664  37.093  73.5610  0.00  0.00     0.000 OA
ATOM     58   C  ASG B   4      -3.729  37.833  73.2710  0.00  0.00     0.000 C
ATOM     59   C  ASG B   4      -3.301  38.078  71.8570  0.00  0.00     0.000 C
ENDBRANCH 50 57
BRANCH 52 60
ATOM     60   O  ASG B   4      -0.666  37.917  76.4300  0.00  0.00     0.000 O
ATOM     61   O  ASG B   4       0.667  37.331  78.4580  0.00  0.00     0.000 OA
ATOM     62   O  ASG B   4       0.969  36.098  76.4430  0.00  0.00     0.000 OA
ATOM     63   O  ASG B   4       1.569  38.412  76.4950  0.00  0.00     0.000 OA
ATOM     64   S  ASG B   4       0.708  37.355  77.0340  0.00  0.00     0.000 S
ENDBRANCH 52 60
ATOM     65   O  ASG B   4      -0.218  42.417  76.3790  0.00  0.00     0.000 O
ATOM     67  HD  ASG B   4      -0.330  42.414  75.5200  0.00  0.00     0.000 HD
ATOM     67   O  ASG B   4      -0.218  42.417  76.3790  0.00  0.00     0.000 O
ATOM     69  HD  ASG B   4      -0.330  42.414  75.5200  0.00  0.00     0.000 HD
ENDBRANCH 48 51
ENDBRANCH 35 48
ENDBRANCH 34 38
ENDBRANCH 15 34
ENDBRANCH 14 17
ENDBRANCH 1 14
TORSDOF 12
ENDMDL
MODEL 32
REMARK VINA RESULT:      -8.4     24.098     28.586
ROOT
ATOM      1  C1  GAD B   1      -4.350  18.861  59.0850  0.00  0.00     0.000 C
ATOM      2  C2  GAD B   1      -3.806  19.074  57.6690  0.00  0.00     0.000 C
ATOM      3  C3  GAD B   1      -4.841  19.816  56.8140  0.00  0.00     0.000 C
ATOM      4  C4  GAD B   1      -6.297  19.512  57.1740  0.00  0.00     0.000 C
ATOM      5  C5  GAD B   1      -6.679  18.786  58.2430  0.00  0.00     0.000 C
ATOM      6  O5  GAD B   1      -5.637  18.227  59.0660  0.00  0.00     0.000 O
ATOM      7   O  GAD B   1      -2.494  19.748  57.6920  0.00  0.00     0.000 O
ATOM      9  HD  GAD B   1      -2.543  19.509  58.5230  0.00  0.00     0.000 HD
ATOM      9   O  GAD B   1      -4.699  19.495  55.4120  0.00  0.00     0.000 O
ATOM     11  HD  GAD B   1      -4.749  19.256  56.2430  0.00  0.00     0.000 HD
ENDROOT
BRANCH 5 11
ATOM     11   C  GAD B   1      -8.085  18.575  58.6610  0.00  0.00     0.000 C
ATOM     12   O  GAD B   1      -8.893  19.536  58.4680  0.00  0.00     0.000 OA
ATOM     13   O  GAD B   1      -8.425  17.490  59.2630  0.00  0.00     0.000 OA
ENDBRANCH 5 11
BRANCH 1 14
ATOM     14  O3  ASG B   2      -3.895  17.917  59.9300  0.00  0.00     0.000 O
BRANCH 14 17
ATOM     15  C1  ASG B   2      -0.709  16.924  61.7040  0.00  0.00     0.000 C
ATOM     16  C2  ASG B   2      -1.839  16.815  60.6700  0.00  0.00     0.000 C
ATOM     17  C3  ASG B   2      -2.821  17.972  60.8760  0.00  0.00     0.000 C
ATOM     18  C4  ASG B   2      -3.380  17.933  62.2860  0.00  0.00     0.000 C
ATOM     19  C5  ASG B   2      -2.224  17.917  63.2800  0.00  0.00     0.000 C
ATOM     20  O5  ASG B   2      -1.326  16.831  62.9750  0.00  0.00     0.000 O
ATOM     21   C  ASG B   2      -2.676  17.711  64.6910  0.00  0.00     0.000 C
ATOM     22   O  ASG B   2      -1.555  17.495  65.5120  0.00  0.00     0.000 O
ATOM     24  HD  ASG B   2      -0.965  17.352  66.1300  0.00  0.00     0.000 HD
BRANCH 16 26
ATOM     24   N  ASG B   2      -1.382  16.724  59.3030  0.00  0.00     0.000 N
ATOM     26  HD  ASG B   2      -0.898  16.460  59.9700  0.00  0.00     0.000 HD
ATOM     26   C  ASG B   2      -2.007  16.013  58.3460  0.00  0.00     0.000 C
ATOM     27   C  ASG B   2      -1.602  16.306  56.9420  0.00  0.00     0.000 C
ATOM     28   O  ASG B   2      -2.859  15.176  58.6180  0.00  0.00     0.000 OA
ENDBRANCH 16 26
BRANCH 18 29
ATOM     29   O  ASG B   2      -4.219  16.730  62.3680  0.00  0.00     0.000 O
ATOM     30   O  ASG B   2      -5.683  17.625  64.1280  0.00  0.00     0.000 OA
ATOM     31   O  ASG B   2      -6.498  17.450  61.8480  0.00  0.00     0.000 OA
ATOM     32   O  ASG B   2      -6.113  15.451  63.1520  0.00  0.00     0.000 OA
ATOM     33   S  ASG B   2      -5.729  16.842  62.9080  0.00  0.00     0.000 S
ENDBRANCH 18 29
BRANCH 15 34
ATOM     34  O4  ASG B   3       0.249  15.910  61.5980  0.00  0.00     0.000 O
BRANCH 34 38
ATOM     35  C1  GCT B   3       3.274  14.138  63.6160  0.00  0.00     0.000 C
ATOM     36  C2  GCT B   3       2.084  13.236  63.3730  0.00  0.00     0.000 C
ATOM     37  C3  GCT B   3       1.199  13.792  62.2670  0.00  0.00     0.000 C
ATOM     38  C4  GCT B   3       0.704  15.187  62.6710  0.00  0.00     0.000 C
ATOM     39  C5  GCT B   3       1.757  15.957  63.5000  0.00  0.00     0.000 C
ATOM     40  O5  GCT B   3       3.023  15.449  63.1200  0.00  0.00     0.000 O
ATOM     41   O  GCT B   3       2.608  11.971  62.9960  0.00  0.00     0.000 O
ATOM     43  HD  GCT B   3       2.969  11.331  63.4540  0.00  0.00     0.000 HD
ATOM     43   O  GCT B   3       0.121  12.862  62.0290  0.00  0.00     0.000 O
ATOM     45  HD  GCT B   3       0.483  12.223  62.4880  0.00  0.00     0.000 HD
BRANCH 39 45
ATOM     45   C  GCT B   3       1.641  15.935  65.0090  0.00  0.00     0.000 C
ATOM     46   O  GCT B   3       0.647  15.358  65.5530  0.00  0.00     0.000 OA
ATOM     47   O  GCT B   3       2.543  16.479  65.6660  0.00  0.00     0.000 OA
ENDBRANCH 39 45
BRANCH 35 48
ATOM     48  O3  ASG B   4       3.869  13.783  64.7350  0.00  0.00     0.000 O
BRANCH 48 51
ATOM     49  C1  ASG B   4       7.337  12.610  64.1990  0.00  0.00     0.000 C
ATOM     50  C2  ASG B   4       5.800  12.640  64.1630  0.00  0.00     0.000 C
ATOM     51  C3  ASG B   4       5.263  13.999  64.6050  0.00  0.00     0.000 C
ATOM     52  C4  ASG B   4       5.889  14.438  65.9190  0.00  0.00     0.000 C
ATOM     53  C5  ASG B   4       7.406  14.391  65.7610  0.00  0.00     0.000 C
ATOM     54  O5  ASG B   4       7.809  13.039  65.4650  0.00  0.00     0.000 O
BRANCH 50 57
ATOM     55   N  ASG B   4       6.281  12.037  62.9420  0.00  0.00     0.000 N
ATOM     57  HD  ASG B   4       6.204  11.210  63.1840  0.00  0.00     0.000 HD
ATOM     57   O  ASG B   4       5.139  10.129  63.2050  0.00  0.00     0.000 OA
ATOM     58   C  ASG B   4       5.829  10.860  62.5000  0.00  0.00     0.000 C
ATOM     59   C  ASG B   4       6.263  10.475  61.1200  0.00  0.00     0.000 C
ENDBRANCH 50 57
BRANCH 52 60
ATOM     60   O  ASG B   4       5.340  13.471  66.9040  0.00  0.00     0.000 O
ATOM     61   O  ASG B   4       4.380  15.277  68.3350  0.00  0.00     0.000 OA
ATOM     62   O  ASG B   4       3.952  12.995  68.8610  0.00  0.00     0.000 OA
ATOM     63   O  ASG B   4       6.191  13.823  69.0020  0.00  0.00     0.000 OA
ATOM     64   S  ASG B   4       4.876  13.942  68.3650  0.00  0.00     0.000 S
ENDBRANCH 52 60
ATOM     65   O  ASG B   4       9.547  15.108  66.6450  0.00  0.00     0.000 O
ATOM     67  HD  ASG B   4       9.852  14.301  66.5690  0.00  0.00     0.000 HD
ATOM     67   O  ASG B   4       9.547  15.108  66.6450  0.00  0.00     0.000 O
ATOM     69  HD  ASG B   4       9.852  14.301  66.5690  0.00  0.00     0.000 HD
ENDBRANCH 48 51
ENDBRANCH 35 48
ENDBRANCH 34 38
ENDBRANCH 15 34
ENDBRANCH 14 17
ENDBRANCH 1 14
TORSDOF 12
ENDMDL
MODEL 33
REMARK VINA RESULT:      -8.4     27.624     30.882
ROOT
ATOM      1  C1  GAD B   1     -11.320  52.099  48.1950  0.00  0.00     0.000 C
ATOM      2  C2  GAD B   1     -12.151  52.841  47.1440  0.00  0.00     0.000 C
ATOM      3  C3  GAD B   1     -12.350  54.302  47.5640  0.00  0.00     0.000 C
ATOM      4  C4  GAD B   1     -12.423  54.524  49.0770  0.00  0.00     0.000 C
ATOM      5  C5  GAD B   1     -12.180  53.568  49.9960  0.00  0.00     0.000 C
ATOM      6  O5  GAD B   1     -11.879  52.247  49.5090  0.00  0.00     0.000 O
ATOM      7   O  GAD B   1     -11.560  52.707  45.7980  0.00  0.00     0.000 O
ATOM      9  HD  GAD B   1     -11.127  52.077  46.2050  0.00  0.00     0.000 HD
ATOM      9   O  GAD B   1     -13.571  54.850  47.0190  0.00  0.00     0.000 O
ATOM     11  HD  GAD B   1     -13.138  54.219  47.4250  0.00  0.00     0.000 HD
ENDROOT
BRANCH 5 11
ATOM     11   C  GAD B   1     -12.144  53.797  51.4600  0.00  0.00     0.000 C
ATOM     12   O  GAD B   1     -11.225  53.209  52.1110  0.00  0.00     0.000 OA
ATOM     13   O  GAD B   1     -13.062  54.495  52.0280  0.00  0.00     0.000 OA
ENDBRANCH 5 11
BRANCH 1 14
ATOM     14  O3  ASG B   2     -11.316  50.761  48.3440  0.00  0.00     0.000 O
BRANCH 14 17
ATOM     15  C1  ASG B   2     -12.776  48.039  50.5200  0.00  0.00     0.000 C
ATOM     16  C2  ASG B   2     -11.677  48.934  49.9310  0.00  0.00     0.000 C
ATOM     17  C3  ASG B   2     -12.304  49.899  48.9210  0.00  0.00     0.000 C
ATOM     18  C4  ASG B   2     -13.002  49.118  47.8230  0.00  0.00     0.000 C
ATOM     19  C5  ASG B   2     -13.997  48.151  48.4560  0.00  0.00     0.000 C
ATOM     20  O5  ASG B   2     -13.330  47.325  49.4310  0.00  0.00     0.000 O
ATOM     21   C  ASG B   2     -14.614  47.221  47.4610  0.00  0.00     0.000 C
ATOM     22   O  ASG B   2     -15.347  46.231  48.1400  0.00  0.00     0.000 O
ATOM     24  HD  ASG B   2     -15.832  45.571  48.4200  0.00  0.00     0.000 HD
BRANCH 16 26
ATOM     24   N  ASG B   2     -10.881  49.620  50.9230  0.00  0.00     0.000 N
ATOM     26  HD  ASG B   2     -11.277  48.867  51.0880  0.00  0.00     0.000 HD
ATOM     26   C  ASG B   2      -9.573  49.901  50.7770  0.00  0.00     0.000 C
ATOM     27   C  ASG B   2      -9.006  50.898  51.7280  0.00  0.00     0.000 C
ATOM     28   O  ASG B   2      -8.893  49.366  49.9100  0.00  0.00     0.000 OA
ENDBRANCH 16 26
BRANCH 18 29
ATOM     29   O  ASG B   2     -11.947  48.435  47.0630  0.00  0.00     0.000 O
ATOM     30   O  ASG B   2     -13.136  48.559  44.9140  0.00  0.00     0.000 OA
ATOM     31   O  ASG B   2     -11.229  50.003  45.3300  0.00  0.00     0.000 OA
ATOM     32   O  ASG B   2     -10.905  47.625  45.0380  0.00  0.00     0.000 OA
ATOM     33   S  ASG B   2     -11.807  48.689  45.4820  0.00  0.00     0.000 S
ENDBRANCH 18 29
BRANCH 15 34
ATOM     34  O4  ASG B   3     -12.306  47.120  51.4640  0.00  0.00     0.000 O
BRANCH 34 38
ATOM     35  C1  GCT B   3     -14.544  48.496  54.5400  0.00  0.00     0.000 C
ATOM     36  C2  GCT B   3     -13.217  47.903  54.9610  0.00  0.00     0.000 C
ATOM     37  C3  GCT B   3     -12.264  47.814  53.7770  0.00  0.00     0.000 C
ATOM     38  C4  GCT B   3     -12.891  46.932  52.6910  0.00  0.00     0.000 C
ATOM     39  C5  GCT B   3     -14.429  47.079  52.6410  0.00  0.00     0.000 C
ATOM     40  O5  GCT B   3     -14.728  48.373  53.1340  0.00  0.00     0.000 O
ATOM     41   O  GCT B   3     -12.687  48.768  55.9560  0.00  0.00     0.000 O
ATOM     43  HD  GCT B   3     -12.878  48.875  56.7940  0.00  0.00     0.000 HD
ATOM     43   O  GCT B   3     -10.995  47.310  54.2460  0.00  0.00     0.000 O
ATOM     45  HD  GCT B   3     -11.187  47.417  55.0840  0.00  0.00     0.000 HD
BRANCH 39 45
ATOM     45   C  GCT B   3     -15.273  46.058  53.3720  0.00  0.00     0.000 C
ATOM     46   O  GCT B   3     -14.706  45.105  53.9940  0.00  0.00     0.000 OA
ATOM     47   O  GCT B   3     -16.506  46.202  53.3470  0.00  0.00     0.000 OA
ENDBRANCH 39 45
BRANCH 35 48
ATOM     48  O3  ASG B   4     -15.424  48.319  55.5020  0.00  0.00     0.000 O
BRANCH 48 51
ATOM     49  C1  ASG B   4     -17.036  50.884  57.6260  0.00  0.00     0.000 C
ATOM     50  C2  ASG B   4     -16.095  49.746  57.1970  0.00  0.00     0.000 C
ATOM     51  C3  ASG B   4     -16.151  49.521  55.6890  0.00  0.00     0.000 C
ATOM     52  C4  ASG B   4     -17.586  49.391  55.2050  0.00  0.00     0.000 C
ATOM     53  C5  ASG B   4     -18.359  50.618  55.6780  0.00  0.00     0.000 C
ATOM     54  O5  ASG B   4     -18.341  50.661  57.1180  0.00  0.00     0.000 O
BRANCH 50 57
ATOM     55   N  ASG B   4     -14.945  50.369  57.8120  0.00  0.00     0.000 N
ATOM     57  HD  ASG B   4     -15.123  50.156  58.6320  0.00  0.00     0.000 HD
ATOM     57   O  ASG B   4     -14.895  48.987  59.5730  0.00  0.00     0.000 OA
ATOM     58   C  ASG B   4     -14.365  49.873  58.9080  0.00  0.00     0.000 C
ATOM     59   C  ASG B   4     -13.063  50.504  59.2950  0.00  0.00     0.000 C
ENDBRANCH 50 57
BRANCH 52 60
ATOM     60   O  ASG B   4     -18.039  48.107  55.8010  0.00  0.00     0.000 O
ATOM     61   O  ASG B   4     -19.552  47.602  53.8810  0.00  0.00     0.000 OA
ATOM     62   O  ASG B   4     -19.253  45.993  55.6100  0.00  0.00     0.000 OA
ATOM     63   O  ASG B   4     -20.306  48.077  56.1270  0.00  0.00     0.000 OA
ATOM     64   S  ASG B   4     -19.355  47.361  55.2710  0.00  0.00     0.000 S
ENDBRANCH 52 60
ATOM     65   O  ASG B   4     -20.352  51.973  55.4070  0.00  0.00     0.000 O
ATOM     67  HD  ASG B   4     -20.461  51.990  56.2660  0.00  0.00     0.000 HD
ATOM     67   O  ASG B   4     -20.352  51.973  55.4070  0.00  0.00     0.000 O
ATOM     69  HD  ASG B   4     -20.461  51.990  56.2660  0.00  0.00     0.000 HD
ENDBRANCH 48 51
ENDBRANCH 35 48
ENDBRANCH 34 38
ENDBRANCH 15 34
ENDBRANCH 14 17
ENDBRANCH 1 14
TORSDOF 12
ENDMDL
MODEL 34
REMARK VINA RESULT:      -8.4      4.740      6.831
ROOT
ATOM      1  C1  GAD B   1      -0.000  37.184  79.0880  0.00  0.00     0.000 C
ATOM      2  C2  GAD B   1      -0.118  36.315  80.3440  0.00  0.00     0.000 C
ATOM      3  C3  GAD B   1       0.873  36.794  81.4110  0.00  0.00     0.000 C
ATOM      4  C4  GAD B   1       2.171  37.383  80.8530  0.00  0.00     0.000 C
ATOM      5  C5  GAD B   1       2.395  37.624  79.5460  0.00  0.00     0.000 C
ATOM      6  O5  GAD B   1       1.355  37.255  78.6210  0.00  0.00     0.000 O
ATOM      7   O  GAD B   1      -1.508  36.265  80.8350  0.00  0.00     0.000 O
ATOM      9  HD  GAD B   1      -1.651  36.582  80.0420  0.00  0.00     0.000 HD
ATOM      9   O  GAD B   1       1.268  35.717  82.2910  0.00  0.00     0.000 O
ATOM     11  HD  GAD B   1       1.125  36.034  81.4980  0.00  0.00     0.000 HD
ENDROOT
BRANCH 5 11
ATOM     11   C  GAD B   1       3.603  38.292  79.0070  0.00  0.00     0.000 C
ATOM     12   O  GAD B   1       4.321  38.937  79.8320  0.00  0.00     0.000 OA
ATOM     13   O  GAD B   1       3.844  38.270  77.7430  0.00  0.00     0.000 OA
ENDBRANCH 5 11
BRANCH 1 14
ATOM     14  O3  ASG B   2      -0.405  36.796  77.8650  0.00  0.00     0.000 O
BRANCH 14 17
ATOM     15  C1  ASG B   2      -2.983  34.665  76.1070  0.00  0.00     0.000 C
ATOM     16  C2  ASG B   2      -1.579  35.098  76.5510  0.00  0.00     0.000 C
ATOM     17  C3  ASG B   2      -1.693  36.353  77.4210  0.00  0.00     0.000 C
ATOM     18  C4  ASG B   2      -2.373  37.463  76.6420  0.00  0.00     0.000 C
ATOM     19  C5  ASG B   2      -3.710  36.953  76.1120  0.00  0.00     0.000 C
ATOM     20  O5  ASG B   2      -3.511  35.742  75.3560  0.00  0.00     0.000 O
ATOM     21   C  ASG B   2      -4.377  37.925  75.1920  0.00  0.00     0.000 C
ATOM     22   O  ASG B   2      -5.483  37.306  74.5830  0.00  0.00     0.000 O
ATOM     24  HD  ASG B   2      -6.185  37.058  74.1410  0.00  0.00     0.000 HD
BRANCH 16 26
ATOM     24   N  ASG B   2      -0.204  34.733  76.2960  0.00  0.00     0.000 N
ATOM     26  HD  ASG B   2      -0.451  35.555  76.4080  0.00  0.00     0.000 HD
ATOM     26   C  ASG B   2       0.520  33.925  77.0910  0.00  0.00     0.000 C
ATOM     27   C  ASG B   2       1.781  33.388  76.5060  0.00  0.00     0.000 C
ATOM     28   O  ASG B   2       0.160  33.649  78.2290  0.00  0.00     0.000 OA
ENDBRANCH 16 26
BRANCH 18 29
ATOM     29   O  ASG B   2      -1.445  37.850  75.5710  0.00  0.00     0.000 O
ATOM     30   O  ASG B   2      -2.092  40.221  75.5900  0.00  0.00     0.000 OA
ATOM     31   O  ASG B   2       0.040  39.539  76.5300  0.00  0.00     0.000 OA
ATOM     32   O  ASG B   2      -0.317  39.438  74.1410  0.00  0.00     0.000 OA
ATOM     33   S  ASG B   2      -0.926  39.367  75.4700  0.00  0.00     0.000 S
ENDBRANCH 18 29
BRANCH 15 34
ATOM     34  O4  ASG B   3      -2.991  33.517  75.3080  0.00  0.00     0.000 O
BRANCH 34 38
ATOM     35  C1  GCT B   3      -3.673  30.926  78.3380  0.00  0.00     0.000 C
ATOM     36  C2  GCT B   3      -2.831  30.355  77.2180  0.00  0.00     0.000 C
ATOM     37  C3  GCT B   3      -2.255  31.467  76.3530  0.00  0.00     0.000 C
ATOM     38  C4  GCT B   3      -3.404  32.288  75.7560  0.00  0.00     0.000 C
ATOM     39  C5  GCT B   3      -4.609  32.385  76.7190  0.00  0.00     0.000 C
ATOM     40  O5  GCT B   3      -4.090  32.252  78.0310  0.00  0.00     0.000 O
ATOM     41   O  GCT B   3      -1.784  29.619  77.8350  0.00  0.00     0.000 O
ATOM     43  HD  GCT B   3      -1.767  28.840  78.2130  0.00  0.00     0.000 HD
ATOM     43   O  GCT B   3      -1.407  30.874  75.3460  0.00  0.00     0.000 O
ATOM     45  HD  GCT B   3      -1.390  30.096  75.7250  0.00  0.00     0.000 HD
BRANCH 39 45
ATOM     45   C  GCT B   3      -5.757  31.416  76.5340  0.00  0.00     0.000 C
ATOM     46   O  GCT B   3      -6.746  31.457  77.3320  0.00  0.00     0.000 OA
ATOM     47   O  GCT B   3      -5.692  30.616  75.5870  0.00  0.00     0.000 OA
ENDBRANCH 39 45
BRANCH 35 48
ATOM     48  O3  ASG B   4      -4.363  29.957  78.9000  0.00  0.00     0.000 O
BRANCH 48 51
ATOM     49  C1  ASG B   4      -3.556  29.818  82.5090  0.00  0.00     0.000 C
ATOM     50  C2  ASG B   4      -3.371  29.761  80.9830  0.00  0.00     0.000 C
ATOM     51  C3  ASG B   4      -4.605  30.289  80.2570  0.00  0.00     0.000 C
ATOM     52  C4  ASG B   4      -5.873  29.635  80.7790  0.00  0.00     0.000 C
ATOM     53  C5  ASG B   4      -5.916  29.824  82.2920  0.00  0.00     0.000 C
ATOM     54  O5  ASG B   4      -4.768  29.182  82.8810  0.00  0.00     0.000 O
BRANCH 50 57
ATOM     55   N  ASG B   4      -2.157  30.400  81.4360  0.00  0.00     0.000 N
ATOM     57  HD  ASG B   4      -1.680  29.684  81.5370  0.00  0.00     0.000 HD
ATOM     57   O  ASG B   4      -0.798  28.783  80.6930  0.00  0.00     0.000 OA
ATOM     58   C  ASG B   4      -0.945  29.907  81.1620  0.00  0.00     0.000 C
ATOM     59   C  ASG B   4       0.210  30.794  81.5130  0.00  0.00     0.000 C
ENDBRANCH 50 57
BRANCH 52 60
ATOM     60   O  ASG B   4      -5.743  28.223  80.3350  0.00  0.00     0.000 O
ATOM     61   O  ASG B   4      -8.052  28.172  79.3880  0.00  0.00     0.000 OA
ATOM     62   O  ASG B   4      -6.609  26.301  79.0940  0.00  0.00     0.000 OA
ATOM     63   O  ASG B   4      -7.330  26.882  81.2990  0.00  0.00     0.000 OA
ATOM     64   S  ASG B   4      -7.029  27.350  79.9420  0.00  0.00     0.000 S
ENDBRANCH 52 60
ATOM     65   O  ASG B   4      -7.288  29.776  84.2910  0.00  0.00     0.000 O
ATOM     67  HD  ASG B   4      -6.677  29.321  84.7040  0.00  0.00     0.000 HD
ATOM     67   O  ASG B   4      -7.288  29.776  84.2910  0.00  0.00     0.000 O
ATOM     69  HD  ASG B   4      -6.677  29.321  84.7040  0.00  0.00     0.000 HD
ENDBRANCH 48 51
ENDBRANCH 35 48
ENDBRANCH 34 38
ENDBRANCH 15 34
ENDBRANCH 14 17
ENDBRANCH 1 14
TORSDOF 12
ENDMDL
MODEL 35
REMARK VINA RESULT:      -8.4     25.906     30.440
ROOT
ATOM      1  C1  GAD B   1     -21.334  46.564  57.7070  0.00  0.00     0.000 C
ATOM      2  C2  GAD B   1     -20.951  46.492  59.1880  0.00  0.00     0.000 C
ATOM      3  C3  GAD B   1     -22.162  46.064  60.0250  0.00  0.00     0.000 C
ATOM      4  C4  GAD B   1     -23.512  46.533  59.4740  0.00  0.00     0.000 C
ATOM      5  C5  GAD B   1     -23.677  47.135  58.2790  0.00  0.00     0.000 C
ATOM      6  O5  GAD B   1     -22.491  47.388  57.5010  0.00  0.00     0.000 O
ATOM      7   O  GAD B   1     -19.776  45.625  59.3980  0.00  0.00     0.000 O
ATOM      9  HD  GAD B   1     -19.716  45.736  58.5410  0.00  0.00     0.000 HD
ATOM      9   O  GAD B   1     -22.082  46.573  61.3750  0.00  0.00     0.000 O
ATOM     11  HD  GAD B   1     -22.022  46.684  60.5180  0.00  0.00     0.000 HD
ENDROOT
BRANCH 5 11
ATOM     11   C  GAD B   1     -24.987  47.496  57.6910  0.00  0.00     0.000 C
ATOM     12   O  GAD B   1     -24.978  47.963  56.5090  0.00  0.00     0.000 OA
ATOM     13   O  GAD B   1     -26.059  47.409  58.3970  0.00  0.00     0.000 OA
ENDBRANCH 5 11
BRANCH 1 14
ATOM     14  O3  ASG B   2     -20.657  47.281  56.7900  0.00  0.00     0.000 O
BRANCH 14 17
ATOM     15  C1  ASG B   2     -17.391  48.884  55.7700  0.00  0.00     0.000 C
ATOM     16  C2  ASG B   2     -18.912  48.775  55.9470  0.00  0.00     0.000 C
ATOM     17  C3  ASG B   2     -19.246  47.430  56.5990  0.00  0.00     0.000 C
ATOM     18  C4  ASG B   2     -18.725  46.294  55.7390  0.00  0.00     0.000 C
ATOM     19  C5  ASG B   2     -17.237  46.506  55.4820  0.00  0.00     0.000 C
ATOM     20  O5  ASG B   2     -17.014  47.815  54.9220  0.00  0.00     0.000 O
ATOM     21   C  ASG B   2     -16.672  45.524  54.5050  0.00  0.00     0.000 C
ATOM     22   O  ASG B   2     -15.365  45.910  54.1590  0.00  0.00     0.000 O
ATOM     24  HD  ASG B   2     -14.560  46.024  53.8600  0.00  0.00     0.000 HD
BRANCH 16 26
ATOM     24   N  ASG B   2     -19.646  49.685  56.7960  0.00  0.00     0.000 N
ATOM     26  HD  ASG B   2     -18.810  49.804  56.6050  0.00  0.00     0.000 HD
ATOM     26   C  ASG B   2     -20.735  50.370  56.4010  0.00  0.00     0.000 C
ATOM     27   C  ASG B   2     -21.553  50.983  57.4850  0.00  0.00     0.000 C
ATOM     28   O  ASG B   2     -21.033  50.481  55.2180  0.00  0.00     0.000 OA
ENDBRANCH 16 26
BRANCH 18 29
ATOM     29   O  ASG B   2     -19.524  46.305  54.5060  0.00  0.00     0.000 O
ATOM     30   O  ASG B   2     -19.381  43.877  54.1510  0.00  0.00     0.000 OA
ATOM     31   O  ASG B   2     -21.456  44.868  54.9300  0.00  0.00     0.000 OA
ATOM     32   O  ASG B   2     -20.700  45.265  52.6690  0.00  0.00     0.000 OA
ATOM     33   S  ASG B   2     -20.315  44.983  54.0520  0.00  0.00     0.000 S
ENDBRANCH 18 29
BRANCH 15 34
ATOM     34  O4  ASG B   3     -16.978  50.086  55.1840  0.00  0.00     0.000 O
BRANCH 34 38
ATOM     35  C1  GCT B   3     -13.469  49.143  53.4060  0.00  0.00     0.000 C
ATOM     36  C2  GCT B   3     -13.343  49.481  54.8750  0.00  0.00     0.000 C
ATOM     37  C3  GCT B   3     -14.695  49.395  55.5690  0.00  0.00     0.000 C
ATOM     38  C4  GCT B   3     -15.667  50.377  54.9030  0.00  0.00     0.000 C
ATOM     39  C5  GCT B   3     -15.404  50.515  53.3870  0.00  0.00     0.000 C
ATOM     40  O5  GCT B   3     -14.814  49.297  52.9660  0.00  0.00     0.000 O
ATOM     41   O  GCT B   3     -12.443  48.534  55.4320  0.00  0.00     0.000 O
ATOM     43  HD  GCT B   3     -11.580  48.464  55.3980  0.00  0.00     0.000 HD
ATOM     43   O  GCT B   3     -14.508  49.658  56.9760  0.00  0.00     0.000 O
ATOM     45  HD  GCT B   3     -13.646  49.587  56.9420  0.00  0.00     0.000 HD
BRANCH 39 45
ATOM     45   C  GCT B   3     -14.557  51.673  52.9060  0.00  0.00     0.000 C
ATOM     46   O  GCT B   3     -14.446  51.893  51.6590  0.00  0.00     0.000 OA
ATOM     47   O  GCT B   3     -14.007  52.382  53.7640  0.00  0.00     0.000 OA
ENDBRANCH 39 45
BRANCH 35 48
ATOM     48  O3  ASG B   4     -12.358  49.478  52.7860  0.00  0.00     0.000 O
BRANCH 48 51
ATOM     49  C1  ASG B   4     -11.182  47.228  50.0940  0.00  0.00     0.000 C
ATOM     50  C2  ASG B   4     -11.456  47.772  51.5060  0.00  0.00     0.000 C
ATOM     51  C3  ASG B   4     -12.398  48.972  51.4620  0.00  0.00     0.000 C
ATOM     52  C4  ASG B   4     -11.928  50.005  50.4510  0.00  0.00     0.000 C
ATOM     53  C5  ASG B   4     -11.751  49.306  49.1060  0.00  0.00     0.000 C
ATOM     54  O5  ASG B   4     -10.753  48.275  49.2380  0.00  0.00     0.000 O
BRANCH 50 57
ATOM     55   N  ASG B   4     -12.021  46.791  52.4040  0.00  0.00     0.000 N
ATOM     57  HD  ASG B   4     -11.356  46.237  52.4020  0.00  0.00     0.000 HD
ATOM     57   O  ASG B   4     -10.043  46.040  53.1380  0.00  0.00     0.000 OA
ATOM     58   C  ASG B   4     -11.266  46.066  53.2350  0.00  0.00     0.000 C
ATOM     59   C  ASG B   4     -12.014  45.254  54.2480  0.00  0.00     0.000 C
ENDBRANCH 50 57
BRANCH 52 60
ATOM     60   O  ASG B   4     -10.671  50.526  51.0470  0.00  0.00     0.000 O
ATOM     61   O  ASG B   4     -11.456  52.894  50.9520  0.00  0.00     0.000 OA
ATOM     62   O  ASG B   4      -9.383  52.374  52.0020  0.00  0.00     0.000 OA
ATOM     63   O  ASG B   4      -9.622  52.009  49.6510  0.00  0.00     0.000 OA
ATOM     64   S  ASG B   4     -10.287  52.080  50.9560  0.00  0.00     0.000 S
ENDBRANCH 52 60
ATOM     65   O  ASG B   4     -11.522  49.579  46.7080  0.00  0.00     0.000 O
ATOM     67  HD  ASG B   4     -10.860  49.021  46.7040  0.00  0.00     0.000 HD
ATOM     67   O  ASG B   4     -11.522  49.579  46.7080  0.00  0.00     0.000 O
ATOM     69  HD  ASG B   4     -10.860  49.021  46.7040  0.00  0.00     0.000 HD
ENDBRANCH 48 51
ENDBRANCH 35 48
ENDBRANCH 34 38
ENDBRANCH 15 34
ENDBRANCH 14 17
ENDBRANCH 1 14
TORSDOF 12
ENDMDL
MODEL 36
REMARK VINA RESULT:      -8.4      6.918     12.539
ROOT
ATOM      1  C1  GAD B   1     -11.462  32.438  76.0100  0.00  0.00     0.000 C
ATOM      2  C2  GAD B   1     -10.670  33.500  76.7790  0.00  0.00     0.000 C
ATOM      3  C3  GAD B   1      -9.561  34.077  75.8910  0.00  0.00     0.000 C
ATOM      4  C4  GAD B   1      -8.975  33.084  74.8830  0.00  0.00     0.000 C
ATOM      5  C5  GAD B   1      -9.471  31.852  74.6550  0.00  0.00     0.000 C
ATOM      6  O5  GAD B   1     -10.597  31.437  75.4520  0.00  0.00     0.000 O
ATOM      7   O  GAD B   1     -11.560  34.541  77.3300  0.00  0.00     0.000 O
ATOM      9  HD  GAD B   1     -12.151  33.936  77.1410  0.00  0.00     0.000 HD
ATOM      9   O  GAD B   1      -8.446  34.554  76.6770  0.00  0.00     0.000 O
ATOM     11  HD  GAD B   1      -9.037  33.950  76.4890  0.00  0.00     0.000 HD
ENDROOT
BRANCH 5 11
ATOM     11   C  GAD B   1      -8.979  30.925  73.6090  0.00  0.00     0.000 C
ATOM     12   O  GAD B   1      -9.745  30.719  72.6160  0.00  0.00     0.000 OA
ATOM     13   O  GAD B   1      -7.861  30.309  73.7660  0.00  0.00     0.000 OA
ENDBRANCH 5 11
BRANCH 1 14
ATOM     14  O3  ASG B   2     -12.199  31.478  76.5980  0.00  0.00     0.000 O
BRANCH 14 17
ATOM     15  C1  ASG B   2     -12.337  28.843  79.3040  0.00  0.00     0.000 C
ATOM     16  C2  ASG B   2     -12.492  29.420  77.8890  0.00  0.00     0.000 C
ATOM     17  C3  ASG B   2     -12.075  30.893  77.9000  0.00  0.00     0.000 C
ATOM     18  C4  ASG B   2     -12.928  31.666  78.8880  0.00  0.00     0.000 C
ATOM     19  C5  ASG B   2     -12.846  30.989  80.2530  0.00  0.00     0.000 C
ATOM     20  O5  ASG B   2     -13.200  29.597  80.1350  0.00  0.00     0.000 O
ATOM     21   C  ASG B   2     -13.785  31.584  81.2520  0.00  0.00     0.000 C
ATOM     22   O  ASG B   2     -13.808  30.781  82.4060  0.00  0.00     0.000 O
ATOM     24  HD  ASG B   2     -13.920  30.389  83.1700  0.00  0.00     0.000 HD
BRANCH 16 26
ATOM     24   N  ASG B   2     -11.799  28.678  76.8620  0.00  0.00     0.000 N
ATOM     26  HD  ASG B   2     -12.061  28.310  77.6010  0.00  0.00     0.000 HD
ATOM     26   C  ASG B   2     -12.255  28.527  75.6050  0.00  0.00     0.000 C
ATOM     27   C  ASG B   2     -11.266  28.036  74.6030  0.00  0.00     0.000 C
ATOM     28   O  ASG B   2     -13.415  28.779  75.3060  0.00  0.00     0.000 OA
ENDBRANCH 16 26
BRANCH 18 29
ATOM     29   O  ASG B   2     -14.291  31.681  78.3410  0.00  0.00     0.000 O
ATOM     30   O  ASG B   2     -14.864  33.875  79.2890  0.00  0.00     0.000 OA
ATOM     31   O  ASG B   2     -14.430  33.660  76.9110  0.00  0.00     0.000 OA
ATOM     32   O  ASG B   2     -16.431  32.698  77.8670  0.00  0.00     0.000 OA
ATOM     33   S  ASG B   2     -15.036  33.082  78.0870  0.00  0.00     0.000 S
ENDBRANCH 18 29
BRANCH 15 34
ATOM     34  O4  ASG B   3     -12.689  27.493  79.4020  0.00  0.00     0.000 O
BRANCH 34 38
ATOM     35  C1  GCT B   3      -9.249  25.420  78.9220  0.00  0.00     0.000 C
ATOM     36  C2  GCT B   3     -10.476  24.549  79.0810  0.00  0.00     0.000 C
ATOM     37  C3  GCT B   3     -11.745  25.347  78.8190  0.00  0.00     0.000 C
ATOM     38  C4  GCT B   3     -11.820  26.514  79.8110  0.00  0.00     0.000 C
ATOM     39  C5  GCT B   3     -10.420  27.073  80.1560  0.00  0.00     0.000 C
ATOM     40  O5  GCT B   3      -9.589  26.797  79.0420  0.00  0.00     0.000 O
ATOM     41   O  GCT B   3     -10.350  23.499  78.1330  0.00  0.00     0.000 O
ATOM     43  HD  GCT B   3      -9.869  22.779  78.1230  0.00  0.00     0.000 HD
ATOM     43   O  GCT B   3     -12.876  24.456  78.9150  0.00  0.00     0.000 O
ATOM     45  HD  GCT B   3     -12.395  23.737  78.9060  0.00  0.00     0.000 HD
BRANCH 39 45
ATOM     45   C  GCT B   3      -9.742  26.587  81.4180  0.00  0.00     0.000 C
ATOM     46   O  GCT B   3     -10.342  25.759  82.1730  0.00  0.00     0.000 OA
ATOM     47   O  GCT B   3      -8.602  27.014  81.6630  0.00  0.00     0.000 OA
ENDBRANCH 39 45
BRANCH 35 48
ATOM     48  O3  ASG B   4      -8.201  24.788  79.4040  0.00  0.00     0.000 O
BRANCH 48 51
ATOM     49  C1  ASG B   4      -5.217  23.096  78.0170  0.00  0.00     0.000 C
ATOM     50  C2  ASG B   4      -6.351  23.458  78.9900  0.00  0.00     0.000 C
ATOM     51  C3  ASG B   4      -7.375  24.376  78.3290  0.00  0.00     0.000 C
ATOM     52  C4  ASG B   4      -6.700  25.559  77.6540  0.00  0.00     0.000 C
ATOM     53  C5  ASG B   4      -5.642  25.018  76.6960  0.00  0.00     0.000 C
ATOM     54  O5  ASG B   4      -4.664  24.271  77.4470  0.00  0.00     0.000 O
BRANCH 50 57
ATOM     55   N  ASG B   4      -7.013  22.271  79.4800  0.00  0.00     0.000 N
ATOM     57  HD  ASG B   4      -6.340  21.933  79.9080  0.00  0.00     0.000 HD
ATOM     57   O  ASG B   4      -5.698  22.045  81.2780  0.00  0.00     0.000 OA
ATOM     58   C  ASG B   4      -6.698  21.710  80.6520  0.00  0.00     0.000 C
ATOM     59   C  ASG B   4      -7.615  20.620  81.1150  0.00  0.00     0.000 C
ENDBRANCH 50 57
BRANCH 52 60
ATOM     60   O  ASG B   4      -6.159  26.346  78.7920  0.00  0.00     0.000 O
ATOM     61   O  ASG B   4      -6.927  28.515  77.8250  0.00  0.00     0.000 OA
ATOM     62   O  ASG B   4      -5.949  28.465  79.9950  0.00  0.00     0.000 OA
ATOM     63   O  ASG B   4      -4.611  27.885  78.0990  0.00  0.00     0.000 OA
ATOM     64   S  ASG B   4      -5.954  27.932  78.6860  0.00  0.00     0.000 S
ENDBRANCH 52 60
ATOM     65   O  ASG B   4      -4.201  25.497  74.8050  0.00  0.00     0.000 O
ATOM     67  HD  ASG B   4      -3.534  25.128  75.2160  0.00  0.00     0.000 HD
ATOM     67   O  ASG B   4      -4.201  25.497  74.8050  0.00  0.00     0.000 O
ATOM     69  HD  ASG B   4      -3.534  25.128  75.2160  0.00  0.00     0.000 HD
ENDBRANCH 48 51
ENDBRANCH 35 48
ENDBRANCH 34 38
ENDBRANCH 15 34
ENDBRANCH 14 17
ENDBRANCH 1 14
TORSDOF 12
ENDMDL
MODEL 37
REMARK VINA RESULT:      -8.3      4.932      7.278
ROOT
ATOM      1  C1  GAD B   1       1.644  28.756  79.3740  0.00  0.00     0.000 C
ATOM      2  C2  GAD B   1       3.075  28.323  79.0400  0.00  0.00     0.000 C
ATOM      3  C3  GAD B   1       3.779  27.811  80.3020  0.00  0.00     0.000 C
ATOM      4  C4  GAD B   1       3.334  28.495  81.5980  0.00  0.00     0.000 C
ATOM      5  C5  GAD B   1       2.304  29.360  81.6850  0.00  0.00     0.000 C
ATOM      6  O5  GAD B   1       1.617  29.691  80.4630  0.00  0.00     0.000 O
ATOM      7   O  GAD B   1       3.097  27.343  77.9370  0.00  0.00     0.000 O
ATOM      9  HD  GAD B   1       2.288  27.639  77.8450  0.00  0.00     0.000 HD
ATOM      9   O  GAD B   1       5.210  27.996  80.2240  0.00  0.00     0.000 O
ATOM     11  HD  GAD B   1       4.402  28.292  80.1320  0.00  0.00     0.000 HD
ENDROOT
BRANCH 5 11
ATOM     11   C  GAD B   1       1.798  29.945  82.9490  0.00  0.00     0.000 C
ATOM     12   O  GAD B   1       2.471  30.896  83.4530  0.00  0.00     0.000 OA
ATOM     13   O  GAD B   1       0.768  29.437  83.5290  0.00  0.00     0.000 OA
ENDBRANCH 5 11
BRANCH 1 14
ATOM     14  O3  ASG B   2       0.922  29.607  78.6220  0.00  0.00     0.000 O
BRANCH 14 17
ATOM     15  C1  ASG B   2      -0.539  33.092  78.6570  0.00  0.00     0.000 C
ATOM     16  C2  ASG B   2      -0.557  31.557  78.6400  0.00  0.00     0.000 C
ATOM     17  C3  ASG B   2       0.884  31.038  78.6340  0.00  0.00     0.000 C
ATOM     18  C4  ASG B   2       1.624  31.578  77.4240  0.00  0.00     0.000 C
ATOM     19  C5  ASG B   2       1.512  33.099  77.4100  0.00  0.00     0.000 C
ATOM     20  O5  ASG B   2       0.127  33.493  77.4750  0.00  0.00     0.000 O
ATOM     21   C  ASG B   2       2.070  33.709  76.1640  0.00  0.00     0.000 C
ATOM     22   O  ASG B   2       1.742  35.076  76.1270  0.00  0.00     0.000 O
ATOM     24  HD  ASG B   2       1.617  35.919  75.9740  0.00  0.00     0.000 HD
BRANCH 16 26
ATOM     24   N  ASG B   2      -1.314  30.942  79.7070  0.00  0.00     0.000 N
ATOM     26  HD  ASG B   2      -1.471  31.749  79.4330  0.00  0.00     0.000 HD
ATOM     26   C  ASG B   2      -2.039  29.818  79.5630  0.00  0.00     0.000 C
ATOM     27   C  ASG B   2      -2.465  29.147  80.8240  0.00  0.00     0.000 C
ATOM     28   O  ASG B   2      -2.330  29.375  78.4590  0.00  0.00     0.000 OA
ENDBRANCH 16 26
BRANCH 18 29
ATOM     29   O  ASG B   2       1.010  30.950  76.2470  0.00  0.00     0.000 O
ATOM     30   O  ASG B   2       3.068  30.986  74.9030  0.00  0.00     0.000 OA
ATOM     31   O  ASG B   2       2.267  28.893  75.8360  0.00  0.00     0.000 OA
ATOM     32   O  ASG B   2       1.050  29.963  74.0420  0.00  0.00     0.000 OA
ATOM     33   S  ASG B   2       1.925  30.144  75.2000  0.00  0.00     0.000 S
ENDBRANCH 18 29
BRANCH 15 34
ATOM     34  O4  ASG B   3      -1.813  33.668  78.6700  0.00  0.00     0.000 O
BRANCH 34 38
ATOM     35  C1  GCT B   3      -5.169  35.031  76.8690  0.00  0.00     0.000 C
ATOM     36  C2  GCT B   3      -4.742  33.652  76.4130  0.00  0.00     0.000 C
ATOM     37  C3  GCT B   3      -3.771  33.030  77.4060  0.00  0.00     0.000 C
ATOM     38  C4  GCT B   3      -2.535  33.929  77.5320  0.00  0.00     0.000 C
ATOM     39  C5  GCT B   3      -2.889  35.426  77.3870  0.00  0.00     0.000 C
ATOM     40  O5  GCT B   3      -4.236  35.565  77.8010  0.00  0.00     0.000 O
ATOM     41   O  GCT B   3      -5.926  32.872  76.3270  0.00  0.00     0.000 O
ATOM     43  HD  GCT B   3      -6.561  32.844  75.7390  0.00  0.00     0.000 HD
ATOM     43   O  GCT B   3      -3.451  31.695  76.9620  0.00  0.00     0.000 O
ATOM     45  HD  GCT B   3      -4.087  31.667  76.3740  0.00  0.00     0.000 HD
BRANCH 39 45
ATOM     45   C  GCT B   3      -2.712  36.079  76.0330  0.00  0.00     0.000 C
ATOM     46   O  GCT B   3      -2.267  35.394  75.0590  0.00  0.00     0.000 OA
ATOM     47   O  GCT B   3      -3.027  37.275  75.9230  0.00  0.00     0.000 OA
ENDBRANCH 39 45
BRANCH 35 48
ATOM     48  O3  ASG B   4      -5.787  35.643  75.8810  0.00  0.00     0.000 O
BRANCH 48 51
ATOM     49  C1  ASG B   4      -8.789  36.644  77.7980  0.00  0.00     0.000 C
ATOM     50  C2  ASG B   4      -7.605  35.795  77.3070  0.00  0.00     0.000 C
ATOM     51  C3  ASG B   4      -6.670  36.612  76.4200  0.00  0.00     0.000 C
ATOM     52  C4  ASG B   4      -7.441  37.338  75.3300  0.00  0.00     0.000 C
ATOM     53  C5  ASG B   4      -8.541  38.161  75.9940  0.00  0.00     0.000 C
ATOM     54  O5  ASG B   4      -9.431  37.275  76.7010  0.00  0.00     0.000 O
BRANCH 50 57
ATOM     55   N  ASG B   4      -8.677  34.871  77.0160  0.00  0.00     0.000 N
ATOM     57  HD  ASG B   4      -8.271  34.145  77.2560  0.00  0.00     0.000 HD
ATOM     57   O  ASG B   4      -8.033  33.347  78.5240  0.00  0.00     0.000 OA
ATOM     58   C  ASG B   4      -8.870  33.755  77.7250  0.00  0.00     0.000 C
ATOM     59   C  ASG B   4     -10.142  33.018  77.4400  0.00  0.00     0.000 C
ENDBRANCH 50 57
BRANCH 52 60
ATOM     60   O  ASG B   4      -7.931  36.238  74.4590  0.00  0.00     0.000 O
ATOM     61   O  ASG B   4      -7.617  37.574  72.3750  0.00  0.00     0.000 OA
ATOM     62   O  ASG B   4      -8.279  35.292  72.2310  0.00  0.00     0.000 OA
ATOM     63   O  ASG B   4      -9.762  36.874  73.2390  0.00  0.00     0.000 OA
ATOM     64   S  ASG B   4      -8.373  36.509  72.9430  0.00  0.00     0.000 S
ENDBRANCH 52 60
ATOM     65   O  ASG B   4     -10.132  39.974  75.7440  0.00  0.00     0.000 O
ATOM     67  HD  ASG B   4     -10.753  39.482  76.0950  0.00  0.00     0.000 HD
ATOM     67   O  ASG B   4     -10.132  39.974  75.7440  0.00  0.00     0.000 O
ATOM     69  HD  ASG B   4     -10.753  39.482  76.0950  0.00  0.00     0.000 HD
ENDBRANCH 48 51
ENDBRANCH 35 48
ENDBRANCH 34 38
ENDBRANCH 15 34
ENDBRANCH 14 17
ENDBRANCH 1 14
TORSDOF 12
ENDMDL
MODEL 38
REMARK VINA RESULT:      -8.3      3.674     11.018
ROOT
ATOM      1  C1  GAD B   1     -12.612  29.983  82.8920  0.00  0.00     0.000 C
ATOM      2  C2  GAD B   1     -13.903  30.204  82.0990  0.00  0.00     0.000 C
ATOM      3  C3  GAD B   1     -14.608  28.864  81.8570  0.00  0.00     0.000 C
ATOM      4  C4  GAD B   1     -13.664  27.667  81.7090  0.00  0.00     0.000 C
ATOM      5  C5  GAD B   1     -12.334  27.718  81.9240  0.00  0.00     0.000 C
ATOM      6  O5  GAD B   1     -11.772  28.999  82.2700  0.00  0.00     0.000 O
ATOM      7   O  GAD B   1     -14.774  31.198  82.7550  0.00  0.00     0.000 O
ATOM      9  HD  GAD B   1     -14.036  31.357  83.1790  0.00  0.00     0.000 HD
ATOM      9   O  GAD B   1     -15.408  28.894  80.6530  0.00  0.00     0.000 O
ATOM     11  HD  GAD B   1     -14.669  29.053  81.0770  0.00  0.00     0.000 HD
ENDROOT
BRANCH 5 11
ATOM     11   C  GAD B   1     -11.429  26.546  81.8880  0.00  0.00     0.000 C
ATOM     12   O  GAD B   1     -10.267  26.732  81.4080  0.00  0.00     0.000 OA
ATOM     13   O  GAD B   1     -11.854  25.390  82.2560  0.00  0.00     0.000 OA
ENDBRANCH 5 11
BRANCH 1 14
ATOM     14  O3  ASG B   2     -11.583  30.852  82.9110  0.00  0.00     0.000 O
BRANCH 14 17
ATOM     15  C1  ASG B   2      -9.518  33.466  81.1290  0.00  0.00     0.000 C
ATOM     16  C2  ASG B   2      -9.795  32.315  82.1060  0.00  0.00     0.000 C
ATOM     17  C3  ASG B   2     -11.274  31.928  82.0180  0.00  0.00     0.000 C
ATOM     18  C4  ASG B   2     -12.144  33.127  82.3440  0.00  0.00     0.000 C
ATOM     19  C5  ASG B   2     -11.752  34.288  81.4350  0.00  0.00     0.000 C
ATOM     20  O5  ASG B   2     -10.338  34.543  81.5430  0.00  0.00     0.000 O
ATOM     21   C  ASG B   2     -12.443  35.564  81.7960  0.00  0.00     0.000 C
ATOM     22   O  ASG B   2     -11.879  36.623  81.0630  0.00  0.00     0.000 O
ATOM     24  HD  ASG B   2     -11.632  37.361  80.6830  0.00  0.00     0.000 HD
BRANCH 16 26
ATOM     24   N  ASG B   2      -9.061  31.607  83.1290  0.00  0.00     0.000 N
ATOM     26  HD  ASG B   2      -9.892  31.832  83.2280  0.00  0.00     0.000 HD
ATOM     26   C  ASG B   2      -8.503  30.395  82.9530  0.00  0.00     0.000 C
ATOM     27   C  ASG B   2      -7.509  29.975  83.9810  0.00  0.00     0.000 C
ATOM     28   O  ASG B   2      -8.797  29.682  82.0010  0.00  0.00     0.000 OA
ENDBRANCH 16 26
BRANCH 18 29
ATOM     29   O  ASG B   2     -11.933  33.420  83.7680  0.00  0.00     0.000 O
ATOM     30   O  ASG B   2     -14.281  34.002  84.2030  0.00  0.00     0.000 OA
ATOM     31   O  ASG B   2     -13.388  31.892  85.0030  0.00  0.00     0.000 OA
ATOM     32   O  ASG B   2     -12.663  33.969  86.0050  0.00  0.00     0.000 OA
ATOM     33   S  ASG B   2     -13.159  33.303  84.8000  0.00  0.00     0.000 S
ENDBRANCH 18 29
BRANCH 15 34
ATOM     34  O4  ASG B   3      -8.186  33.894  81.1280  0.00  0.00     0.000 O
BRANCH 34 38
ATOM     35  C1  GCT B   3      -6.257  35.351  77.8840  0.00  0.00     0.000 C
ATOM     36  C2  GCT B   3      -5.770  35.922  79.1980  0.00  0.00     0.000 C
ATOM     37  C3  GCT B   3      -6.204  35.045  80.3640  0.00  0.00     0.000 C
ATOM     38  C4  GCT B   3      -7.735  34.956  80.3860  0.00  0.00     0.000 C
ATOM     39  C5  GCT B   3      -8.337  34.981  78.9630  0.00  0.00     0.000 C
ATOM     40  O5  GCT B   3      -7.346  34.459  78.0950  0.00  0.00     0.000 O
ATOM     41   O  GCT B   3      -4.353  35.969  79.1170  0.00  0.00     0.000 O
ATOM     43  HD  GCT B   3      -3.812  36.508  78.7090  0.00  0.00     0.000 HD
ATOM     43   O  GCT B   3      -5.657  35.595  81.5810  0.00  0.00     0.000 O
ATOM     45  HD  GCT B   3      -5.116  36.134  81.1730  0.00  0.00     0.000 HD
BRANCH 39 45
ATOM     45   C  GCT B   3      -8.837  36.301  78.4160  0.00  0.00     0.000 C
ATOM     46   O  GCT B   3      -8.429  37.388  78.9330  0.00  0.00     0.000 OA
ATOM     47   O  GCT B   3      -9.627  36.268  77.4590  0.00  0.00     0.000 OA
ENDBRANCH 39 45
BRANCH 35 48
ATOM     48  O3  ASG B   4      -6.102  36.249  76.9350  0.00  0.00     0.000 O
BRANCH 48 51
ATOM     49  C1  ASG B   4      -4.816  36.032  73.4730  0.00  0.00     0.000 C
ATOM     50  C2  ASG B   4      -4.941  36.463  74.9440  0.00  0.00     0.000 C
ATOM     51  C3  ASG B   4      -5.939  35.585  75.6940  0.00  0.00     0.000 C
ATOM     52  C4  ASG B   4      -7.253  35.475  74.9380  0.00  0.00     0.000 C
ATOM     53  C5  ASG B   4      -6.947  34.995  73.5220  0.00  0.00     0.000 C
ATOM     54  O5  ASG B   4      -6.098  35.960  72.8700  0.00  0.00     0.000 O
BRANCH 50 57
ATOM     55   N  ASG B   4      -3.574  36.361  75.4000  0.00  0.00     0.000 N
ATOM     57  HD  ASG B   4      -3.257  37.040  74.9660  0.00  0.00     0.000 HD
ATOM     57   O  ASG B   4      -3.124  38.540  75.1520  0.00  0.00     0.000 OA
ATOM     58   C  ASG B   4      -2.796  37.434  75.5690  0.00  0.00     0.000 C
ATOM     59   C  ASG B   4      -1.485  37.183  76.2490  0.00  0.00     0.000 C
ENDBRANCH 50 57
BRANCH 52 60
ATOM     60   O  ASG B   4      -7.816  36.848  75.0180  0.00  0.00     0.000 O
ATOM     61   O  ASG B   4     -10.068  36.109  74.2370  0.00  0.00     0.000 OA
ATOM     62   O  ASG B   4      -9.736  38.361  74.9330  0.00  0.00     0.000 OA
ATOM     63   O  ASG B   4      -8.598  37.562  72.9870  0.00  0.00     0.000 OA
ATOM     64   S  ASG B   4      -9.190  37.229  74.2860  0.00  0.00     0.000 S
ENDBRANCH 52 60
ATOM     65   O  ASG B   4      -7.837  34.022  71.4870  0.00  0.00     0.000 O
ATOM     67  HD  ASG B   4      -7.416  34.614  71.0160  0.00  0.00     0.000 HD
ATOM     67   O  ASG B   4      -7.837  34.022  71.4870  0.00  0.00     0.000 O
ATOM     69  HD  ASG B   4      -7.416  34.614  71.0160  0.00  0.00     0.000 HD
ENDBRANCH 48 51
ENDBRANCH 35 48
ENDBRANCH 34 38
ENDBRANCH 15 34
ENDBRANCH 14 17
ENDBRANCH 1 14
TORSDOF 12
ENDMDL
MODEL 39
REMARK VINA RESULT:      -8.3     27.469     31.024
ROOT
ATOM      1  C1  GAD B   1     -15.325  50.366  55.4480  0.00  0.00     0.000 C
ATOM      2  C2  GAD B   1     -16.842  50.503  55.6090  0.00  0.00     0.000 C
ATOM      3  C3  GAD B   1     -17.171  51.171  56.9490  0.00  0.00     0.000 C
ATOM      4  C4  GAD B   1     -16.180  50.862  58.0740  0.00  0.00     0.000 C
ATOM      5  C5  GAD B   1     -15.021  50.195  57.9020  0.00  0.00     0.000 C
ATOM      6  O5  GAD B   1     -14.732  49.707  56.5780  0.00  0.00     0.000 O
ATOM      7   O  GAD B   1     -17.444  51.202  54.4580  0.00  0.00     0.000 O
ATOM      9  HD  GAD B   1     -16.670  51.014  54.1180  0.00  0.00     0.000 HD
ATOM      9   O  GAD B   1     -18.470  50.768  57.4380  0.00  0.00     0.000 O
ATOM     11  HD  GAD B   1     -17.696  50.580  57.0980  0.00  0.00     0.000 HD
ENDROOT
BRANCH 5 11
ATOM     11   C  GAD B   1     -14.005  49.982  58.9600  0.00  0.00     0.000 C
ATOM     12   O  GAD B   1     -14.163  48.973  59.7140  0.00  0.00     0.000 OA
ATOM     13   O  GAD B   1     -13.065  50.843  59.1350  0.00  0.00     0.000 OA
ENDBRANCH 5 11
BRANCH 1 14
ATOM     14  O3  ASG B   2     -14.733  49.485  54.6200  0.00  0.00     0.000 O
BRANCH 14 17
ATOM     15  C1  ASG B   2     -11.507  49.771  52.6740  0.00  0.00     0.000 C
ATOM     16  C2  ASG B   2     -12.999  49.981  52.9670  0.00  0.00     0.000 C
ATOM     17  C3  ASG B   2     -13.348  49.313  54.3000  0.00  0.00     0.000 C
ATOM     18  C4  ASG B   2     -13.018  47.834  54.2400  0.00  0.00     0.000 C
ATOM     19  C5  ASG B   2     -11.560  47.665  53.8250  0.00  0.00     0.000 C
ATOM     20  O5  ASG B   2     -11.313  48.371  52.5930  0.00  0.00     0.000 O
ATOM     21   C  ASG B   2     -11.190  46.237  53.5780  0.00  0.00     0.000 C
ATOM     22   O  ASG B   2      -9.909  46.181  52.9990  0.00  0.00     0.000 O
ATOM     24  HD  ASG B   2      -9.141  45.997  52.6450  0.00  0.00     0.000 HD
BRANCH 16 26
ATOM     24   N  ASG B   2     -13.404  51.365  52.8700  0.00  0.00     0.000 N
ATOM     26  HD  ASG B   2     -12.756  51.039  52.3970  0.00  0.00     0.000 HD
ATOM     26   C  ASG B   2     -14.635  51.765  52.5020  0.00  0.00     0.000 C
ATOM     27   C  ASG B   2     -14.974  53.188  52.7870  0.00  0.00     0.000 C
ATOM     28   O  ASG B   2     -15.427  51.001  51.9650  0.00  0.00     0.000 OA
ENDBRANCH 16 26
BRANCH 18 29
ATOM     29   O  ASG B   2     -13.957  47.236  53.2810  0.00  0.00     0.000 O
ATOM     30   O  ASG B   2     -14.000  45.039  54.3830  0.00  0.00     0.000 OA
ATOM     31   O  ASG B   2     -15.905  46.531  54.5800  0.00  0.00     0.000 OA
ATOM     32   O  ASG B   2     -15.403  45.483  52.4600  0.00  0.00     0.000 OA
ATOM     33   S  ASG B   2     -14.873  45.993  53.7250  0.00  0.00     0.000 S
ENDBRANCH 18 29
BRANCH 15 34
ATOM     34  O4  ASG B   3     -11.082  50.351  51.4740  0.00  0.00     0.000 O
BRANCH 34 38
ATOM     35  C1  GCT B   3     -12.663  47.435  49.1580  0.00  0.00     0.000 C
ATOM     36  C2  GCT B   3     -11.162  47.579  49.0290  0.00  0.00     0.000 C
ATOM     37  C3  GCT B   3     -10.589  48.355  50.2060  0.00  0.00     0.000 C
ATOM     38  C4  GCT B   3     -11.229  49.748  50.2510  0.00  0.00     0.000 C
ATOM     39  C5  GCT B   3     -12.700  49.725  49.7760  0.00  0.00     0.000 C
ATOM     40  O5  GCT B   3     -13.190  48.422  50.0390  0.00  0.00     0.000 O
ATOM     41   O  GCT B   3     -10.632  46.261  49.0030  0.00  0.00     0.000 O
ATOM     43  HD  GCT B   3     -10.605  45.658  48.3820  0.00  0.00     0.000 HD
ATOM     43   O  GCT B   3      -9.153  48.403  50.0700  0.00  0.00     0.000 O
ATOM     45  HD  GCT B   3      -9.125  47.800  49.4490  0.00  0.00     0.000 HD
BRANCH 39 45
ATOM     45   C  GCT B   3     -12.997  50.091  48.3380  0.00  0.00     0.000 C
ATOM     46   O  GCT B   3     -14.201  50.101  47.9290  0.00  0.00     0.000 OA
ATOM     47   O  GCT B   3     -12.038  50.385  47.6060  0.00  0.00     0.000 OA
ENDBRANCH 39 45
BRANCH 35 48
ATOM     48  O3  ASG B   4     -13.158  47.002  48.0190  0.00  0.00     0.000 O
BRANCH 48 51
ATOM     49  C1  ASG B   4     -14.638  43.840  46.7920  0.00  0.00     0.000 C
ATOM     50  C2  ASG B   4     -13.834  45.151  46.8030  0.00  0.00     0.000 C
ATOM     51  C3  ASG B   4     -13.709  45.711  48.2170  0.00  0.00     0.000 C
ATOM     52  C4  ASG B   4     -15.063  45.777  48.9050  0.00  0.00     0.000 C
ATOM     53  C5  ASG B   4     -15.696  44.390  48.8400  0.00  0.00     0.000 C
ATOM     54  O5  ASG B   4     -15.877  44.017  47.4600  0.00  0.00     0.000 O
BRANCH 50 57
ATOM     55   N  ASG B   4     -12.518  44.949  46.2420  0.00  0.00     0.000 N
ATOM     57  HD  ASG B   4     -12.765  44.752  45.4360  0.00  0.00     0.000 HD
ATOM     57   O  ASG B   4     -13.116  45.476  44.1500  0.00  0.00     0.000 OA
ATOM     58   C  ASG B   4     -12.234  45.230  44.9670  0.00  0.00     0.000 C
ATOM     59   C  ASG B   4     -10.784  45.172  44.5970  0.00  0.00     0.000 C
ENDBRANCH 50 57
BRANCH 52 60
ATOM     60   O  ASG B   4     -15.790  46.824  48.1410  0.00  0.00     0.000 O
ATOM     61   O  ASG B   4     -16.585  47.967  50.2130  0.00  0.00     0.000 OA
ATOM     62   O  ASG B   4     -17.022  48.936  48.0830  0.00  0.00     0.000 OA
ATOM     63   O  ASG B   4     -18.026  46.838  48.6360  0.00  0.00     0.000 OA
ATOM     64   S  ASG B   4     -16.896  47.750  48.8400  0.00  0.00     0.000 S
ENDBRANCH 52 60
ATOM     65   O  ASG B   4     -17.396  42.907  49.7300  0.00  0.00     0.000 O
ATOM     67  HD  ASG B   4     -17.622  42.678  48.9260  0.00  0.00     0.000 HD
ATOM     67   O  ASG B   4     -17.396  42.907  49.7300  0.00  0.00     0.000 O
ATOM     69  HD  ASG B   4     -17.622  42.678  48.9260  0.00  0.00     0.000 HD
ENDBRANCH 48 51
ENDBRANCH 35 48
ENDBRANCH 34 38
ENDBRANCH 15 34
ENDBRANCH 14 17
ENDBRANCH 1 14
TORSDOF 12
ENDMDL
MODEL 40
REMARK VINA RESULT:      -8.3     21.066     24.917
ROOT
ATOM      1  C1  GAD B   1     -27.650  45.948  73.5490  0.00  0.00     0.000 C
ATOM      2  C2  GAD B   1     -27.324  47.157  74.4320  0.00  0.00     0.000 C
ATOM      3  C3  GAD B   1     -26.043  47.840  73.9370  0.00  0.00     0.000 C
ATOM      4  C4  GAD B   1     -25.018  46.890  73.3110  0.00  0.00     0.000 C
ATOM      5  C5  GAD B   1     -25.249  45.587  73.0540  0.00  0.00     0.000 C
ATOM      6  O5  GAD B   1     -26.530  45.056  73.4410  0.00  0.00     0.000 O
ATOM      7   O  GAD B   1     -28.469  48.083  74.5200  0.00  0.00     0.000 O
ATOM      9  HD  GAD B   1     -28.875  47.389  74.2000  0.00  0.00     0.000 HD
ATOM      9   O  GAD B   1     -25.355  48.520  75.0110  0.00  0.00     0.000 O
ATOM     11  HD  GAD B   1     -25.762  47.825  74.6910  0.00  0.00     0.000 HD
ENDROOT
BRANCH 5 11
ATOM     11   C  GAD B   1     -24.304  44.686  72.3530  0.00  0.00     0.000 C
ATOM     12   O  GAD B   1     -23.828  45.098  71.2500  0.00  0.00     0.000 OA
ATOM     13   O  GAD B   1     -24.062  43.513  72.8210  0.00  0.00     0.000 OA
ENDBRANCH 5 11
BRANCH 1 14
ATOM     14  O3  ASG B   2     -28.432  44.924  73.9370  0.00  0.00     0.000 O
BRANCH 14 17
ATOM     15  C1  ASG B   2     -29.915  43.107  76.9000  0.00  0.00     0.000 C
ATOM     16  C2  ASG B   2     -29.136  43.258  75.5850  0.00  0.00     0.000 C
ATOM     17  C3  ASG B   2     -29.152  44.729  75.1600  0.00  0.00     0.000 C
ATOM     18  C4  ASG B   2     -30.582  45.205  74.9910  0.00  0.00     0.000 C
ATOM     19  C5  ASG B   2     -31.355  44.923  76.2760  0.00  0.00     0.000 C
ATOM     20  O5  ASG B   2     -31.238  43.530  76.6270  0.00  0.00     0.000 O
ATOM     21   C  ASG B   2     -32.818  45.207  76.1450  0.00  0.00     0.000 C
ATOM     22   O  ASG B   2     -33.489  44.727  77.2840  0.00  0.00     0.000 O
ATOM     24  HD  ASG B   2     -34.026  44.485  77.9190  0.00  0.00     0.000 HD
BRANCH 16 26
ATOM     24   N  ASG B   2     -28.489  42.478  74.5560  0.00  0.00     0.000 N
ATOM     26  HD  ASG B   2     -28.869  43.238  74.3900  0.00  0.00     0.000 HD
ATOM     26   C  ASG B   2     -27.186  42.142  74.5740  0.00  0.00     0.000 C
ATOM     27   C  ASG B   2     -26.774  41.065  73.6300  0.00  0.00     0.000 C
ATOM     28   O  ASG B   2     -26.389  42.692  75.3240  0.00  0.00     0.000 OA
ENDBRANCH 16 26
BRANCH 18 29
ATOM     29   O  ASG B   2     -31.126  44.488  73.8300  0.00  0.00     0.000 O
ATOM     30   O  ASG B   2     -32.583  46.335  73.1170  0.00  0.00     0.000 OA
ATOM     31   O  ASG B   2     -30.561  45.837  71.8700  0.00  0.00     0.000 OA
ATOM     32   O  ASG B   2     -32.431  44.306  71.8050  0.00  0.00     0.000 OA
ATOM     33   S  ASG B   2     -31.705  45.313  72.5780  0.00  0.00     0.000 S
ENDBRANCH 18 29
BRANCH 15 34
ATOM     34  O4  ASG B   3     -29.957  41.793  77.3800  0.00  0.00     0.000 O
BRANCH 34 38
ATOM     35  C1  GCT B   3     -29.557  37.794  76.9220  0.00  0.00     0.000 C
ATOM     36  C2  GCT B   3     -28.257  38.560  76.8090  0.00  0.00     0.000 C
ATOM     37  C3  GCT B   3     -28.394  39.952  77.4100  0.00  0.00     0.000 C
ATOM     38  C4  GCT B   3     -29.498  40.715  76.6680  0.00  0.00     0.000 C
ATOM     39  C5  GCT B   3     -30.640  39.780  76.2090  0.00  0.00     0.000 C
ATOM     40  O5  GCT B   3     -30.652  38.684  77.1070  0.00  0.00     0.000 O
ATOM     41   O  GCT B   3     -27.283  37.810  77.5210  0.00  0.00     0.000 O
ATOM     43  HD  GCT B   3     -26.848  37.087  77.3240  0.00  0.00     0.000 HD
ATOM     43   O  GCT B   3     -27.112  40.611  77.3390  0.00  0.00     0.000 O
ATOM     45  HD  GCT B   3     -26.677  39.889  77.1420  0.00  0.00     0.000 HD
BRANCH 39 45
ATOM     45   C  GCT B   3     -30.619  39.261  74.7870  0.00  0.00     0.000 C
ATOM     46   O  GCT B   3     -29.631  39.534  74.0350  0.00  0.00     0.000 OA
ATOM     47   O  GCT B   3     -31.577  38.567  74.4110  0.00  0.00     0.000 OA
ENDBRANCH 39 45
BRANCH 35 48
ATOM     48  O3  ASG B   4     -29.493  36.715  76.1720  0.00  0.00     0.000 O
BRANCH 48 51
ATOM     49  C1  ASG B   4     -30.292  33.285  77.3070  0.00  0.00     0.000 C
ATOM     50  C2  ASG B   4     -29.470  34.536  76.9560  0.00  0.00     0.000 C
ATOM     51  C3  ASG B   4     -30.375  35.737  76.6950  0.00  0.00     0.000 C
ATOM     52  C4  ASG B   4     -31.478  35.391  75.7090  0.00  0.00     0.000 C
ATOM     53  C5  ASG B   4     -32.215  34.161  76.2330  0.00  0.00     0.000 C
ATOM     54  O5  ASG B   4     -31.289  33.060  76.3230  0.00  0.00     0.000 O
BRANCH 50 57
ATOM     55   N  ASG B   4     -28.592  34.711  78.0900  0.00  0.00     0.000 N
ATOM     57  HD  ASG B   4     -28.091  34.018  77.9550  0.00  0.00     0.000 HD
ATOM     57   O  ASG B   4     -26.855  33.652  77.1540  0.00  0.00     0.000 OA
ATOM     58   C  ASG B   4     -27.307  34.344  78.0610  0.00  0.00     0.000 C
ATOM     59   C  ASG B   4     -26.481  34.786  79.2290  0.00  0.00     0.000 C
ENDBRANCH 50 57
BRANCH 52 60
ATOM     60   O  ASG B   4     -30.749  35.177  74.4320  0.00  0.00     0.000 O
ATOM     61   O  ASG B   4     -32.688  35.921  73.0490  0.00  0.00     0.000 OA
ATOM     62   O  ASG B   4     -30.609  35.421  72.0020  0.00  0.00     0.000 OA
ATOM     63   O  ASG B   4     -31.821  33.666  73.0850  0.00  0.00     0.000 OA
ATOM     64   S  ASG B   4     -31.524  35.101  73.0310  0.00  0.00     0.000 S
ENDBRANCH 52 60
ATOM     65   O  ASG B   4     -34.218  32.801  76.0970  0.00  0.00     0.000 O
ATOM     67  HD  ASG B   4     -33.733  32.084  76.0720  0.00  0.00     0.000 HD
ATOM     67   O  ASG B   4     -34.218  32.801  76.0970  0.00  0.00     0.000 O
ATOM     69  HD  ASG B   4     -33.733  32.084  76.0720  0.00  0.00     0.000 HD
ENDBRANCH 48 51
ENDBRANCH 35 48
ENDBRANCH 34 38
ENDBRANCH 15 34
ENDBRANCH 14 17
ENDBRANCH 1 14
TORSDOF 12
ENDMDL
MODEL 41
REMARK VINA RESULT:      -8.3      6.236     11.659
ROOT
ATOM      1  C1  GAD B   1     -12.423  29.850  82.6010  0.00  0.00     0.000 C
ATOM      2  C2  GAD B   1     -13.722  30.353  81.9630  0.00  0.00     0.000 C
ATOM      3  C3  GAD B   1     -14.755  29.221  81.9110  0.00  0.00     0.000 C
ATOM      4  C4  GAD B   1     -14.157  27.823  81.7330  0.00  0.00     0.000 C
ATOM      5  C5  GAD B   1     -12.838  27.551  81.7740  0.00  0.00     0.000 C
ATOM      6  O5  GAD B   1     -11.941  28.664  81.9510  0.00  0.00     0.000 O
ATOM      7   O  GAD B   1     -14.227  31.557  82.6490  0.00  0.00     0.000 O
ATOM      9  HD  GAD B   1     -13.420  31.545  82.9630  0.00  0.00     0.000 HD
ATOM      9   O  GAD B   1     -15.685  29.401  80.8190  0.00  0.00     0.000 O
ATOM     11  HD  GAD B   1     -14.878  29.389  81.1330  0.00  0.00     0.000 HD
ENDROOT
BRANCH 5 11
ATOM     11   C  GAD B   1     -12.255  26.190  81.7100  0.00  0.00     0.000 C
ATOM     12   O  GAD B   1     -11.192  25.987  82.3760  0.00  0.00     0.000 OA
ATOM     13   O  GAD B   1     -12.776  25.300  80.9420  0.00  0.00     0.000 OA
ENDBRANCH 5 11
BRANCH 1 14
ATOM     14  O3  ASG B   2     -11.224  30.436  82.4260  0.00  0.00     0.000 O
BRANCH 14 17
ATOM     15  C1  ASG B   2      -8.629  31.699  79.9870  0.00  0.00     0.000 C
ATOM     16  C2  ASG B   2      -9.156  30.984  81.2390  0.00  0.00     0.000 C
ATOM     17  C3  ASG B   2     -10.683  31.094  81.2740  0.00  0.00     0.000 C
ATOM     18  C4  ASG B   2     -11.097  32.553  81.2780  0.00  0.00     0.000 C
ATOM     19  C5  ASG B   2     -10.453  33.257  80.0890  0.00  0.00     0.000 C
ATOM     20  O5  ASG B   2      -9.026  33.053  80.1080  0.00  0.00     0.000 O
ATOM     21   C  ASG B   2     -10.671  34.737  80.1040  0.00  0.00     0.000 C
ATOM     22   O  ASG B   2      -9.877  35.335  79.1080  0.00  0.00     0.000 O
ATOM     24  HD  ASG B   2      -9.451  35.832  78.5420  0.00  0.00     0.000 HD
BRANCH 16 26
ATOM     24   N  ASG B   2      -8.642  30.347  82.4300  0.00  0.00     0.000 N
ATOM     26  HD  ASG B   2      -9.373  30.812  82.4320  0.00  0.00     0.000 HD
ATOM     26   C  ASG B   2      -8.454  29.020  82.5520  0.00  0.00     0.000 C
ATOM     27   C  ASG B   2      -7.608  28.582  83.6990  0.00  0.00     0.000 C
ATOM     28   O  ASG B   2      -8.949  28.224  81.7650  0.00  0.00     0.000 OA
ENDBRANCH 16 26
BRANCH 18 29
ATOM     29   O  ASG B   2     -10.666  33.105  82.5700  0.00  0.00     0.000 O
ATOM     30   O  ASG B   2     -12.473  34.767  82.6920  0.00  0.00     0.000 OA
ATOM     31   O  ASG B   2     -12.543  32.795  84.1060  0.00  0.00     0.000 OA
ATOM     32   O  ASG B   2     -10.899  34.520  84.5150  0.00  0.00     0.000 OA
ATOM     33   S  ASG B   2     -11.731  33.838  83.5240  0.00  0.00     0.000 S
ENDBRANCH 18 29
BRANCH 15 34
ATOM     34  O4  ASG B   3      -7.237  31.652  79.8560  0.00  0.00     0.000 O
BRANCH 34 38
ATOM     35  C1  GCT B   3      -7.343  28.964  76.8360  0.00  0.00     0.000 C
ATOM     36  C2  GCT B   3      -6.377  28.607  77.9440  0.00  0.00     0.000 C
ATOM     37  C3  GCT B   3      -6.693  29.389  79.2110  0.00  0.00     0.000 C
ATOM     38  C4  GCT B   3      -6.593  30.890  78.9150  0.00  0.00     0.000 C
ATOM     39  C5  GCT B   3      -7.040  31.228  77.4740  0.00  0.00     0.000 C
ATOM     40  O5  GCT B   3      -7.960  30.221  77.0890  0.00  0.00     0.000 O
ATOM     41   O  GCT B   3      -6.525  27.213  78.1750  0.00  0.00     0.000 O
ATOM     43  HD  GCT B   3      -6.245  26.519  77.7390  0.00  0.00     0.000 HD
ATOM     43   O  GCT B   3      -5.789  28.962  80.2520  0.00  0.00     0.000 O
ATOM     45  HD  GCT B   3      -5.510  28.268  79.8160  0.00  0.00     0.000 HD
BRANCH 39 45
ATOM     45   C  GCT B   3      -5.978  31.369  76.4060  0.00  0.00     0.000 C
ATOM     46   O  GCT B   3      -4.752  31.241  76.7190  0.00  0.00     0.000 OA
ATOM     47   O  GCT B   3      -6.353  31.596  75.2440  0.00  0.00     0.000 OA
ENDBRANCH 39 45
BRANCH 35 48
ATOM     48  O3  ASG B   4      -6.894  28.484  75.6960  0.00  0.00     0.000 O
BRANCH 48 51
ATOM     49  C1  ASG B   4      -7.841  25.700  73.4500  0.00  0.00     0.000 C
ATOM     50  C2  ASG B   4      -6.963  26.670  74.2590  0.00  0.00     0.000 C
ATOM     51  C3  ASG B   4      -7.805  27.512  75.2130  0.00  0.00     0.000 C
ATOM     52  C4  ASG B   4      -8.980  28.152  74.4920  0.00  0.00     0.000 C
ATOM     53  C5  ASG B   4      -9.762  27.047  73.7850  0.00  0.00     0.000 C
ATOM     54  O5  ASG B   4      -8.903  26.403  72.8250  0.00  0.00     0.000 O
BRANCH 50 57
ATOM     55   N  ASG B   4      -6.016  25.809  74.9290  0.00  0.00     0.000 N
ATOM     57  HD  ASG B   4      -5.567  25.566  74.2300  0.00  0.00     0.000 HD
ATOM     57   O  ASG B   4      -4.401  26.072  73.4000  0.00  0.00     0.000 OA
ATOM     58   C  ASG B   4      -4.760  25.657  74.4980  0.00  0.00     0.000 C
ATOM     59   C  ASG B   4      -3.846  24.907  75.4170  0.00  0.00     0.000 C
ENDBRANCH 50 57
BRANCH 52 60
ATOM     60   O  ASG B   4      -8.337  29.133  73.5820  0.00  0.00     0.000 O
ATOM     61   O  ASG B   4     -10.207  30.769  73.8140  0.00  0.00     0.000 OA
ATOM     62   O  ASG B   4      -8.258  31.364  72.5820  0.00  0.00     0.000 OA
ATOM     63   O  ASG B   4      -9.657  29.603  71.7710  0.00  0.00     0.000 OA
ATOM     64   S  ASG B   4      -9.168  30.343  72.9380  0.00  0.00     0.000 S
ENDBRANCH 52 60
ATOM     65   O  ASG B   4     -11.850  26.418  72.7250  0.00  0.00     0.000 O
ATOM     67  HD  ASG B   4     -11.413  26.067  72.0650  0.00  0.00     0.000 HD
ATOM     67   O  ASG B   4     -11.850  26.418  72.7250  0.00  0.00     0.000 O
ATOM     69  HD  ASG B   4     -11.413  26.067  72.0650  0.00  0.00     0.000 HD
ENDBRANCH 48 51
ENDBRANCH 35 48
ENDBRANCH 34 38
ENDBRANCH 15 34
ENDBRANCH 14 17
ENDBRANCH 1 14
TORSDOF 12
ENDMDL
MODEL 42
REMARK VINA RESULT:      -8.2     38.970     44.402
ROOT
ATOM      1  C1  GAD B   1      10.881  58.997  49.5550  0.00  0.00     0.000 C
ATOM      2  C2  GAD B   1      12.374  58.696  49.7190  0.00  0.00     0.000 C
ATOM      3  C3  GAD B   1      12.582  57.647  50.8170  0.00  0.00     0.000 C
ATOM      4  C4  GAD B   1      11.554  57.701  51.9510  0.00  0.00     0.000 C
ATOM      5  C5  GAD B   1      10.455  58.482  51.9410  0.00  0.00     0.000 C
ATOM      6  O5  GAD B   1      10.274  59.350  50.8070  0.00  0.00     0.000 O
ATOM      7   O  GAD B   1      12.989  58.309  48.4340  0.00  0.00     0.000 O
ATOM      9  HD  GAD B   1      12.250  58.650  48.1390  0.00  0.00     0.000 HD
ATOM      9   O  GAD B   1      13.877  57.785  51.4450  0.00  0.00     0.000 O
ATOM     11  HD  GAD B   1      13.138  58.126  51.1490  0.00  0.00     0.000 HD
ENDROOT
BRANCH 5 11
ATOM     11   C  GAD B   1       9.400  58.464  52.9810  0.00  0.00     0.000 C
ATOM     12   O  GAD B   1       8.238  58.839  52.6290  0.00  0.00     0.000 OA
ATOM     13   O  GAD B   1       9.694  58.159  54.1960  0.00  0.00     0.000 OA
ENDBRANCH 5 11
BRANCH 1 14
ATOM     14  O3  ASG B   2      10.398  60.124  48.9990  0.00  0.00     0.000 O
BRANCH 14 17
ATOM     15  C1  ASG B   2       7.285  61.088  47.0860  0.00  0.00     0.000 C
ATOM     16  C2  ASG B   2       8.747  60.659  47.2740  0.00  0.00     0.000 C
ATOM     17  C3  ASG B   2       9.042  60.527  48.7710  0.00  0.00     0.000 C
ATOM     18  C4  ASG B   2       8.778  61.847  49.4700  0.00  0.00     0.000 C
ATOM     19  C5  ASG B   2       7.356  62.301  49.1560  0.00  0.00     0.000 C
ATOM     20  O5  ASG B   2       7.155  62.342  47.7300  0.00  0.00     0.000 O
ATOM     21   C  ASG B   2       7.061  63.675  49.6680  0.00  0.00     0.000 C
ATOM     22   O  ASG B   2       5.821  64.104  49.1610  0.00  0.00     0.000 O
ATOM     24  HD  ASG B   2       5.083  64.493  48.9290  0.00  0.00     0.000 HD
BRANCH 16 26
ATOM     24   N  ASG B   2       9.143  59.438  46.6120  0.00  0.00     0.000 N
ATOM     26  HD  ASG B   2       8.452  59.895  46.3630  0.00  0.00     0.000 HD
ATOM     26   C  ASG B   2      10.333  59.260  46.0080  0.00  0.00     0.000 C
ATOM     27   C  ASG B   2      10.701  57.852  45.6860  0.00  0.00     0.000 C
ATOM     28   O  ASG B   2      11.067  60.204  45.7410  0.00  0.00     0.000 OA
ENDBRANCH 16 26
BRANCH 18 29
ATOM     29   O  ASG B   2       9.797  62.787  48.9840  0.00  0.00     0.000 O
ATOM     30   O  ASG B   2      10.021  63.968  51.1280  0.00  0.00     0.000 OA
ATOM     31   O  ASG B   2      11.766  62.449  50.3940  0.00  0.00     0.000 OA
ATOM     32   O  ASG B   2      11.429  64.550  49.2460  0.00  0.00     0.000 OA
ATOM     33   S  ASG B   2      10.816  63.471  50.0210  0.00  0.00     0.000 S
ENDBRANCH 18 29
BRANCH 15 34
ATOM     34  O4  ASG B   3       6.910  61.234  45.7460  0.00  0.00     0.000 O
BRANCH 34 38
ATOM     35  C1  GCT B   3       6.219  63.564  42.5120  0.00  0.00     0.000 C
ATOM     36  C2  GCT B   3       7.677  63.213  42.7180  0.00  0.00     0.000 C
ATOM     37  C3  GCT B   3       7.820  62.018  43.6490  0.00  0.00     0.000 C
ATOM     38  C4  GCT B   3       7.183  62.355  45.0030  0.00  0.00     0.000 C
ATOM     39  C5  GCT B   3       5.952  63.277  44.8510  0.00  0.00     0.000 C
ATOM     40  O5  GCT B   3       5.419  63.031  43.5620  0.00  0.00     0.000 O
ATOM     41   O  GCT B   3       8.202  62.903  41.4350  0.00  0.00     0.000 O
ATOM     43  HD  GCT B   3       8.440  63.403  40.7690  0.00  0.00     0.000 HD
ATOM     43   O  GCT B   3       9.219  61.683  43.7560  0.00  0.00     0.000 O
ATOM     45  HD  GCT B   3       9.458  62.183  43.0900  0.00  0.00     0.000 HD
BRANCH 39 45
ATOM     45   C  GCT B   3       6.141  64.766  45.0390  0.00  0.00     0.000 C
ATOM     46   O  GCT B   3       7.315  65.239  45.1630  0.00  0.00     0.000 OA
ATOM     47   O  GCT B   3       5.126  65.481  45.0500  0.00  0.00     0.000 OA
ENDBRANCH 39 45
BRANCH 35 48
ATOM     48  O3  ASG B   4       6.133  64.740  41.9290  0.00  0.00     0.000 O
BRANCH 48 51
ATOM     49  C1  ASG B   4       4.532  65.746  38.7490  0.00  0.00     0.000 C
ATOM     50  C2  ASG B   4       5.630  65.461  39.7870  0.00  0.00     0.000 C
ATOM     51  C3  ASG B   4       5.068  64.715  40.9940  0.00  0.00     0.000 C
ATOM     52  C4  ASG B   4       3.827  65.403  41.5380  0.00  0.00     0.000 C
ATOM     53  C5  ASG B   4       2.833  65.564  40.3910  0.00  0.00     0.000 C
ATOM     54  O5  ASG B   4       3.425  66.384  39.3650  0.00  0.00     0.000 O
BRANCH 50 57
ATOM     55   N  ASG B   4       6.659  64.700  39.1160  0.00  0.00     0.000 N
ATOM     57  HD  ASG B   4       6.931  65.323  38.5800  0.00  0.00     0.000 HD
ATOM     57   O  ASG B   4       7.909  66.483  38.5960  0.00  0.00     0.000 OA
ATOM     58   C  ASG B   4       7.781  65.264  38.6600  0.00  0.00     0.000 C
ATOM     59   C  ASG B   4       8.837  64.315  38.1860  0.00  0.00     0.000 C
ENDBRANCH 50 57
BRANCH 52 60
ATOM     60   O  ASG B   4       4.350  66.681  42.0870  0.00  0.00     0.000 O
ATOM     61   O  ASG B   4       2.466  66.904  43.7090  0.00  0.00     0.000 OA
ATOM     62   O  ASG B   4       4.266  68.461  43.7620  0.00  0.00     0.000 OA
ATOM     63   O  ASG B   4       2.844  68.389  41.8410  0.00  0.00     0.000 OA
ATOM     64   S  ASG B   4       3.425  67.651  42.9660  0.00  0.00     0.000 S
ENDBRANCH 52 60
ATOM     65   O  ASG B   4       0.530  65.995  39.7650  0.00  0.00     0.000 O
ATOM     67  HD  ASG B   4       0.795  66.564  39.1680  0.00  0.00     0.000 HD
ATOM     67   O  ASG B   4       0.530  65.995  39.7650  0.00  0.00     0.000 O
ATOM     69  HD  ASG B   4       0.795  66.564  39.1680  0.00  0.00     0.000 HD
ENDBRANCH 48 51
ENDBRANCH 35 48
ENDBRANCH 34 38
ENDBRANCH 15 34
ENDBRANCH 14 17
ENDBRANCH 1 14
TORSDOF 12
ENDMDL
MODEL 43
REMARK VINA RESULT:      -8.2      4.573      8.631
ROOT
ATOM      1  C1  GAD B   1       3.522  32.001  82.7310  0.00  0.00     0.000 C
ATOM      2  C2  GAD B   1       3.009  30.601  83.0820  0.00  0.00     0.000 C
ATOM      3  C3  GAD B   1       3.817  30.021  84.2490  0.00  0.00     0.000 C
ATOM      4  C4  GAD B   1       5.279  30.472  84.2950  0.00  0.00     0.000 C
ATOM      5  C5  GAD B   1       5.807  31.418  83.4930  0.00  0.00     0.000 C
ATOM      6  O5  GAD B   1       4.940  32.000  82.5020  0.00  0.00     0.000 O
ATOM      7   O  GAD B   1       1.556  30.610  83.3410  0.00  0.00     0.000 O
ATOM      9  HD  GAD B   1       1.634  31.380  82.9530  0.00  0.00     0.000 HD
ATOM      9   O  GAD B   1       3.844  28.577  84.2110  0.00  0.00     0.000 O
ATOM     11  HD  GAD B   1       3.922  29.347  83.8230  0.00  0.00     0.000 HD
ENDROOT
BRANCH 5 11
ATOM     11   C  GAD B   1       7.191  31.937  83.6000  0.00  0.00     0.000 C
ATOM     12   O  GAD B   1       7.363  32.974  84.3130  0.00  0.00     0.000 OA
ATOM     13   O  GAD B   1       8.140  31.392  82.9240  0.00  0.00     0.000 OA
ENDBRANCH 5 11
BRANCH 1 14
ATOM     14  O3  ASG B   2       3.328  32.595  81.5390  0.00  0.00     0.000 O
BRANCH 14 17
ATOM     15  C1  ASG B   2       0.523  33.830  79.3280  0.00  0.00     0.000 C
ATOM     16  C2  ASG B   2       1.678  32.915  79.7600  0.00  0.00     0.000 C
ATOM     17  C3  ASG B   2       2.246  33.420  81.0900  0.00  0.00     0.000 C
ATOM     18  C4  ASG B   2       2.725  34.851  80.9390  0.00  0.00     0.000 C
ATOM     19  C5  ASG B   2       1.584  35.703  80.3900  0.00  0.00     0.000 C
ATOM     20  O5  ASG B   2       1.078  35.122  79.1720  0.00  0.00     0.000 O
ATOM     21   C  ASG B   2       2.012  37.095  80.0520  0.00  0.00     0.000 C
ATOM     22   O  ASG B   2       0.975  37.746  79.3600  0.00  0.00     0.000 O
ATOM     24  HD  ASG B   2       0.430  38.265  78.9320  0.00  0.00     0.000 HD
BRANCH 16 26
ATOM     24   N  ASG B   2       2.473  31.811  79.2760  0.00  0.00     0.000 N
ATOM     26  HD  ASG B   2       2.798  32.420  79.7980  0.00  0.00     0.000 HD
ATOM     26   C  ASG B   2       2.191  30.517  79.5170  0.00  0.00     0.000 C
ATOM     27   C  ASG B   2       2.904  29.521  78.6690  0.00  0.00     0.000 C
ATOM     28   O  ASG B   2       1.393  30.183  80.3850  0.00  0.00     0.000 OA
ENDBRANCH 16 26
BRANCH 18 29
ATOM     29   O  ASG B   2       3.888  34.809  80.0430  0.00  0.00     0.000 O
ATOM     30   O  ASG B   2       4.954  36.805  81.0040  0.00  0.00     0.000 OA
ATOM     31   O  ASG B   2       5.853  34.602  81.4840  0.00  0.00     0.000 OA
ATOM     32   O  ASG B   2       6.057  35.534  79.2620  0.00  0.00     0.000 OA
ATOM     33   S  ASG B   2       5.274  35.484  80.4980  0.00  0.00     0.000 S
ENDBRANCH 18 29
BRANCH 15 34
ATOM     34  O4  ASG B   3      -0.073  33.450  78.1210  0.00  0.00     0.000 O
BRANCH 34 38
ATOM     35  C1  GCT B   3      -2.685  36.464  77.4470  0.00  0.00     0.000 C
ATOM     36  C2  GCT B   3      -3.242  35.346  78.3020  0.00  0.00     0.000 C
ATOM     37  C3  GCT B   3      -2.120  34.490  78.8720  0.00  0.00     0.000 C
ATOM     38  C4  GCT B   3      -1.308  33.890  77.7170  0.00  0.00     0.000 C
ATOM     39  C5  GCT B   3      -1.229  34.846  76.5060  0.00  0.00     0.000 C
ATOM     40  O5  GCT B   3      -1.363  36.160  77.0180  0.00  0.00     0.000 O
ATOM     41   O  GCT B   3      -3.970  35.966  79.3520  0.00  0.00     0.000 O
ATOM     43  HD  GCT B   3      -4.750  36.341  79.3760  0.00  0.00     0.000 HD
ATOM     43   O  GCT B   3      -2.699  33.486  79.7320  0.00  0.00     0.000 O
ATOM     45  HD  GCT B   3      -3.479  33.861  79.7550  0.00  0.00     0.000 HD
BRANCH 39 45
ATOM     45   C  GCT B   3      -2.208  34.650  75.3690  0.00  0.00     0.000 C
ATOM     46   O  GCT B   3      -2.284  35.524  74.4490  0.00  0.00     0.000 OA
ATOM     47   O  GCT B   3      -2.900  33.619  75.3740  0.00  0.00     0.000 OA
ENDBRANCH 39 45
BRANCH 35 48
ATOM     48  O3  ASG B   4      -3.664  37.017  76.7640  0.00  0.00     0.000 O
BRANCH 48 51
ATOM     49  C1  ASG B   4      -5.532  40.191  77.1240  0.00  0.00     0.000 C
ATOM     50  C2  ASG B   4      -5.254  38.683  77.0010  0.00  0.00     0.000 C
ATOM     51  C3  ASG B   4      -3.763  38.384  77.1240  0.00  0.00     0.000 C
ATOM     52  C4  ASG B   4      -2.946  39.270  76.1980  0.00  0.00     0.000 C
ATOM     53  C5  ASG B   4      -3.313  40.723  76.4850  0.00  0.00     0.000 C
ATOM     54  O5  ASG B   4      -4.716  40.917  76.2190  0.00  0.00     0.000 O
BRANCH 50 57
ATOM     55   N  ASG B   4      -5.650  37.671  76.0490  0.00  0.00     0.000 N
ATOM     57  HD  ASG B   4      -6.305  37.334  76.5040  0.00  0.00     0.000 HD
ATOM     57   O  ASG B   4      -7.784  37.594  76.7240  0.00  0.00     0.000 OA
ATOM     58   C  ASG B   4      -6.919  37.276  75.9130  0.00  0.00     0.000 C
ATOM     59   C  ASG B   4      -7.198  36.384  74.7430  0.00  0.00     0.000 C
ENDBRANCH 50 57
BRANCH 52 60
ATOM     60   O  ASG B   4      -3.322  38.794  74.8410  0.00  0.00     0.000 O
ATOM     61   O  ASG B   4      -1.050  39.250  73.9110  0.00  0.00     0.000 OA
ATOM     62   O  ASG B   4      -2.691  38.176  72.5600  0.00  0.00     0.000 OA
ATOM     63   O  ASG B   4      -3.055  40.432  73.2630  0.00  0.00     0.000 OA
ATOM     64   S  ASG B   4      -2.426  39.141  73.5580  0.00  0.00     0.000 S
ENDBRANCH 52 60
ATOM     65   O  ASG B   4      -2.680  43.050  76.2280  0.00  0.00     0.000 O
ATOM     67  HD  ASG B   4      -3.488  43.246  75.9860  0.00  0.00     0.000 HD
ATOM     67   O  ASG B   4      -2.680  43.050  76.2280  0.00  0.00     0.000 O
ATOM     69  HD  ASG B   4      -3.488  43.246  75.9860  0.00  0.00     0.000 HD
ENDBRANCH 48 51
ENDBRANCH 35 48
ENDBRANCH 34 38
ENDBRANCH 15 34
ENDBRANCH 14 17
ENDBRANCH 1 14
TORSDOF 12
ENDMDL
MODEL 44
REMARK VINA RESULT:      -8.2     29.224     33.870
ROOT
ATOM      1  C1  GAD B   1      -4.570  18.085  53.2190  0.00  0.00     0.000 C
ATOM      2  C2  GAD B   1      -5.022  19.391  52.5570  0.00  0.00     0.000 C
ATOM      3  C3  GAD B   1      -4.404  19.513  51.1590  0.00  0.00     0.000 C
ATOM      4  C4  GAD B   1      -3.020  18.874  51.0180  0.00  0.00     0.000 C
ATOM      5  C5  GAD B   1      -2.431  18.122  51.9690  0.00  0.00     0.000 C
ATOM      6  O5  GAD B   1      -3.140  17.957  53.2110  0.00  0.00     0.000 O
ATOM      7   O  GAD B   1      -6.493  19.507  52.5450  0.00  0.00     0.000 O
ATOM      9  HD  GAD B   1      -6.407  18.870  53.1250  0.00  0.00     0.000 HD
ATOM      9   O  GAD B   1      -4.249  20.895  50.7660  0.00  0.00     0.000 O
ATOM     11  HD  GAD B   1      -4.164  20.258  51.3460  0.00  0.00     0.000 HD
ENDROOT
BRANCH 5 11
ATOM     11   C  GAD B   1      -1.141  17.412  51.8030  0.00  0.00     0.000 C
ATOM     12   O  GAD B   1      -1.041  16.625  50.8120  0.00  0.00     0.000 OA
ATOM     13   O  GAD B   1      -0.213  17.544  52.6840  0.00  0.00     0.000 OA
ENDBRANCH 5 11
BRANCH 1 14
ATOM     14  O3  ASG B   2      -4.585  17.873  54.5480  0.00  0.00     0.000 O
BRANCH 14 17
ATOM     15  C1  ASG B   2      -2.447  15.864  56.9300  0.00  0.00     0.000 C
ATOM     16  C2  ASG B   2      -3.624  16.140  55.9850  0.00  0.00     0.000 C
ATOM     17  C3  ASG B   2      -3.507  17.567  55.4410  0.00  0.00     0.000 C
ATOM     18  C4  ASG B   2      -3.498  18.559  56.5880  0.00  0.00     0.000 C
ATOM     19  C5  ASG B   2      -2.394  18.177  57.5690  0.00  0.00     0.000 C
ATOM     20  O5  ASG B   2      -2.554  16.806  57.9810  0.00  0.00     0.000 O
ATOM     21   C  ASG B   2      -2.416  19.002  58.8160  0.00  0.00     0.000 C
ATOM     22   O  ASG B   2      -1.518  18.457  59.7510  0.00  0.00     0.000 O
ATOM     24  HD  ASG B   2      -1.008  18.236  60.4150  0.00  0.00     0.000 HD
BRANCH 16 26
ATOM     24   N  ASG B   2      -4.853  15.521  55.5430  0.00  0.00     0.000 N
ATOM     26  HD  ASG B   2      -4.777  16.378  55.6440  0.00  0.00     0.000 HD
ATOM     26   C  ASG B   2      -4.964  14.784  54.4220  0.00  0.00     0.000 C
ATOM     27   C  ASG B   2      -6.193  13.951  54.3040  0.00  0.00     0.000 C
ATOM     28   O  ASG B   2      -4.101  14.801  53.5520  0.00  0.00     0.000 OA
ENDBRANCH 16 26
BRANCH 18 29
ATOM     29   O  ASG B   2      -4.837  18.512  57.1900  0.00  0.00     0.000 O
ATOM     30   O  ASG B   2      -4.848  20.883  57.8420  0.00  0.00     0.000 OA
ATOM     31   O  ASG B   2      -6.195  20.136  55.9650  0.00  0.00     0.000 OA
ATOM     32   O  ASG B   2      -6.794  19.490  58.2170  0.00  0.00     0.000 OA
ATOM     33   S  ASG B   2      -5.715  19.854  57.2980  0.00  0.00     0.000 S
ENDBRANCH 18 29
BRANCH 15 34
ATOM     34  O4  ASG B   3      -2.457  14.578  57.4800  0.00  0.00     0.000 O
BRANCH 34 38
ATOM     35  C1  GCT B   3      -0.602  12.338  54.6680  0.00  0.00     0.000 C
ATOM     36  C2  GCT B   3      -1.208  11.532  55.7960  0.00  0.00     0.000 C
ATOM     37  C3  GCT B   3      -2.237  12.355  56.5580  0.00  0.00     0.000 C
ATOM     38  C4  GCT B   3      -1.556  13.602  57.1350  0.00  0.00     0.000 C
ATOM     39  C5  GCT B   3      -0.436  14.132  56.2110  0.00  0.00     0.000 C
ATOM     40  O5  GCT B   3      -0.776  13.733  54.8940  0.00  0.00     0.000 O
ATOM     41   O  GCT B   3      -1.828  10.403  55.1960  0.00  0.00     0.000 O
ATOM     43  HD  GCT B   3      -1.506   9.666  54.8740  0.00  0.00     0.000 HD
ATOM     43   O  GCT B   3      -2.832  11.521  57.5740  0.00  0.00     0.000 O
ATOM     45  HD  GCT B   3      -2.510  10.784  57.2520  0.00  0.00     0.000 HD
BRANCH 39 45
ATOM     45   C  GCT B   3       0.992  13.726  56.5040  0.00  0.00     0.000 C
ATOM     46   O  GCT B   3       1.221  12.810  57.3550  0.00  0.00     0.000 OA
ATOM     47   O  GCT B   3       1.897  14.304  55.8800  0.00  0.00     0.000 OA
ENDBRANCH 39 45
BRANCH 35 48
ATOM     48  O3  ASG B   4       0.454  11.707  54.2010  0.00  0.00     0.000 O
BRANCH 48 51
ATOM     49  C1  ASG B   4      -0.305  11.369  50.5950  0.00  0.00     0.000 C
ATOM     50  C2  ASG B   4      -0.482  11.304  52.1220  0.00  0.00     0.000 C
ATOM     51  C3  ASG B   4       0.635  12.056  52.8390  0.00  0.00     0.000 C
ATOM     52  C4  ASG B   4       2.002  11.632  52.3280  0.00  0.00     0.000 C
ATOM     53  C5  ASG B   4       2.015  11.802  50.8110  0.00  0.00     0.000 C
ATOM     54  O5  ASG B   4       1.002  10.955  50.2330  0.00  0.00     0.000 O
BRANCH 50 57
ATOM     55   N  ASG B   4      -1.788  11.703  51.6500  0.00  0.00     0.000 N
ATOM     57  HD  ASG B   4      -2.126  10.911  51.5650  0.00  0.00     0.000 HD
ATOM     57   O  ASG B   4      -2.838   9.885  52.4270  0.00  0.00     0.000 OA
ATOM     58   C  ASG B   4      -2.892  11.006  51.9330  0.00  0.00     0.000 C
ATOM     59   C  ASG B   4      -4.186  11.662  51.5580  0.00  0.00     0.000 C
ENDBRANCH 50 57
BRANCH 52 60
ATOM     60   O  ASG B   4       2.126  10.226  52.7930  0.00  0.00     0.000 O
ATOM     61   O  ASG B   4       4.543  10.491  53.3590  0.00  0.00     0.000 OA
ATOM     62   O  ASG B   4       3.417   8.462  53.8900  0.00  0.00     0.000 OA
ATOM     63   O  ASG B   4       3.700   9.072  51.5950  0.00  0.00     0.000 OA
ATOM     64   S  ASG B   4       3.560   9.533  52.9790  0.00  0.00     0.000 S
ENDBRANCH 52 60
ATOM     65   O  ASG B   4       3.379  11.970  48.8130  0.00  0.00     0.000 O
ATOM     67  HD  ASG B   4       2.860  11.407  48.4080  0.00  0.00     0.000 HD
ATOM     67   O  ASG B   4       3.379  11.970  48.8130  0.00  0.00     0.000 O
ATOM     69  HD  ASG B   4       2.860  11.407  48.4080  0.00  0.00     0.000 HD
ENDBRANCH 48 51
ENDBRANCH 35 48
ENDBRANCH 34 38
ENDBRANCH 15 34
ENDBRANCH 14 17
ENDBRANCH 1 14
TORSDOF 12
ENDMDL
MODEL 45
REMARK VINA RESULT:      -8.2     27.380     30.508
ROOT
ATOM      1  C1  GAD B   1     -10.220  50.036  50.0200  0.00  0.00     0.000 C
ATOM      2  C2  GAD B   1      -9.947  51.067  48.9200  0.00  0.00     0.000 C
ATOM      3  C3  GAD B   1      -9.688  52.444  49.5410  0.00  0.00     0.000 C
ATOM      4  C4  GAD B   1     -10.453  52.709  50.8410  0.00  0.00     0.000 C
ATOM      5  C5  GAD B   1     -11.177  51.780  51.4980  0.00  0.00     0.000 C
ATOM      6  O5  GAD B   1     -11.265  50.472  50.9020  0.00  0.00     0.000 O
ATOM      7   O  GAD B   1      -8.856  50.627  48.0290  0.00  0.00     0.000 O
ATOM      9  HD  GAD B   1      -9.028  49.875  48.4220  0.00  0.00     0.000 HD
ATOM      9   O  GAD B   1     -10.053  53.512  48.6380  0.00  0.00     0.000 O
ATOM     11  HD  GAD B   1     -10.225  52.760  49.0310  0.00  0.00     0.000 HD
ENDROOT
BRANCH 5 11
ATOM     11   C  GAD B   1     -11.833  51.995  52.8090  0.00  0.00     0.000 C
ATOM     12   O  GAD B   1     -12.740  51.170  53.1400  0.00  0.00     0.000 OA
ATOM     13   O  GAD B   1     -11.535  53.025  53.5200  0.00  0.00     0.000 OA
ENDBRANCH 5 11
BRANCH 1 14
ATOM     14  O3  ASG B   2     -10.872  48.876  49.8170  0.00  0.00     0.000 O
BRANCH 14 17
ATOM     15  C1  ASG B   2     -14.268  47.254  50.1500  0.00  0.00     0.000 C
ATOM     16  C2  ASG B   2     -12.775  47.469  50.4360  0.00  0.00     0.000 C
ATOM     17  C3  ASG B   2     -12.264  48.633  49.5830  0.00  0.00     0.000 C
ATOM     18  C4  ASG B   2     -12.489  48.336  48.1120  0.00  0.00     0.000 C
ATOM     19  C5  ASG B   2     -13.961  48.006  47.8910  0.00  0.00     0.000 C
ATOM     20  O5  ASG B   2     -14.366  46.940  48.7730  0.00  0.00     0.000 O
ATOM     21   C  ASG B   2     -14.247  47.538  46.5000  0.00  0.00     0.000 C
ATOM     22   O  ASG B   2     -15.566  47.054  46.4320  0.00  0.00     0.000 O
ATOM     24  HD  ASG B   2     -16.347  46.731  46.2450  0.00  0.00     0.000 HD
BRANCH 16 26
ATOM     24   N  ASG B   2     -11.695  46.848  51.1670  0.00  0.00     0.000 N
ATOM     26  HD  ASG B   2     -11.571  47.245  50.4070  0.00  0.00     0.000 HD
ATOM     26   C  ASG B   2     -11.321  47.208  52.4080  0.00  0.00     0.000 C
ATOM     27   C  ASG B   2     -10.435  46.252  53.1300  0.00  0.00     0.000 C
ATOM     28   O  ASG B   2     -11.690  48.262  52.9120  0.00  0.00     0.000 OA
ENDBRANCH 16 26
BRANCH 18 29
ATOM     29   O  ASG B   2     -11.597  47.220  47.7710  0.00  0.00     0.000 O
ATOM     30   O  ASG B   2     -11.300  47.908  45.4300  0.00  0.00     0.000 OA
ATOM     31   O  ASG B   2      -9.497  48.227  47.0240  0.00  0.00     0.000 OA
ATOM     32   O  ASG B   2     -10.105  45.997  46.3160  0.00  0.00     0.000 OA
ATOM     33   S  ASG B   2     -10.558  47.367  46.5540  0.00  0.00     0.000 S
ENDBRANCH 18 29
BRANCH 15 34
ATOM     34  O4  ASG B   3     -14.837  46.210  50.8870  0.00  0.00     0.000 O
BRANCH 34 38
ATOM     35  C1  GCT B   3     -16.222  48.642  53.8080  0.00  0.00     0.000 C
ATOM     36  C2  GCT B   3     -15.585  47.367  54.3180  0.00  0.00     0.000 C
ATOM     37  C3  GCT B   3     -14.718  46.727  53.2440  0.00  0.00     0.000 C
ATOM     38  C4  GCT B   3     -15.585  46.407  52.0200  0.00  0.00     0.000 C
ATOM     39  C5  GCT B   3     -16.706  47.451  51.8150  0.00  0.00     0.000 C
ATOM     40  O5  GCT B   3     -16.241  48.662  52.3850  0.00  0.00     0.000 O
ATOM     41   O  GCT B   3     -14.792  47.733  55.4390  0.00  0.00     0.000 O
ATOM     43  HD  GCT B   3     -14.998  47.930  56.2570  0.00  0.00     0.000 HD
ATOM     43   O  GCT B   3     -14.082  45.558  53.8020  0.00  0.00     0.000 O
ATOM     45  HD  GCT B   3     -14.288  45.755  54.6200  0.00  0.00     0.000 HD
BRANCH 39 45
ATOM     45   C  GCT B   3     -18.085  47.142  52.3550  0.00  0.00     0.000 C
ATOM     46   O  GCT B   3     -18.282  46.056  52.9860  0.00  0.00     0.000 OA
ATOM     47   O  GCT B   3     -18.981  47.981  52.1680  0.00  0.00     0.000 OA
ENDBRANCH 39 45
BRANCH 35 48
ATOM     48  O3  ASG B   4     -17.159  49.027  54.6480  0.00  0.00     0.000 O
BRANCH 48 51
ATOM     49  C1  ASG B   4     -17.294  50.877  57.8490  0.00  0.00     0.000 C
ATOM     50  C2  ASG B   4     -17.685  49.903  56.7250  0.00  0.00     0.000 C
ATOM     51  C3  ASG B   4     -16.559  49.755  55.7060  0.00  0.00     0.000 C
ATOM     52  C4  ASG B   4     -16.057  51.111  55.2400  0.00  0.00     0.000 C
ATOM     53  C5  ASG B   4     -15.674  51.925  56.4730  0.00  0.00     0.000 C
ATOM     54  O5  ASG B   4     -16.839  52.104  57.3010  0.00  0.00     0.000 O
BRANCH 50 57
ATOM     55   N  ASG B   4     -18.040  48.579  57.1810  0.00  0.00     0.000 N
ATOM     57  HD  ASG B   4     -18.724  48.802  57.6630  0.00  0.00     0.000 HD
ATOM     57   O  ASG B   4     -20.209  49.051  57.4760  0.00  0.00     0.000 OA
ATOM     58   C  ASG B   4     -19.306  48.223  57.4240  0.00  0.00     0.000 C
ATOM     59   C  ASG B   4     -19.531  46.764  57.6780  0.00  0.00     0.000 C
ENDBRANCH 50 57
BRANCH 52 60
ATOM     60   O  ASG B   4     -17.202  51.660  54.4690  0.00  0.00     0.000 O
ATOM     61   O  ASG B   4     -15.829  51.979  52.4090  0.00  0.00     0.000 OA
ATOM     62   O  ASG B   4     -18.172  52.397  52.3480  0.00  0.00     0.000 OA
ATOM     63   O  ASG B   4     -16.777  53.780  53.7120  0.00  0.00     0.000 OA
ATOM     64   S  ASG B   4     -16.977  52.463  53.0990  0.00  0.00     0.000 S
ENDBRANCH 52 60
ATOM     65   O  ASG B   4     -14.458  53.842  57.3250  0.00  0.00     0.000 O
ATOM     67  HD  ASG B   4     -15.143  54.068  57.8040  0.00  0.00     0.000 HD
ATOM     67   O  ASG B   4     -14.458  53.842  57.3250  0.00  0.00     0.000 O
ATOM     69  HD  ASG B   4     -15.143  54.068  57.8040  0.00  0.00     0.000 HD
ENDBRANCH 48 51
ENDBRANCH 35 48
ENDBRANCH 34 38
ENDBRANCH 15 34
ENDBRANCH 14 17
ENDBRANCH 1 14
TORSDOF 12
ENDMDL
MODEL 46
REMARK VINA RESULT:      -8.1      3.336     10.988
ROOT
ATOM      1  C1  GAD B   1     -11.934  31.449  82.2460  0.00  0.00     0.000 C
ATOM      2  C2  GAD B   1     -11.956  32.444  83.4110  0.00  0.00     0.000 C
ATOM      3  C3  GAD B   1     -13.398  32.675  83.8790  0.00  0.00     0.000 C
ATOM      4  C4  GAD B   1     -14.449  32.577  82.7700  0.00  0.00     0.000 C
ATOM      5  C5  GAD B   1     -14.189  32.169  81.5110  0.00  0.00     0.000 C
ATOM      6  O5  GAD B   1     -12.821  31.853  81.1910  0.00  0.00     0.000 O
ATOM      7   O  GAD B   1     -11.062  32.013  84.5030  0.00  0.00     0.000 O
ATOM      9  HD  GAD B   1     -10.770  31.498  83.8710  0.00  0.00     0.000 HD
ATOM      9   O  GAD B   1     -13.561  33.983  84.4710  0.00  0.00     0.000 O
ATOM     11  HD  GAD B   1     -13.268  33.468  83.8390  0.00  0.00     0.000 HD
ENDROOT
BRANCH 5 11
ATOM     11   C  GAD B   1     -15.215  31.969  80.4610  0.00  0.00     0.000 C
ATOM     12   O  GAD B   1     -15.812  33.007  80.0350  0.00  0.00     0.000 OA
ATOM     13   O  GAD B   1     -15.524  30.781  80.0770  0.00  0.00     0.000 OA
ENDBRANCH 5 11
BRANCH 1 14
ATOM     14  O3  ASG B   2     -10.924  31.350  81.3610  0.00  0.00     0.000 O
BRANCH 14 17
ATOM     15  C1  ASG B   2      -7.943  33.131  79.8720  0.00  0.00     0.000 C
ATOM     16  C2  ASG B   2      -9.282  32.380  79.8680  0.00  0.00     0.000 C
ATOM     17  C3  ASG B   2      -9.675  32.050  81.3110  0.00  0.00     0.000 C
ATOM     18  C4  ASG B   2      -8.594  31.211  81.9640  0.00  0.00     0.000 C
ATOM     19  C5  ASG B   2      -7.257  31.935  81.8370  0.00  0.00     0.000 C
ATOM     20  O5  ASG B   2      -6.998  32.253  80.4550  0.00  0.00     0.000 O
ATOM     21   C  ASG B   2      -6.103  31.107  82.3060  0.00  0.00     0.000 C
ATOM     22   O  ASG B   2      -4.900  31.748  81.9630  0.00  0.00     0.000 O
ATOM     24  HD  ASG B   2      -4.092  32.026  81.8190  0.00  0.00     0.000 HD
BRANCH 16 26
ATOM     24   N  ASG B   2     -10.349  33.060  79.1700  0.00  0.00     0.000 N
ATOM     26  HD  ASG B   2      -9.514  33.195  78.9830  0.00  0.00     0.000 HD
ATOM     26   C  ASG B   2     -11.308  32.431  78.4660  0.00  0.00     0.000 C
ATOM     27   C  ASG B   2     -12.501  33.250  78.1090  0.00  0.00     0.000 C
ATOM     28   O  ASG B   2     -11.203  31.255  78.1410  0.00  0.00     0.000 OA
ENDBRANCH 16 26
BRANCH 18 29
ATOM     29   O  ASG B   2      -8.605  29.911  81.2810  0.00  0.00     0.000 O
ATOM     30   O  ASG B   2      -8.016  28.622  83.2900  0.00  0.00     0.000 OA
ATOM     31   O  ASG B   2     -10.284  28.551  82.4280  0.00  0.00     0.000 OA
ATOM     32   O  ASG B   2      -8.489  27.499  81.1970  0.00  0.00     0.000 OA
ATOM     33   S  ASG B   2      -8.873  28.567  82.1200  0.00  0.00     0.000 S
ENDBRANCH 18 29
BRANCH 15 34
ATOM     34  O4  ASG B   3      -7.494  33.486  78.5950  0.00  0.00     0.000 O
BRANCH 34 38
ATOM     35  C1  GCT B   3      -4.374  35.248  76.7180  0.00  0.00     0.000 C
ATOM     36  C2  GCT B   3      -4.574  33.794  76.3490  0.00  0.00     0.000 C
ATOM     37  C3  GCT B   3      -5.972  33.326  76.7260  0.00  0.00     0.000 C
ATOM     38  C4  GCT B   3      -6.170  33.497  78.2370  0.00  0.00     0.000 C
ATOM     39  C5  GCT B   3      -5.420  34.734  78.7840  0.00  0.00     0.000 C
ATOM     40  O5  GCT B   3      -5.313  35.650  77.7090  0.00  0.00     0.000 O
ATOM     41   O  GCT B   3      -4.387  33.706  74.9430  0.00  0.00     0.000 O
ATOM     43  HD  GCT B   3      -3.675  33.710  74.4500  0.00  0.00     0.000 HD
ATOM     43   O  GCT B   3      -6.133  31.960  76.2910  0.00  0.00     0.000 O
ATOM     45  HD  GCT B   3      -5.421  31.963  75.7980  0.00  0.00     0.000 HD
BRANCH 39 45
ATOM     45   C  GCT B   3      -4.056  34.531  79.4060  0.00  0.00     0.000 C
ATOM     46   O  GCT B   3      -3.390  35.539  79.8010  0.00  0.00     0.000 OA
ATOM     47   O  GCT B   3      -3.639  33.366  79.5190  0.00  0.00     0.000 OA
ENDBRANCH 39 45
BRANCH 35 48
ATOM     48  O3  ASG B   4      -3.096  35.548  76.6280  0.00  0.00     0.000 O
BRANCH 48 51
ATOM     49  C1  ASG B   4      -2.825  38.891  75.0670  0.00  0.00     0.000 C
ATOM     50  C2  ASG B   4      -3.180  37.406  75.2500  0.00  0.00     0.000 C
ATOM     51  C3  ASG B   4      -2.947  36.956  76.6890  0.00  0.00     0.000 C
ATOM     52  C4  ASG B   4      -1.563  37.354  77.1730  0.00  0.00     0.000 C
ATOM     53  C5  ASG B   4      -1.399  38.857  76.9590  0.00  0.00     0.000 C
ATOM     54  O5  ASG B   4      -1.518  39.149  75.5530  0.00  0.00     0.000 O
BRANCH 50 57
ATOM     55   N  ASG B   4      -4.550  37.449  74.7920  0.00  0.00     0.000 N
ATOM     57  HD  ASG B   4      -4.385  37.541  73.9460  0.00  0.00     0.000 HD
ATOM     57   O  ASG B   4      -4.093  36.660  72.7460  0.00  0.00     0.000 OA
ATOM     58   C  ASG B   4      -4.919  36.970  73.6000  0.00  0.00     0.000 C
ATOM     59   C  ASG B   4      -6.395  36.890  73.3620  0.00  0.00     0.000 C
ENDBRANCH 50 57
BRANCH 52 60
ATOM     60   O  ASG B   4      -0.653  36.511  76.3560  0.00  0.00     0.000 O
ATOM     61   O  ASG B   4       0.745  35.883  78.3260  0.00  0.00     0.000 OA
ATOM     62   O  ASG B   4       1.170  34.886  76.2060  0.00  0.00     0.000 OA
ATOM     63   O  ASG B   4       1.516  37.237  76.4800  0.00  0.00     0.000 OA
ATOM     64   S  ASG B   4       0.778  36.046  76.9120  0.00  0.00     0.000 S
ENDBRANCH 52 60
ATOM     65   O  ASG B   4      -0.138  40.848  77.5280  0.00  0.00     0.000 O
ATOM     67  HD  ASG B   4      -0.097  41.065  76.6910  0.00  0.00     0.000 HD
ATOM     67   O  ASG B   4      -0.138  40.848  77.5280  0.00  0.00     0.000 O
ATOM     69  HD  ASG B   4      -0.097  41.065  76.6910  0.00  0.00     0.000 HD
ENDBRANCH 48 51
ENDBRANCH 35 48
ENDBRANCH 34 38
ENDBRANCH 15 34
ENDBRANCH 14 17
ENDBRANCH 1 14
TORSDOF 12
ENDMDL
MODEL 47
REMARK VINA RESULT:      -8.1     26.654     31.347
ROOT
ATOM      1  C1  GAD B   1      -6.018  18.457  58.6530  0.00  0.00     0.000 C
ATOM      2  C2  GAD B   1      -5.670  18.993  57.2610  0.00  0.00     0.000 C
ATOM      3  C3  GAD B   1      -6.922  19.573  56.5920  0.00  0.00     0.000 C
ATOM      4  C4  GAD B   1      -8.229  18.875  56.9780  0.00  0.00     0.000 C
ATOM      5  C5  GAD B   1      -8.333  17.935  57.9390  0.00  0.00     0.000 C
ATOM      6  O5  GAD B   1      -7.119  17.538  58.6040  0.00  0.00     0.000 O
ATOM      7   O  GAD B   1      -4.554  19.957  57.3180  0.00  0.00     0.000 O
ATOM      9  HD  GAD B   1      -4.471  19.599  58.1020  0.00  0.00     0.000 HD
ATOM      9   O  GAD B   1      -6.838  19.496  55.1510  0.00  0.00     0.000 O
ATOM     11  HD  GAD B   1      -6.755  19.139  55.9350  0.00  0.00     0.000 HD
ENDROOT
BRANCH 5 11
ATOM     11   C  GAD B   1      -9.607  17.331  58.3940  0.00  0.00     0.000 C
ATOM     12   O  GAD B   1      -9.592  16.733  59.5140  0.00  0.00     0.000 OA
ATOM     13   O  GAD B   1     -10.642  17.356  57.6310  0.00  0.00     0.000 OA
ENDBRANCH 5 11
BRANCH 1 14
ATOM     14  O3  ASG B   2      -5.281  17.544  59.3120  0.00  0.00     0.000 O
BRANCH 14 17
ATOM     15  C1  ASG B   2      -2.028  15.676  58.8550  0.00  0.00     0.000 C
ATOM     16  C2  ASG B   2      -3.551  15.871  58.8710  0.00  0.00     0.000 C
ATOM     17  C3  ASG B   2      -3.868  17.311  59.2850  0.00  0.00     0.000 C
ATOM     18  C4  ASG B   2      -3.277  17.600  60.6510  0.00  0.00     0.000 C
ATOM     19  C5  ASG B   2      -1.786  17.276  60.6280  0.00  0.00     0.000 C
ATOM     20  O5  ASG B   2      -1.583  15.923  60.1750  0.00  0.00     0.000 O
ATOM     21   C  ASG B   2      -1.152  17.372  61.9790  0.00  0.00     0.000 C
ATOM     22   O  ASG B   2       0.156  16.858  61.9170  0.00  0.00     0.000 O
ATOM     24  HD  ASG B   2       0.968  16.578  62.0250  0.00  0.00     0.000 HD
BRANCH 16 26
ATOM     24   N  ASG B   2      -4.263  15.613  57.6410  0.00  0.00     0.000 N
ATOM     26  HD  ASG B   2      -3.465  15.310  57.7850  0.00  0.00     0.000 HD
ATOM     26   C  ASG B   2      -5.441  14.964  57.5750  0.00  0.00     0.000 C
ATOM     27   C  ASG B   2      -6.187  15.089  56.2920  0.00  0.00     0.000 C
ATOM     28   O  ASG B   2      -5.870  14.311  58.5180  0.00  0.00     0.000 OA
ENDBRANCH 16 26
BRANCH 18 29
ATOM     29   O  ASG B   2      -4.024  16.776  61.6110  0.00  0.00     0.000 O
ATOM     30   O  ASG B   2      -3.834  18.393  63.4540  0.00  0.00     0.000 OA
ATOM     31   O  ASG B   2      -5.952  18.113  62.3020  0.00  0.00     0.000 OA
ATOM     32   O  ASG B   2      -5.109  16.353  63.7280  0.00  0.00     0.000 OA
ATOM     33   S  ASG B   2      -4.778  17.473  62.8480  0.00  0.00     0.000 S
ENDBRANCH 18 29
BRANCH 15 34
ATOM     34  O4  ASG B   3      -1.630  14.388  58.4820  0.00  0.00     0.000 O
BRANCH 34 38
ATOM     35  C1  GCT B   3      -1.754  14.634  54.4460  0.00  0.00     0.000 C
ATOM     36  C2  GCT B   3      -1.613  13.223  54.9730  0.00  0.00     0.000 C
ATOM     37  C3  GCT B   3      -2.006  13.151  56.4420  0.00  0.00     0.000 C
ATOM     38  C4  GCT B   3      -1.102  14.087  57.2520  0.00  0.00     0.000 C
ATOM     39  C5  GCT B   3      -0.710  15.350  56.4520  0.00  0.00     0.000 C
ATOM     40  O5  GCT B   3      -1.749  15.574  55.5150  0.00  0.00     0.000 O
ATOM     41   O  GCT B   3      -2.478  12.412  54.1910  0.00  0.00     0.000 O
ATOM     43  HD  GCT B   3      -2.409  12.095  53.3880  0.00  0.00     0.000 HD
ATOM     43   O  GCT B   3      -1.921  11.776  56.8730  0.00  0.00     0.000 O
ATOM     45  HD  GCT B   3      -1.851  11.459  56.0710  0.00  0.00     0.000 HD
BRANCH 39 45
ATOM     45   C  GCT B   3       0.622  15.363  55.7350  0.00  0.00     0.000 C
ATOM     46   O  GCT B   3       1.482  14.463  55.9930  0.00  0.00     0.000 OA
ATOM     47   O  GCT B   3       0.820  16.260  54.8980  0.00  0.00     0.000 OA
ENDBRANCH 39 45
BRANCH 35 48
ATOM     48  O3  ASG B   4      -1.165  14.722  53.2730  0.00  0.00     0.000 O
BRANCH 48 51
ATOM     49  C1  ASG B   4      -2.404  15.166  49.8140  0.00  0.00     0.000 C
ATOM     50  C2  ASG B   4      -1.651  14.567  51.0140  0.00  0.00     0.000 C
ATOM     51  C3  ASG B   4      -2.099  15.209  52.3240  0.00  0.00     0.000 C
ATOM     52  C4  ASG B   4      -2.067  16.726  52.2330  0.00  0.00     0.000 C
ATOM     53  C5  ASG B   4      -2.894  17.146  51.0210  0.00  0.00     0.000 C
ATOM     54  O5  ASG B   4      -2.310  16.581  49.8310  0.00  0.00     0.000 O
BRANCH 50 57
ATOM     55   N  ASG B   4      -0.363  14.122  51.4960  0.00  0.00     0.000 N
ATOM     57  HD  ASG B   4      -0.385  13.324  51.1620  0.00  0.00     0.000 HD
ATOM     57   O  ASG B   4      -0.045  12.634  49.8540  0.00  0.00     0.000 OA
ATOM     58   C  ASG B   4       0.394  13.257  50.8150  0.00  0.00     0.000 C
ATOM     59   C  ASG B   4       1.784  13.063  51.3370  0.00  0.00     0.000 C
ENDBRANCH 50 57
BRANCH 52 60
ATOM     60   O  ASG B   4      -0.618  17.037  52.1290  0.00  0.00     0.000 O
ATOM     61   O  ASG B   4      -0.867  19.211  53.3310  0.00  0.00     0.000 OA
ATOM     62   O  ASG B   4       1.301  18.429  52.7330  0.00  0.00     0.000 OA
ATOM     63   O  ASG B   4      -0.250  18.998  51.0040  0.00  0.00     0.000 OA
ATOM     64   S  ASG B   4      -0.064  18.521  52.3780  0.00  0.00     0.000 S
ENDBRANCH 52 60
ATOM     65   O  ASG B   4      -4.052  18.959  49.9010  0.00  0.00     0.000 O
ATOM     67  HD  ASG B   4      -3.686  18.733  49.1500  0.00  0.00     0.000 HD
ATOM     67   O  ASG B   4      -4.052  18.959  49.9010  0.00  0.00     0.000 O
ATOM     69  HD  ASG B   4      -3.686  18.733  49.1500  0.00  0.00     0.000 HD
ENDBRANCH 48 51
ENDBRANCH 35 48
ENDBRANCH 34 38
ENDBRANCH 15 34
ENDBRANCH 14 17
ENDBRANCH 1 14
TORSDOF 12
ENDMDL
MODEL 48
REMARK VINA RESULT:      -8.0     29.690     34.032
ROOT
ATOM      1  C1  GAD B   1     -12.901  27.981  49.5070  0.00  0.00     0.000 C
ATOM      2  C2  GAD B   1     -13.083  29.310  50.2460  0.00  0.00     0.000 C
ATOM      3  C3  GAD B   1     -11.736  29.795  50.7960  0.00  0.00     0.000 C
ATOM      4  C4  GAD B   1     -10.775  28.674  51.2000  0.00  0.00     0.000 C
ATOM      5  C5  GAD B   1     -10.991  27.365  50.9610  0.00  0.00     0.000 C
ATOM      6  O5  GAD B   1     -12.234  27.009  50.3260  0.00  0.00     0.000 O
ATOM      7   O  GAD B   1     -13.747  30.314  49.3920  0.00  0.00     0.000 O
ATOM      9  HD  GAD B   1     -13.924  29.601  48.9330  0.00  0.00     0.000 HD
ATOM      9   O  GAD B   1     -11.908  30.618  51.9710  0.00  0.00     0.000 O
ATOM     11  HD  GAD B   1     -12.085  29.905  51.5130  0.00  0.00     0.000 HD
ENDROOT
BRANCH 5 11
ATOM     11   C  GAD B   1     -10.022  26.283  51.2520  0.00  0.00     0.000 C
ATOM     12   O  GAD B   1      -9.683  26.125  52.4660  0.00  0.00     0.000 OA
ATOM     13   O  GAD B   1      -9.501  25.607  50.2900  0.00  0.00     0.000 OA
ENDBRANCH 5 11
BRANCH 1 14
ATOM     14  O3  ASG B   2     -13.898  27.106  49.2770  0.00  0.00     0.000 O
BRANCH 14 17
ATOM     15  C1  ASG B   2     -14.358  23.358  49.1440  0.00  0.00     0.000 C
ATOM     16  C2  ASG B   2     -14.179  24.776  48.5840  0.00  0.00     0.000 C
ATOM     17  C3  ASG B   2     -14.070  25.765  49.7490  0.00  0.00     0.000 C
ATOM     18  C4  ASG B   2     -15.313  25.684  50.6150  0.00  0.00     0.000 C
ATOM     19  C5  ASG B   2     -15.525  24.237  51.0480  0.00  0.00     0.000 C
ATOM     20  O5  ASG B   2     -15.558  23.376  49.8930  0.00  0.00     0.000 O
ATOM     21   C  ASG B   2     -16.819  24.032  51.7690  0.00  0.00     0.000 C
ATOM     22   O  ASG B   2     -17.041  22.655  51.9450  0.00  0.00     0.000 O
ATOM     24  HD  ASG B   2     -17.304  21.849  52.1240  0.00  0.00     0.000 HD
BRANCH 16 26
ATOM     24   N  ASG B   2     -14.197  25.451  47.3070  0.00  0.00     0.000 N
ATOM     26  HD  ASG B   2     -14.512  25.815  48.0270  0.00  0.00     0.000 HD
ATOM     26   C  ASG B   2     -13.093  25.744  46.5950  0.00  0.00     0.000 C
ATOM     27   C  ASG B   2     -13.314  26.122  45.1700  0.00  0.00     0.000 C
ATOM     28   O  ASG B   2     -11.975  25.701  47.0930  0.00  0.00     0.000 OA
ENDBRANCH 16 26
BRANCH 18 29
ATOM     29   O  ASG B   2     -16.421  26.204  49.8030  0.00  0.00     0.000 O
ATOM     30   O  ASG B   2     -17.556  27.298  51.6900  0.00  0.00     0.000 OA
ATOM     31   O  ASG B   2     -16.366  28.637  50.0510  0.00  0.00     0.000 OA
ATOM     32   O  ASG B   2     -18.418  27.515  49.4370  0.00  0.00     0.000 OA
ATOM     33   S  ASG B   2     -17.230  27.505  50.2910  0.00  0.00     0.000 S
ENDBRANCH 18 29
BRANCH 15 34
ATOM     34  O4  ASG B   3     -14.462  22.373  48.1560  0.00  0.00     0.000 O
BRANCH 34 38
ATOM     35  C1  GCT B   3     -10.613  22.273  46.9170  0.00  0.00     0.000 C
ATOM     36  C2  GCT B   3     -11.591  21.663  45.9370  0.00  0.00     0.000 C
ATOM     37  C3  GCT B   3     -13.013  22.113  46.2400  0.00  0.00     0.000 C
ATOM     38  C4  GCT B   3     -13.385  21.680  47.6640  0.00  0.00     0.000 C
ATOM     39  C5  GCT B   3     -12.170  21.721  48.6180  0.00  0.00     0.000 C
ATOM     40  O5  GCT B   3     -11.281  22.695  48.1000  0.00  0.00     0.000 O
ATOM     41   O  GCT B   3     -11.199  22.108  44.6460  0.00  0.00     0.000 O
ATOM     43  HD  GCT B   3     -10.556  21.866  44.1190  0.00  0.00     0.000 HD
ATOM     43   O  GCT B   3     -13.894  21.561  45.2390  0.00  0.00     0.000 O
ATOM     45  HD  GCT B   3     -13.250  21.319  44.7110  0.00  0.00     0.000 HD
BRANCH 39 45
ATOM     45   C  GCT B   3     -11.412  20.436  48.8720  0.00  0.00     0.000 C
ATOM     46   O  GCT B   3     -10.456  20.428  49.7110  0.00  0.00     0.000 OA
ATOM     47   O  GCT B   3     -11.768  19.422  48.2510  0.00  0.00     0.000 OA
ENDBRANCH 39 45
BRANCH 35 48
ATOM     48  O3  ASG B   4      -9.449  21.671  46.8010  0.00  0.00     0.000 O
BRANCH 48 51
ATOM     49  C1  ASG B   4      -7.367  24.706  46.4140  0.00  0.00     0.000 C
ATOM     50  C2  ASG B   4      -8.553  23.738  46.2640  0.00  0.00     0.000 C
ATOM     51  C3  ASG B   4      -8.427  22.558  47.2240  0.00  0.00     0.000 C
ATOM     52  C4  ASG B   4      -7.052  21.916  47.1300  0.00  0.00     0.000 C
ATOM     53  C5  ASG B   4      -6.005  23.005  47.3450  0.00  0.00     0.000 C
ATOM     54  O5  ASG B   4      -6.140  24.001  46.3130  0.00  0.00     0.000 O
BRANCH 50 57
ATOM     55   N  ASG B   4      -8.159  24.062  44.9120  0.00  0.00     0.000 N
ATOM     57  HD  ASG B   4      -8.946  24.034  44.5530  0.00  0.00     0.000 HD
ATOM     57   O  ASG B   4     -10.131  24.960  44.3470  0.00  0.00     0.000 OA
ATOM     58   C  ASG B   4      -8.951  24.748  44.0830  0.00  0.00     0.000 C
ATOM     59   C  ASG B   4      -8.319  25.189  42.7990  0.00  0.00     0.000 C
ENDBRANCH 50 57
BRANCH 52 60
ATOM     60   O  ASG B   4      -7.043  21.310  45.7740  0.00  0.00     0.000 O
ATOM     61   O  ASG B   4      -5.476  19.491  46.4570  0.00  0.00     0.000 OA
ATOM     62   O  ASG B   4      -6.424  19.480  44.2730  0.00  0.00     0.000 OA
ATOM     63   O  ASG B   4      -4.932  21.246  44.8870  0.00  0.00     0.000 OA
ATOM     64   S  ASG B   4      -5.916  20.257  45.3390  0.00  0.00     0.000 S
ENDBRANCH 52 60
ATOM     65   O  ASG B   4      -3.690  23.499  47.8750  0.00  0.00     0.000 O
ATOM     67  HD  ASG B   4      -3.660  24.069  47.2230  0.00  0.00     0.000 HD
ATOM     67   O  ASG B   4      -3.690  23.499  47.8750  0.00  0.00     0.000 O
ATOM     69  HD  ASG B   4      -3.660  24.069  47.2230  0.00  0.00     0.000 HD
ENDBRANCH 48 51
ENDBRANCH 35 48
ENDBRANCH 34 38
ENDBRANCH 15 34
ENDBRANCH 14 17
ENDBRANCH 1 14
TORSDOF 12
ENDMDL
MODEL 49
REMARK VINA RESULT:      -8.0     30.553     33.673
ROOT
ATOM      1  C1  GAD B   1     -11.130  51.066  51.7780  0.00  0.00     0.000 C
ATOM      2  C2  GAD B   1     -12.165  51.474  52.8310  0.00  0.00     0.000 C
ATOM      3  C3  GAD B   1     -12.320  50.363  53.8750  0.00  0.00     0.000 C
ATOM      4  C4  GAD B   1     -12.113  48.947  53.3310  0.00  0.00     0.000 C
ATOM      5  C5  GAD B   1     -11.675  48.668  52.0870  0.00  0.00     0.000 C
ATOM      6  O5  GAD B   1     -11.435  49.784  51.2080  0.00  0.00     0.000 O
ATOM      7   O  GAD B   1     -11.834  52.781  53.4310  0.00  0.00     0.000 O
ATOM      9  HD  GAD B   1     -11.315  52.810  52.7380  0.00  0.00     0.000 HD
ATOM      9   O  GAD B   1     -13.637  50.374  54.4710  0.00  0.00     0.000 O
ATOM     11  HD  GAD B   1     -13.118  50.403  53.7780  0.00  0.00     0.000 HD
ENDROOT
BRANCH 5 11
ATOM     11   C  GAD B   1     -11.369  47.308  51.5850  0.00  0.00     0.000 C
ATOM     12   O  GAD B   1     -10.475  46.653  52.2060  0.00  0.00     0.000 OA
ATOM     13   O  GAD B   1     -11.941  46.869  50.5200  0.00  0.00     0.000 OA
ENDBRANCH 5 11
BRANCH 1 14
ATOM     14  O3  ASG B   2     -11.062  51.600  50.5440  0.00  0.00     0.000 O
BRANCH 14 17
ATOM     15  C1  ASG B   2     -11.897  50.709  46.9680  0.00  0.00     0.000 C
ATOM     16  C2  ASG B   2     -10.991  50.981  48.1780  0.00  0.00     0.000 C
ATOM     17  C3  ASG B   2     -11.863  51.340  49.3850  0.00  0.00     0.000 C
ATOM     18  C4  ASG B   2     -12.711  52.557  49.0680  0.00  0.00     0.000 C
ATOM     19  C5  ASG B   2     -13.502  52.294  47.7900  0.00  0.00     0.000 C
ATOM     20  O5  ASG B   2     -12.607  51.909  46.7270  0.00  0.00     0.000 O
ATOM     21   C  ASG B   2     -14.241  53.500  47.3080  0.00  0.00     0.000 C
ATOM     22   O  ASG B   2     -14.765  53.245  46.0280  0.00  0.00     0.000 O
ATOM     24  HD  ASG B   2     -15.144  53.227  45.2490  0.00  0.00     0.000 HD
BRANCH 16 26
ATOM     24   N  ASG B   2      -9.643  51.136  48.6730  0.00  0.00     0.000 N
ATOM     26  HD  ASG B   2     -10.331  51.446  49.0990  0.00  0.00     0.000 HD
ATOM     26   C  ASG B   2      -8.828  50.107  48.9710  0.00  0.00     0.000 C
ATOM     27   C  ASG B   2      -7.385  50.442  49.1350  0.00  0.00     0.000 C
ATOM     28   O  ASG B   2      -9.251  48.965  49.0970  0.00  0.00     0.000 OA
ENDBRANCH 16 26
BRANCH 18 29
ATOM     29   O  ASG B   2     -11.785  53.690  48.9420  0.00  0.00     0.000 O
ATOM     30   O  ASG B   2     -13.368  55.345  49.8350  0.00  0.00     0.000 OA
ATOM     31   O  ASG B   2     -11.503  54.595  51.1960  0.00  0.00     0.000 OA
ATOM     32   O  ASG B   2     -11.105  55.987  49.2600  0.00  0.00     0.000 OA
ATOM     33   S  ASG B   2     -11.965  54.980  49.8830  0.00  0.00     0.000 S
ENDBRANCH 18 29
BRANCH 15 34
ATOM     34  O4  ASG B   3     -11.195  50.365  45.8080  0.00  0.00     0.000 O
BRANCH 34 38
ATOM     35  C1  GCT B   3     -12.336  46.486  45.9420  0.00  0.00     0.000 C
ATOM     36  C2  GCT B   3     -10.856  46.684  45.6980  0.00  0.00     0.000 C
ATOM     37  C3  GCT B   3     -10.426  48.092  46.0870  0.00  0.00     0.000 C
ATOM     38  C4  GCT B   3     -11.219  49.109  45.2560  0.00  0.00     0.000 C
ATOM     39  C5  GCT B   3     -12.655  48.620  44.9580  0.00  0.00     0.000 C
ATOM     40  O5  GCT B   3     -13.009  47.739  46.0090  0.00  0.00     0.000 O
ATOM     41   O  GCT B   3     -10.182  45.724  46.4990  0.00  0.00     0.000 O
ATOM     43  HD  GCT B   3     -10.060  44.872  46.4040  0.00  0.00     0.000 HD
ATOM     43   O  GCT B   3      -9.000  48.205  45.9000  0.00  0.00     0.000 O
ATOM     45  HD  GCT B   3      -8.878  47.353  45.8060  0.00  0.00     0.000 HD
BRANCH 39 45
ATOM     45   C  GCT B   3     -12.925  47.949  43.6290  0.00  0.00     0.000 C
ATOM     46   O  GCT B   3     -11.961  47.731  42.8290  0.00  0.00     0.000 OA
ATOM     47   O  GCT B   3     -14.095  47.620  43.3760  0.00  0.00     0.000 OA
ENDBRANCH 39 45
BRANCH 35 48
ATOM     48  O3  ASG B   4     -12.728  45.373  45.3600  0.00  0.00     0.000 O
BRANCH 48 51
ATOM     49  C1  ASG B   4     -13.885  42.044  46.4860  0.00  0.00     0.000 C
ATOM     50  C2  ASG B   4     -13.189  43.121  45.6380  0.00  0.00     0.000 C
ATOM     51  C3  ASG B   4     -13.185  44.470  46.3520  0.00  0.00     0.000 C
ATOM     52  C4  ASG B   4     -14.574  44.835  46.8480  0.00  0.00     0.000 C
ATOM     53  C5  ASG B   4     -15.091  43.681  47.7030  0.00  0.00     0.000 C
ATOM     54  O5  ASG B   4     -15.168  42.491  46.8940  0.00  0.00     0.000 O
BRANCH 50 57
ATOM     55   N  ASG B   4     -14.014  42.283  44.7980  0.00  0.00     0.000 N
ATOM     57  HD  ASG B   4     -13.559  42.369  44.0670  0.00  0.00     0.000 HD
ATOM     57   O  ASG B   4     -12.359  41.724  43.3970  0.00  0.00     0.000 OA
ATOM     58   C  ASG B   4     -13.509  41.560  43.7950  0.00  0.00     0.000 C
ATOM     59   C  ASG B   4     -14.451  40.583  43.1610  0.00  0.00     0.000 C
ENDBRANCH 50 57
BRANCH 52 60
ATOM     60   O  ASG B   4     -15.340  45.067  45.5960  0.00  0.00     0.000 O
ATOM     61   O  ASG B   4     -16.436  47.122  46.4950  0.00  0.00     0.000 OA
ATOM     62   O  ASG B   4     -16.785  46.488  44.2270  0.00  0.00     0.000 OA
ATOM     63   O  ASG B   4     -17.599  45.070  45.9710  0.00  0.00     0.000 OA
ATOM     64   S  ASG B   4     -16.598  46.059  45.5600  0.00  0.00     0.000 S
ENDBRANCH 52 60
ATOM     65   O  ASG B   4     -16.713  42.970  49.3590  0.00  0.00     0.000 O
ATOM     67  HD  ASG B   4     -16.877  42.256  48.8970  0.00  0.00     0.000 HD
ATOM     67   O  ASG B   4     -16.713  42.970  49.3590  0.00  0.00     0.000 O
ATOM     69  HD  ASG B   4     -16.877  42.256  48.8970  0.00  0.00     0.000 HD
ENDBRANCH 48 51
ENDBRANCH 35 48
ENDBRANCH 34 38
ENDBRANCH 15 34
ENDBRANCH 14 17
ENDBRANCH 1 14
TORSDOF 12
ENDMDL
MODEL 50
REMARK VINA RESULT:      -7.8     26.095     30.073
ROOT
ATOM      1  C1  GAD B   1      -3.122  17.562  53.6420  0.00  0.00     0.000 C
ATOM      2  C2  GAD B   1      -3.763  18.716  52.8650  0.00  0.00     0.000 C
ATOM      3  C3  GAD B   1      -2.944  19.023  51.6060  0.00  0.00     0.000 C
ATOM      4  C4  GAD B   1      -1.441  18.771  51.7490  0.00  0.00     0.000 C
ATOM      5  C5  GAD B   1      -0.868  18.181  52.8180  0.00  0.00     0.000 C
ATOM      6  O5  GAD B   1      -1.734  17.812  53.9080  0.00  0.00     0.000 O
ATOM      7   O  GAD B   1      -5.183  18.444  52.5720  0.00  0.00     0.000 O
ATOM      9  HD  GAD B   1      -5.047  17.840  53.1780  0.00  0.00     0.000 HD
ATOM      9   O  GAD B   1      -3.082  20.405  51.2060  0.00  0.00     0.000 O
ATOM     11  HD  GAD B   1      -2.946  19.801  51.8120  0.00  0.00     0.000 HD
ENDROOT
BRANCH 5 11
ATOM     11   C  GAD B   1       0.569  17.836  52.9220  0.00  0.00     0.000 C
ATOM     12   O  GAD B   1       1.401  18.776  52.7270  0.00  0.00     0.000 OA
ATOM     13   O  GAD B   1       0.928  16.617  53.1190  0.00  0.00     0.000 OA
ENDBRANCH 5 11
BRANCH 1 14
ATOM     14  O3  ASG B   2      -3.334  17.327  54.9500  0.00  0.00     0.000 O
BRANCH 14 17
ATOM     15  C1  ASG B   2      -1.331  16.314  57.9900  0.00  0.00     0.000 C
ATOM     16  C2  ASG B   2      -2.300  16.126  56.8150  0.00  0.00     0.000 C
ATOM     17  C3  ASG B   2      -2.439  17.452  56.0620  0.00  0.00     0.000 C
ATOM     18  C4  ASG B   2      -2.942  18.531  57.0020  0.00  0.00     0.000 C
ATOM     19  C5  ASG B   2      -2.022  18.602  58.2170  0.00  0.00     0.000 C
ATOM     20  O5  ASG B   2      -1.909  17.300  58.8260  0.00  0.00     0.000 O
ATOM     21   C  ASG B   2      -2.533  19.524  59.2770  0.00  0.00     0.000 C
ATOM     22   O  ASG B   2      -1.755  19.375  60.4390  0.00  0.00     0.000 O
ATOM     24  HD  ASG B   2      -1.365  19.390  61.2130  0.00  0.00     0.000 HD
BRANCH 16 26
ATOM     24   N  ASG B   2      -1.957  15.038  55.9280  0.00  0.00     0.000 N
ATOM     26  HD  ASG B   2      -1.717  15.050  56.7600  0.00  0.00     0.000 HD
ATOM     26   C  ASG B   2      -2.862  14.269  55.2950  0.00  0.00     0.000 C
ATOM     27   C  ASG B   2      -2.343  13.436  54.1740  0.00  0.00     0.000 C
ATOM     28   O  ASG B   2      -4.041  14.258  55.6250  0.00  0.00     0.000 OA
ENDBRANCH 16 26
BRANCH 18 29
ATOM     29   O  ASG B   2      -4.322  18.170  57.3520  0.00  0.00     0.000 O
ATOM     30   O  ASG B   2      -5.112  20.494  57.4880  0.00  0.00     0.000 OA
ATOM     31   O  ASG B   2      -5.741  19.109  55.5960  0.00  0.00     0.000 OA
ATOM     32   O  ASG B   2      -6.650  18.648  57.7880  0.00  0.00     0.000 OA
ATOM     33   S  ASG B   2      -5.525  19.183  57.0220  0.00  0.00     0.000 S
ENDBRANCH 18 29
BRANCH 15 34
ATOM     34  O4  ASG B   3      -1.129  15.153  58.7440  0.00  0.00     0.000 O
BRANCH 34 38
ATOM     35  C1  GCT B   3       0.264  13.351  62.0870  0.00  0.00     0.000 C
ATOM     36  C2  GCT B   3      -1.152  13.871  62.2120  0.00  0.00     0.000 C
ATOM     37  C3  GCT B   3      -1.758  14.128  60.8390  0.00  0.00     0.000 C
ATOM     38  C4  GCT B   3      -0.902  15.161  60.0970  0.00  0.00     0.000 C
ATOM     39  C5  GCT B   3       0.598  15.030  60.4450  0.00  0.00     0.000 C
ATOM     40  O5  GCT B   3       0.811  13.678  60.8140  0.00  0.00     0.000 O
ATOM     41   O  GCT B   3      -1.890  12.868  62.8960  0.00  0.00     0.000 O
ATOM     43  HD  GCT B   3      -1.925  12.640  63.7310  0.00  0.00     0.000 HD
ATOM     43   O  GCT B   3      -3.126  14.553  61.0130  0.00  0.00     0.000 O
ATOM     45  HD  GCT B   3      -3.160  14.326  61.8480  0.00  0.00     0.000 HD
BRANCH 39 45
ATOM     45   C  GCT B   3       1.172  15.936  61.5120  0.00  0.00     0.000 C
ATOM     46   O  GCT B   3       2.418  15.905  61.7590  0.00  0.00     0.000 OA
ATOM     47   O  GCT B   3       0.390  16.698  62.1050  0.00  0.00     0.000 OA
ENDBRANCH 39 45
BRANCH 35 48
ATOM     48  O3  ASG B   4       0.846  13.389  63.2660  0.00  0.00     0.000 O
BRANCH 48 51
ATOM     49  C1  ASG B   4       2.404  10.487  64.9510  0.00  0.00     0.000 C
ATOM     50  C2  ASG B   4       1.351  11.537  64.5610  0.00  0.00     0.000 C
ATOM     51  C3  ASG B   4       1.798  12.342  63.3440  0.00  0.00     0.000 C
ATOM     52  C4  ASG B   4       3.209  12.878  63.5270  0.00  0.00     0.000 C
ATOM     53  C5  ASG B   4       4.123  11.702  63.8640  0.00  0.00     0.000 C
ATOM     54  O5  ASG B   4       3.677  11.095  65.0920  0.00  0.00     0.000 O
BRANCH 50 57
ATOM     55   N  ASG B   4       0.234  10.635  64.3950  0.00  0.00     0.000 N
ATOM     57  HD  ASG B   4       0.086  10.479  65.2340  0.00  0.00     0.000 HD
ATOM     57   O  ASG B   4      -0.687  11.100  66.3830  0.00  0.00     0.000 OA
ATOM     58   C  ASG B   4      -0.763  10.563  65.2820  0.00  0.00     0.000 C
ATOM     59   C  ASG B   4      -1.945   9.745  64.8630  0.00  0.00     0.000 C
ENDBRANCH 50 57
BRANCH 52 60
ATOM     60   O  ASG B   4       3.062  13.878  64.6160  0.00  0.00     0.000 O
ATOM     61   O  ASG B   4       5.110  15.125  63.9210  0.00  0.00     0.000 OA
ATOM     62   O  ASG B   4       3.741  15.977  65.6730  0.00  0.00     0.000 OA
ATOM     63   O  ASG B   4       4.891  13.905  65.9950  0.00  0.00     0.000 OA
ATOM     64   S  ASG B   4       4.278  14.833  65.0400  0.00  0.00     0.000 S
ENDBRANCH 52 60
ATOM     65   O  ASG B   4       6.407  10.898  63.9940  0.00  0.00     0.000 O
ATOM     67  HD  ASG B   4       6.247  10.562  64.7770  0.00  0.00     0.000 HD
ATOM     67   O  ASG B   4       6.407  10.898  63.9940  0.00  0.00     0.000 O
ATOM     69  HD  ASG B   4       6.247  10.562  64.7770  0.00  0.00     0.000 HD
ENDBRANCH 48 51
ENDBRANCH 35 48
ENDBRANCH 34 38
ENDBRANCH 15 34
ENDBRANCH 14 17
ENDBRANCH 1 14
TORSDOF 12
ENDMDL
MODEL 51
REMARK VINA RESULT:      -7.8     22.800     27.671
ROOT
ATOM      1  C1  GAD B   1     -24.198  29.621  96.0860  0.00  0.00     0.000 C
ATOM      2  C2  GAD B   1     -24.804  29.523  97.4900  0.00  0.00     0.000 C
ATOM      3  C3  GAD B   1     -24.337  28.233  98.1760  0.00  0.00     0.000 C
ATOM      4  C4  GAD B   1     -24.098  27.058  97.2240  0.00  0.00     0.000 C
ATOM      5  C5  GAD B   1     -24.129  27.152  95.8790  0.00  0.00     0.000 C
ATOM      6  O5  GAD B   1     -24.456  28.437  95.3170  0.00  0.00     0.000 O
ATOM      7   O  GAD B   1     -24.515  30.731  98.2860  0.00  0.00     0.000 O
ATOM      9  HD  GAD B   1     -24.318  31.032  97.4980  0.00  0.00     0.000 HD
ATOM      9   O  GAD B   1     -25.301  27.770  99.1480  0.00  0.00     0.000 O
ATOM     11  HD  GAD B   1     -25.104  28.071  98.3610  0.00  0.00     0.000 HD
ENDROOT
BRANCH 5 11
ATOM     11   C  GAD B   1     -23.794  26.049  94.9490  0.00  0.00     0.000 C
ATOM     12   O  GAD B   1     -24.408  24.949  95.1170  0.00  0.00     0.000 OA
ATOM     13   O  GAD B   1     -22.863  26.200  94.0750  0.00  0.00     0.000 OA
ENDBRANCH 5 11
BRANCH 1 14
ATOM     14  O3  ASG B   2     -24.710  30.378  95.0980  0.00  0.00     0.000 O
BRANCH 14 17
ATOM     15  C1  ASG B   2     -25.868  33.883  94.2910  0.00  0.00     0.000 C
ATOM     16  C2  ASG B   2     -26.000  32.367  94.4920  0.00  0.00     0.000 C
ATOM     17  C3  ASG B   2     -24.638  31.794  94.8950  0.00  0.00     0.000 C
ATOM     18  C4  ASG B   2     -23.608  32.105  93.8260  0.00  0.00     0.000 C
ATOM     19  C5  ASG B   2     -23.596  33.608  93.5680  0.00  0.00     0.000 C
ATOM     20  O5  ASG B   2     -24.926  34.065  93.2510  0.00  0.00     0.000 O
ATOM     21   C  ASG B   2     -22.728  33.990  92.4110  0.00  0.00     0.000 C
ATOM     22   O  ASG B   2     -22.934  35.347  92.1030  0.00  0.00     0.000 O
ATOM     24  HD  ASG B   2     -22.956  36.160  91.8050  0.00  0.00     0.000 HD
BRANCH 16 26
ATOM     24   N  ASG B   2     -26.964  31.913  95.4680  0.00  0.00     0.000 N
ATOM     26  HD  ASG B   2     -26.991  32.708  95.1270  0.00  0.00     0.000 HD
ATOM     26   C  ASG B   2     -27.781  30.859  95.2850  0.00  0.00     0.000 C
ATOM     27   C  ASG B   2     -28.452  30.330  96.5050  0.00  0.00     0.000 C
ATOM     28   O  ASG B   2     -27.959  30.367  94.1770  0.00  0.00     0.000 OA
ENDBRANCH 16 26
BRANCH 18 29
ATOM     29   O  ASG B   2     -23.990  31.326  92.6410  0.00  0.00     0.000 O
ATOM     30   O  ASG B   2     -21.690  31.091  91.8050  0.00  0.00     0.000 OA
ATOM     31   O  ASG B   2     -22.811  29.191  92.8180  0.00  0.00     0.000 OA
ATOM     32   O  ASG B   2     -23.534  30.014  90.6630  0.00  0.00     0.000 OA
ATOM     33   S  ASG B   2     -22.923  30.340  91.9520  0.00  0.00     0.000 S
ENDBRANCH 18 29
BRANCH 15 34
ATOM     34  O4  ASG B   3     -27.065  34.508  93.9240  0.00  0.00     0.000 O
BRANCH 34 38
ATOM     35  C1  GCT B   3     -26.914  37.358  96.7910  0.00  0.00     0.000 C
ATOM     36  C2  GCT B   3     -28.317  36.918  96.4330  0.00  0.00     0.000 C
ATOM     37  C3  GCT B   3     -28.296  35.583  95.7030  0.00  0.00     0.000 C
ATOM     38  C4  GCT B   3     -27.466  35.722  94.4210  0.00  0.00     0.000 C
ATOM     39  C5  GCT B   3     -26.288  36.707  94.5970  0.00  0.00     0.000 C
ATOM     40  O5  GCT B   3     -25.954  36.696  95.9740  0.00  0.00     0.000 O
ATOM     41   O  GCT B   3     -29.026  36.799  97.6580  0.00  0.00     0.000 O
ATOM     43  HD  GCT B   3     -29.372  37.389  98.1890  0.00  0.00     0.000 HD
ATOM     43   O  GCT B   3     -29.657  35.177  95.4480  0.00  0.00     0.000 O
ATOM     45  HD  GCT B   3     -30.003  35.768  95.9790  0.00  0.00     0.000 HD
BRANCH 39 45
ATOM     45   C  GCT B   3     -26.472  38.137  94.1380  0.00  0.00     0.000 C
ATOM     46   O  GCT B   3     -27.589  38.502  93.6540  0.00  0.00     0.000 OA
ATOM     47   O  GCT B   3     -25.511  38.914  94.2690  0.00  0.00     0.000 OA
ENDBRANCH 39 45
BRANCH 35 48
ATOM     48  O3  ASG B   4     -26.937  38.616  97.1760  0.00  0.00     0.000 O
BRANCH 48 51
ATOM     49  C1  ASG B   4     -25.202  38.331 100.4310  0.00  0.00     0.000 C
ATOM     50  C2  ASG B   4     -26.166  38.017  99.2750  0.00  0.00     0.000 C
ATOM     51  C3  ASG B   4     -25.841  38.854  98.0410  0.00  0.00     0.000 C
ATOM     52  C4  ASG B   4     -25.712  40.327  98.3930  0.00  0.00     0.000 C
ATOM     53  C5  ASG B   4     -24.690  40.458  99.5190  0.00  0.00     0.000 C
ATOM     54  O5  ASG B   4     -25.160  39.729 100.6700  0.00  0.00     0.000 O
BRANCH 50 57
ATOM     55   N  ASG B   4     -25.731  36.721  99.7430  0.00  0.00     0.000 N
ATOM     57  HD  ASG B   4     -26.369  36.584 100.3120  0.00  0.00     0.000 HD
ATOM     57   O  ASG B   4     -27.780  36.025 100.3180  0.00  0.00     0.000 OA
ATOM     58   C  ASG B   4     -26.592  35.777 100.1350  0.00  0.00     0.000 C
ATOM     59   C  ASG B   4     -26.000  34.424 100.3840  0.00  0.00     0.000 C
ENDBRANCH 50 57
BRANCH 52 60
ATOM     60   O  ASG B   4     -27.096  40.717  98.7670  0.00  0.00     0.000 O
ATOM     61   O  ASG B   4     -27.410  42.074  96.6950  0.00  0.00     0.000 OA
ATOM     62   O  ASG B   4     -29.234  41.758  98.1920  0.00  0.00     0.000 OA
ATOM     63   O  ASG B   4     -27.322  42.990  98.9290  0.00  0.00     0.000 OA
ATOM     64   S  ASG B   4     -27.840  41.941  98.0460  0.00  0.00     0.000 S
ENDBRANCH 52 60
ATOM     65   O  ASG B   4     -23.220  41.948 100.7440  0.00  0.00     0.000 O
ATOM     67  HD  ASG B   4     -23.501  41.616 101.4920  0.00  0.00     0.000 HD
ATOM     67   O  ASG B   4     -23.220  41.948 100.7440  0.00  0.00     0.000 O
ATOM     69  HD  ASG B   4     -23.501  41.616 101.4920  0.00  0.00     0.000 HD
ENDBRANCH 48 51
ENDBRANCH 35 48
ENDBRANCH 34 38
ENDBRANCH 15 34
ENDBRANCH 14 17
ENDBRANCH 1 14
TORSDOF 12
ENDMDL
MODEL 52
REMARK VINA RESULT:      -7.8     30.552     34.541
ROOT
ATOM      1  C1  GAD B   1      -3.145  17.080  55.9190  0.00  0.00     0.000 C
ATOM      2  C2  GAD B   1      -1.947  17.006  56.8700  0.00  0.00     0.000 C
ATOM      3  C3  GAD B   1      -2.376  17.399  58.2890  0.00  0.00     0.000 C
ATOM      4  C4  GAD B   1      -3.499  18.439  58.3480  0.00  0.00     0.000 C
ATOM      5  C5  GAD B   1      -4.185  18.876  57.2730  0.00  0.00     0.000 C
ATOM      6  O5  GAD B   1      -3.795  18.358  55.9870  0.00  0.00     0.000 O
ATOM      7   O  GAD B   1      -1.297  15.683  56.8160  0.00  0.00     0.000 O
ATOM      9  HD  GAD B   1      -1.775  15.634  56.0950  0.00  0.00     0.000 HD
ATOM      9   O  GAD B   1      -1.275  17.956  59.0420  0.00  0.00     0.000 O
ATOM     11  HD  GAD B   1      -1.753  17.908  58.3210  0.00  0.00     0.000 HD
ENDROOT
BRANCH 5 11
ATOM     11   C  GAD B   1      -5.342  19.800  57.3300  0.00  0.00     0.000 C
ATOM     12   O  GAD B   1      -5.188  20.875  57.9890  0.00  0.00     0.000 OA
ATOM     13   O  GAD B   1      -6.464  19.464  56.7990  0.00  0.00     0.000 OA
ENDBRANCH 5 11
BRANCH 1 14
ATOM     14  O3  ASG B   2      -3.037  17.203  54.5830  0.00  0.00     0.000 O
BRANCH 14 17
ATOM     15  C1  ASG B   2      -3.642  19.670  51.7860  0.00  0.00     0.000 C
ATOM     16  C2  ASG B   2      -3.860  18.393  52.6100  0.00  0.00     0.000 C
ATOM     17  C3  ASG B   2      -2.871  18.377  53.7790  0.00  0.00     0.000 C
ATOM     18  C4  ASG B   2      -1.449  18.440  53.2570  0.00  0.00     0.000 C
ATOM     19  C5  ASG B   2      -1.307  19.653  52.3430  0.00  0.00     0.000 C
ATOM     20  O5  ASG B   2      -2.311  19.612  51.3090  0.00  0.00     0.000 O
ATOM     21   C  ASG B   2       0.016  19.705  51.6490  0.00  0.00     0.000 C
ATOM     22   O  ASG B   2      -0.008  20.718  50.6740  0.00  0.00     0.000 O
ATOM     24  HD  ASG B   2       0.121  21.301  50.0470  0.00  0.00     0.000 HD
BRANCH 16 26
ATOM     24   N  ASG B   2      -4.592  17.148  52.6130  0.00  0.00     0.000 N
ATOM     26  HD  ASG B   2      -3.812  17.227  52.9800  0.00  0.00     0.000 HD
ATOM     26   C  ASG B   2      -5.805  16.989  53.1720  0.00  0.00     0.000 C
ATOM     27   C  ASG B   2      -6.548  15.756  52.7870  0.00  0.00     0.000 C
ATOM     28   O  ASG B   2      -6.268  17.813  53.9510  0.00  0.00     0.000 OA
ENDBRANCH 16 26
BRANCH 18 29
ATOM     29   O  ASG B   2      -1.204  17.170  52.5600  0.00  0.00     0.000 O
ATOM     30   O  ASG B   2       1.187  17.089  53.1250  0.00  0.00     0.000 OA
ATOM     31   O  ASG B   2      -0.375  15.612  54.2520  0.00  0.00     0.000 OA
ATOM     32   O  ASG B   2       0.142  15.270  51.9150  0.00  0.00     0.000 OA
ATOM     33   S  ASG B   2       0.022  16.233  53.0100  0.00  0.00     0.000 S
ENDBRANCH 18 29
BRANCH 15 34
ATOM     34  O4  ASG B   3      -4.504  19.786  50.6900  0.00  0.00     0.000 O
BRANCH 34 38
ATOM     35  C1  GCT B   3      -6.054  18.032  47.3900  0.00  0.00     0.000 C
ATOM     36  C2  GCT B   3      -6.961  17.976  48.6010  0.00  0.00     0.000 C
ATOM     37  C3  GCT B   3      -6.535  19.000  49.6440  0.00  0.00     0.000 C
ATOM     38  C4  GCT B   3      -5.093  18.709  50.0760  0.00  0.00     0.000 C
ATOM     39  C5  GCT B   3      -4.240  18.152  48.9140  0.00  0.00     0.000 C
ATOM     40  O5  GCT B   3      -4.814  18.649  47.7170  0.00  0.00     0.000 O
ATOM     41   O  GCT B   3      -8.272  18.263  48.1360  0.00  0.00     0.000 O
ATOM     43  HD  GCT B   3      -8.854  17.785  47.7080  0.00  0.00     0.000 HD
ATOM     43   O  GCT B   3      -7.470  18.953  50.7420  0.00  0.00     0.000 O
ATOM     45  HD  GCT B   3      -8.052  18.475  50.3140  0.00  0.00     0.000 HD
BRANCH 39 45
ATOM     45   C  GCT B   3      -4.069  16.653  48.8010  0.00  0.00     0.000 C
ATOM     46   O  GCT B   3      -3.426  16.167  47.8180  0.00  0.00     0.000 OA
ATOM     47   O  GCT B   3      -4.559  15.946  49.6970  0.00  0.00     0.000 OA
ENDBRANCH 39 45
BRANCH 35 48
ATOM     48  O3  ASG B   4      -6.274  16.979  46.6330  0.00  0.00     0.000 O
BRANCH 48 51
ATOM     49  C1  ASG B   4      -7.698  16.350  43.2770  0.00  0.00     0.000 C
ATOM     50  C2  ASG B   4      -7.324  16.130  44.7520  0.00  0.00     0.000 C
ATOM     51  C3  ASG B   4      -6.773  17.408  45.3790  0.00  0.00     0.000 C
ATOM     52  C4  ASG B   4      -5.678  18.016  44.5170  0.00  0.00     0.000 C
ATOM     53  C5  ASG B   4      -6.234  18.205  43.1080  0.00  0.00     0.000 C
ATOM     54  O5  ASG B   4      -6.608  16.921  42.5720  0.00  0.00     0.000 O
BRANCH 50 57
ATOM     55   N  ASG B   4      -8.236  15.653  45.7660  0.00  0.00     0.000 N
ATOM     57  HD  ASG B   4      -8.495  14.934  45.3590  0.00  0.00     0.000 HD
ATOM     57   O  ASG B   4      -8.040  13.495  45.2020  0.00  0.00     0.000 OA
ATOM     58   C  ASG B   4      -8.446  14.351  45.9820  0.00  0.00     0.000 C
ATOM     59   C  ASG B   4      -9.248  14.018  47.2020  0.00  0.00     0.000 C
ENDBRANCH 50 57
BRANCH 52 60
ATOM     60   O  ASG B   4      -4.570  17.032  44.6170  0.00  0.00     0.000 O
ATOM     61   O  ASG B   4      -2.814  18.799  44.4610  0.00  0.00     0.000 OA
ATOM     62   O  ASG B   4      -2.188  16.540  44.8730  0.00  0.00     0.000 OA
ATOM     63   O  ASG B   4      -3.202  17.106  42.7820  0.00  0.00     0.000 OA
ATOM     64   S  ASG B   4      -3.070  17.421  44.2080  0.00  0.00     0.000 S
ENDBRANCH 52 60
ATOM     65   O  ASG B   4      -5.961  19.307  40.9650  0.00  0.00     0.000 O
ATOM     67  HD  ASG B   4      -6.104  18.557  40.5570  0.00  0.00     0.000 HD
ATOM     67   O  ASG B   4      -5.961  19.307  40.9650  0.00  0.00     0.000 O
ATOM     69  HD  ASG B   4      -6.104  18.557  40.5570  0.00  0.00     0.000 HD
ENDBRANCH 48 51
ENDBRANCH 35 48
ENDBRANCH 34 38
ENDBRANCH 15 34
ENDBRANCH 14 17
ENDBRANCH 1 14
TORSDOF 12
ENDMDL
MODEL 53
REMARK VINA RESULT:      -7.7      8.229     12.617
ROOT
ATOM      1  C1  GAD B   1     -10.788  30.271  82.7870  0.00  0.00     0.000 C
ATOM      2  C2  GAD B   1     -10.450  31.513  83.6170  0.00  0.00     0.000 C
ATOM      3  C3  GAD B   1     -11.683  31.973  84.4030  0.00  0.00     0.000 C
ATOM      4  C4  GAD B   1     -13.019  31.704  83.7040  0.00  0.00     0.000 C
ATOM      5  C5  GAD B   1     -13.151  30.987  82.5700  0.00  0.00     0.000 C
ATOM      6  O5  GAD B   1     -11.944  30.486  81.9640  0.00  0.00     0.000 O
ATOM      7   O  GAD B   1      -9.276  31.280  84.4810  0.00  0.00     0.000 O
ATOM      9  HD  GAD B   1      -9.191  30.606  83.9440  0.00  0.00     0.000 HD
ATOM      9   O  GAD B   1     -11.647  33.394  84.6650  0.00  0.00     0.000 O
ATOM     11  HD  GAD B   1     -11.562  32.720  84.1280  0.00  0.00     0.000 HD
ENDROOT
BRANCH 5 11
ATOM     11   C  GAD B   1     -14.445  30.631  81.9430  0.00  0.00     0.000 C
ATOM     12   O  GAD B   1     -15.063  31.558  81.3330  0.00  0.00     0.000 OA
ATOM     13   O  GAD B   1     -14.935  29.452  82.0970  0.00  0.00     0.000 OA
ENDBRANCH 5 11
BRANCH 1 14
ATOM     14  O3  ASG B   2     -10.088  29.876  81.7070  0.00  0.00     0.000 O
BRANCH 14 17
ATOM     15  C1  ASG B   2      -8.201  26.888  80.3690  0.00  0.00     0.000 C
ATOM     16  C2  ASG B   2      -8.381  28.310  80.9200  0.00  0.00     0.000 C
ATOM     17  C3  ASG B   2      -9.868  28.560  81.1860  0.00  0.00     0.000 C
ATOM     18  C4  ASG B   2     -10.662  28.379  79.9070  0.00  0.00     0.000 C
ATOM     19  C5  ASG B   2     -10.360  27.002  79.3240  0.00  0.00     0.000 C
ATOM     20  O5  ASG B   2      -8.937  26.836  79.1610  0.00  0.00     0.000 O
ATOM     21   C  ASG B   2     -10.969  26.797  77.9740  0.00  0.00     0.000 C
ATOM     22   O  ASG B   2     -10.476  25.605  77.4150  0.00  0.00     0.000 O
ATOM     24  HD  ASG B   2     -10.262  24.903  76.9550  0.00  0.00     0.000 HD
BRANCH 16 26
ATOM     24   N  ASG B   2      -7.555  29.474  81.1410  0.00  0.00     0.000 N
ATOM     26  HD  ASG B   2      -8.366  29.533  80.8440  0.00  0.00     0.000 HD
ATOM     26   C  ASG B   2      -7.039  29.816  82.3360  0.00  0.00     0.000 C
ATOM     27   C  ASG B   2      -5.949  30.832  82.3130  0.00  0.00     0.000 C
ATOM     28   O  ASG B   2      -7.445  29.318  83.3790  0.00  0.00     0.000 OA
ENDBRANCH 16 26
BRANCH 18 29
ATOM     29   O  ASG B   2     -10.267  29.475  79.0120  0.00  0.00     0.000 O
ATOM     30   O  ASG B   2     -12.378  29.478  77.7530  0.00  0.00     0.000 OA
ATOM     31   O  ASG B   2     -11.913  31.253  79.3420  0.00  0.00     0.000 OA
ATOM     32   O  ASG B   2     -10.657  31.116  77.2810  0.00  0.00     0.000 OA
ATOM     33   S  ASG B   2     -11.393  30.384  78.3130  0.00  0.00     0.000 S
ENDBRANCH 18 29
BRANCH 15 34
ATOM     34  O4  ASG B   3      -6.870  26.556  80.0950  0.00  0.00     0.000 O
BRANCH 34 38
ATOM     35  C1  GCT B   3      -7.474  26.077  76.1240  0.00  0.00     0.000 C
ATOM     36  C2  GCT B   3      -7.038  24.815  76.8370  0.00  0.00     0.000 C
ATOM     37  C3  GCT B   3      -7.251  24.941  78.3390  0.00  0.00     0.000 C
ATOM     38  C4  GCT B   3      -6.436  26.129  78.8660  0.00  0.00     0.000 C
ATOM     39  C5  GCT B   3      -6.355  27.278  77.8360  0.00  0.00     0.000 C
ATOM     40  O5  GCT B   3      -7.513  27.178  77.0250  0.00  0.00     0.000 O
ATOM     41   O  GCT B   3      -7.833  23.761  76.3140  0.00  0.00     0.000 O
ATOM     43  HD  GCT B   3      -7.798  23.323  75.5680  0.00  0.00     0.000 HD
ATOM     43   O  GCT B   3      -6.886  23.691  78.9610  0.00  0.00     0.000 O
ATOM     45  HD  GCT B   3      -6.851  23.253  78.2150  0.00  0.00     0.000 HD
BRANCH 39 45
ATOM     45   C  GCT B   3      -5.131  27.366  76.9500  0.00  0.00     0.000 C
ATOM     46   O  GCT B   3      -5.042  28.301  76.0940  0.00  0.00     0.000 OA
ATOM     47   O  GCT B   3      -4.241  26.514  77.1080  0.00  0.00     0.000 OA
ENDBRANCH 39 45
BRANCH 35 48
ATOM     48  O3  ASG B   4      -7.041  26.046  74.8820  0.00  0.00     0.000 O
BRANCH 48 51
ATOM     49  C1  ASG B   4      -8.201  24.528  71.7130  0.00  0.00     0.000 C
ATOM     50  C2  ASG B   4      -7.252  24.997  72.8290  0.00  0.00     0.000 C
ATOM     51  C3  ASG B   4      -8.029  25.443  74.0640  0.00  0.00     0.000 C
ATOM     52  C4  ASG B   4      -9.131  26.424  73.6970  0.00  0.00     0.000 C
ATOM     53  C5  ASG B   4      -9.997  25.782  72.6170  0.00  0.00     0.000 C
ATOM     54  O5  ASG B   4      -9.185  25.516  71.4570  0.00  0.00     0.000 O
BRANCH 50 57
ATOM     55   N  ASG B   4      -6.242  24.093  73.3300  0.00  0.00     0.000 N
ATOM     57  HD  ASG B   4      -5.836  23.947  72.5790  0.00  0.00     0.000 HD
ATOM     57   O  ASG B   4      -4.741  24.581  71.7410  0.00  0.00     0.000 OA
ATOM     58   C  ASG B   4      -5.015  24.031  72.8030  0.00  0.00     0.000 C
ATOM     59   C  ASG B   4      -4.024  23.206  73.5660  0.00  0.00     0.000 C
ENDBRANCH 50 57
BRANCH 52 60
ATOM     60   O  ASG B   4      -8.387  27.632  73.2560  0.00  0.00     0.000 O
ATOM     61   O  ASG B   4     -10.222  29.174  73.9520  0.00  0.00     0.000 OA
ATOM     62   O  ASG B   4      -8.163  30.066  73.1550  0.00  0.00     0.000 OA
ATOM     63   O  ASG B   4      -9.543  28.804  71.6640  0.00  0.00     0.000 OA
ATOM     64   S  ASG B   4      -9.128  29.038  73.0500  0.00  0.00     0.000 S
ENDBRANCH 52 60
ATOM     65   O  ASG B   4     -12.117  25.831  71.4400  0.00  0.00     0.000 O
ATOM     67  HD  ASG B   4     -11.703  25.746  70.6850  0.00  0.00     0.000 HD
ATOM     67   O  ASG B   4     -12.117  25.831  71.4400  0.00  0.00     0.000 O
ATOM     69  HD  ASG B   4     -11.703  25.746  70.6850  0.00  0.00     0.000 HD
ENDBRANCH 48 51
ENDBRANCH 35 48
ENDBRANCH 34 38
ENDBRANCH 15 34
ENDBRANCH 14 17
ENDBRANCH 1 14
TORSDOF 12
ENDMDL
MODEL 54
REMARK VINA RESULT:      -7.7     23.206     27.175
ROOT
ATOM      1  C1  GAD B   1     -25.014  33.894  94.2330  0.00  0.00     0.000 C
ATOM      2  C2  GAD B   1     -23.722  33.651  93.4460  0.00  0.00     0.000 C
ATOM      3  C3  GAD B   1     -22.881  34.932  93.4060  0.00  0.00     0.000 C
ATOM      4  C4  GAD B   1     -23.697  36.228  93.4020  0.00  0.00     0.000 C
ATOM      5  C5  GAD B   1     -25.033  36.284  93.5790  0.00  0.00     0.000 C
ATOM      6  O5  GAD B   1     -25.730  35.033  93.7330  0.00  0.00     0.000 O
ATOM      7   O  GAD B   1     -22.977  32.494  93.9790  0.00  0.00     0.000 O
ATOM      9  HD  GAD B   1     -23.742  32.355  94.3600  0.00  0.00     0.000 HD
ATOM      9   O  GAD B   1     -22.046  34.982  92.2270  0.00  0.00     0.000 O
ATOM     11  HD  GAD B   1     -22.811  34.844  92.6090  0.00  0.00     0.000 HD
ENDROOT
BRANCH 5 11
ATOM     11   C  GAD B   1     -25.817  37.537  93.6830  0.00  0.00     0.000 C
ATOM     12   O  GAD B   1     -27.063  37.418  93.9000  0.00  0.00     0.000 OA
ATOM     13   O  GAD B   1     -25.251  38.673  93.4780  0.00  0.00     0.000 OA
ENDBRANCH 5 11
BRANCH 1 14
ATOM     14  O3  ASG B   2     -26.122  33.140  94.1100  0.00  0.00     0.000 O
BRANCH 14 17
ATOM     15  C1  ASG B   2     -28.361  31.101  91.8490  0.00  0.00     0.000 C
ATOM     16  C2  ASG B   2     -28.017  32.097  92.9660  0.00  0.00     0.000 C
ATOM     17  C3  ASG B   2     -26.495  32.217  93.0800  0.00  0.00     0.000 C
ATOM     18  C4  ASG B   2     -25.888  30.857  93.3700  0.00  0.00     0.000 C
ATOM     19  C5  ASG B   2     -26.354  29.866  92.3080  0.00  0.00     0.000 C
ATOM     20  O5  ASG B   2     -27.793  29.863  92.2340  0.00  0.00     0.000 O
ATOM     21   C  ASG B   2     -25.939  28.461  92.6050  0.00  0.00     0.000 C
ATOM     22   O  ASG B   2     -26.579  27.587  91.7080  0.00  0.00     0.000 O
ATOM     24  HD  ASG B   2     -26.897  26.940  91.2280  0.00  0.00     0.000 HD
BRANCH 16 26
ATOM     24   N  ASG B   2     -28.592  32.889  94.0280  0.00  0.00     0.000 N
ATOM     26  HD  ASG B   2     -27.778  32.596  94.0590  0.00  0.00     0.000 HD
ATOM     26   C  ASG B   2     -29.061  34.140  93.8650  0.00  0.00     0.000 C
ATOM     27   C  ASG B   2     -29.918  34.668  94.9640  0.00  0.00     0.000 C
ATOM     28   O  ASG B   2     -28.797  34.802  92.8690  0.00  0.00     0.000 OA
ENDBRANCH 16 26
BRANCH 18 29
ATOM     29   O  ASG B   2     -26.323  30.487  94.7240  0.00  0.00     0.000 O
ATOM     30   O  ASG B   2     -24.322  29.148  95.2190  0.00  0.00     0.000 OA
ATOM     31   O  ASG B   2     -24.604  31.328  96.2470  0.00  0.00     0.000 OA
ATOM     32   O  ASG B   2     -26.027  29.488  96.9040  0.00  0.00     0.000 OA
ATOM     33   S  ASG B   2     -25.231  30.094  95.8370  0.00  0.00     0.000 S
ENDBRANCH 18 29
BRANCH 15 34
ATOM     34  O4  ASG B   3     -29.735  30.922  91.6590  0.00  0.00     0.000 O
BRANCH 34 38
ATOM     35  C1  GCT B   3     -31.006  33.964  89.3150  0.00  0.00     0.000 C
ATOM     36  C2  GCT B   3     -32.101  33.002  89.7230  0.00  0.00     0.000 C
ATOM     37  C3  GCT B   3     -31.669  32.167  90.9190  0.00  0.00     0.000 C
ATOM     38  C4  GCT B   3     -30.409  31.374  90.5520  0.00  0.00     0.000 C
ATOM     39  C5  GCT B   3     -29.494  32.156  89.5820  0.00  0.00     0.000 C
ATOM     40  O5  GCT B   3     -29.744  33.532  89.8110  0.00  0.00     0.000 O
ATOM     41   O  GCT B   3     -33.230  33.796  90.0580  0.00  0.00     0.000 O
ATOM     43  HD  GCT B   3     -33.811  34.214  89.5700  0.00  0.00     0.000 HD
ATOM     43   O  GCT B   3     -32.770  31.319  91.3100  0.00  0.00     0.000 O
ATOM     45  HD  GCT B   3     -33.351  31.738  90.8220  0.00  0.00     0.000 HD
BRANCH 39 45
ATOM     45   C  GCT B   3     -29.603  31.868  88.1010  0.00  0.00     0.000 C
ATOM     46   O  GCT B   3     -30.451  31.015  87.6890  0.00  0.00     0.000 OA
ATOM     47   O  GCT B   3     -28.857  32.497  87.3330  0.00  0.00     0.000 OA
ENDBRANCH 39 45
BRANCH 35 48
ATOM     48  O3  ASG B   4     -31.294  34.477  88.1380  0.00  0.00     0.000 O
BRANCH 48 51
ATOM     49  C1  ASG B   4     -31.216  38.125  88.7540  0.00  0.00     0.000 C
ATOM     50  C2  ASG B   4     -31.568  36.637  88.9240  0.00  0.00     0.000 C
ATOM     51  C3  ASG B   4     -30.696  35.758  88.0330  0.00  0.00     0.000 C
ATOM     52  C4  ASG B   4     -30.691  36.260  86.5990  0.00  0.00     0.000 C
ATOM     53  C5  ASG B   4     -30.279  37.730  86.6130  0.00  0.00     0.000 C
ATOM     54  O5  ASG B   4     -31.239  38.482  87.3810  0.00  0.00     0.000 O
BRANCH 50 57
ATOM     55   N  ASG B   4     -31.409  37.052  90.3000  0.00  0.00     0.000 N
ATOM     57  HD  ASG B   4     -32.227  37.299  90.4410  0.00  0.00     0.000 HD
ATOM     57   O  ASG B   4     -33.542  36.672  90.8640  0.00  0.00     0.000 OA
ATOM     58   C  ASG B   4     -32.392  36.938  91.1980  0.00  0.00     0.000 C
ATOM     59   C  ASG B   4     -32.005  37.207  92.6190  0.00  0.00     0.000 C
ENDBRANCH 50 57
BRANCH 52 60
ATOM     60   O  ASG B   4     -32.081  36.012  86.1390  0.00  0.00     0.000 O
ATOM     61   O  ASG B   4     -31.387  34.148  84.6320  0.00  0.00     0.000 OA
ATOM     62   O  ASG B   4     -33.699  34.643  84.9180  0.00  0.00     0.000 OA
ATOM     63   O  ASG B   4     -32.281  36.259  83.8710  0.00  0.00     0.000 OA
ATOM     64   S  ASG B   4     -32.383  35.149  84.8230  0.00  0.00     0.000 S
ENDBRANCH 52 60
ATOM     65   O  ASG B   4     -29.467  39.608  85.3120  0.00  0.00     0.000 O
ATOM     67  HD  ASG B   4     -30.065  40.120  85.6720  0.00  0.00     0.000 HD
ATOM     67   O  ASG B   4     -29.467  39.608  85.3120  0.00  0.00     0.000 O
ATOM     69  HD  ASG B   4     -30.065  40.120  85.6720  0.00  0.00     0.000 HD
ENDBRANCH 48 51
ENDBRANCH 35 48
ENDBRANCH 34 38
ENDBRANCH 15 34
ENDBRANCH 14 17
ENDBRANCH 1 14
TORSDOF 12
ENDMDL
MODEL 55
REMARK VINA RESULT:      -7.7     27.291     30.078
ROOT
ATOM      1  C1  GAD B   1     -11.184  49.915  49.5570  0.00  0.00     0.000 C
ATOM      2  C2  GAD B   1     -11.419  49.494  48.1030  0.00  0.00     0.000 C
ATOM      3  C3  GAD B   1     -10.111  48.983  47.4860  0.00  0.00     0.000 C
ATOM      4  C4  GAD B   1      -8.848  49.658  48.0260  0.00  0.00     0.000 C
ATOM      5  C5  GAD B   1      -8.830  50.515  49.0660  0.00  0.00     0.000 C
ATOM      6  O5  GAD B   1     -10.097  50.846  49.6680  0.00  0.00     0.000 O
ATOM      7   O  GAD B   1     -12.521  48.519  47.9970  0.00  0.00     0.000 O
ATOM      9  HD  GAD B   1     -12.668  48.810  48.7990  0.00  0.00     0.000 HD
ATOM      9   O  GAD B   1     -10.089  49.178  46.0540  0.00  0.00     0.000 O
ATOM     11  HD  GAD B   1     -10.236  49.469  46.8560  0.00  0.00     0.000 HD
ENDROOT
BRANCH 5 11
ATOM     11   C  GAD B   1      -7.603  51.091  49.6640  0.00  0.00     0.000 C
ATOM     12   O  GAD B   1      -6.534  50.998  48.9840  0.00  0.00     0.000 OA
ATOM     13   O  GAD B   1      -7.632  51.581  50.8520  0.00  0.00     0.000 OA
ENDBRANCH 5 11
BRANCH 1 14
ATOM     14  O3  ASG B   2     -11.982  50.764  50.2320  0.00  0.00     0.000 O
BRANCH 14 17
ATOM     15  C1  ASG B   2     -12.820  50.823  53.9160  0.00  0.00     0.000 C
ATOM     16  C2  ASG B   2     -12.910  50.350  52.4580  0.00  0.00     0.000 C
ATOM     17  C3  ASG B   2     -11.938  51.171  51.6040  0.00  0.00     0.000 C
ATOM     18  C4  ASG B   2     -12.275  52.646  51.7090  0.00  0.00     0.000 C
ATOM     19  C5  ASG B   2     -12.298  53.048  53.1810  0.00  0.00     0.000 C
ATOM     20  O5  ASG B   2     -13.194  52.188  53.9130  0.00  0.00     0.000 O
ATOM     21   C  ASG B   2     -12.784  54.447  53.3910  0.00  0.00     0.000 C
ATOM     22   O  ASG B   2     -12.980  54.670  54.7660  0.00  0.00     0.000 O
ATOM     24  HD  ASG B   2     -13.141  54.946  55.5710  0.00  0.00     0.000 HD
BRANCH 16 26
ATOM     24   N  ASG B   2     -12.740  48.924  52.3010  0.00  0.00     0.000 N
ATOM     26  HD  ASG B   2     -13.062  49.275  53.0250  0.00  0.00     0.000 HD
ATOM     26   C  ASG B   2     -13.345  48.195  51.3450  0.00  0.00     0.000 C
ATOM     27   C  ASG B   2     -12.798  46.827  51.1200  0.00  0.00     0.000 C
ATOM     28   O  ASG B   2     -14.289  48.634  50.7000  0.00  0.00     0.000 OA
ENDBRANCH 16 26
BRANCH 18 29
ATOM     29   O  ASG B   2     -13.575  52.825  51.0490  0.00  0.00     0.000 O
ATOM     30   O  ASG B   2     -13.033  55.041  50.1340  0.00  0.00     0.000 OA
ATOM     31   O  ASG B   2     -13.098  53.108  48.6670  0.00  0.00     0.000 OA
ATOM     32   O  ASG B   2     -15.145  53.976  49.6170  0.00  0.00     0.000 OA
ATOM     33   S  ASG B   2     -13.701  53.803  49.7800  0.00  0.00     0.000 S
ENDBRANCH 18 29
BRANCH 15 34
ATOM     34  O4  ASG B   3     -13.669  50.129  54.7850  0.00  0.00     0.000 O
BRANCH 34 38
ATOM     35  C1  GCT B   3     -17.475  49.112  55.7020  0.00  0.00     0.000 C
ATOM     36  C2  GCT B   3     -17.346  49.942  54.4440  0.00  0.00     0.000 C
ATOM     37  C3  GCT B   3     -15.916  49.918  53.9230  0.00  0.00     0.000 C
ATOM     38  C4  GCT B   3     -14.978  50.479  54.9990  0.00  0.00     0.000 C
ATOM     39  C5  GCT B   3     -15.458  50.128  56.4260  0.00  0.00     0.000 C
ATOM     40  O5  GCT B   3     -16.205  48.929  56.3180  0.00  0.00     0.000 O
ATOM     41   O  GCT B   3     -18.228  49.368  53.4900  0.00  0.00     0.000 O
ATOM     43  HD  GCT B   3     -19.088  49.404  53.3980  0.00  0.00     0.000 HD
ATOM     43   O  GCT B   3     -15.863  50.664  52.6890  0.00  0.00     0.000 O
ATOM     45  HD  GCT B   3     -16.724  50.701  52.5970  0.00  0.00     0.000 HD
BRANCH 39 45
ATOM     45   C  GCT B   3     -16.267  51.156  57.1860  0.00  0.00     0.000 C
ATOM     46   O  GCT B   3     -16.630  52.225  56.6020  0.00  0.00     0.000 OA
ATOM     47   O  GCT B   3     -16.561  50.903  58.3660  0.00  0.00     0.000 OA
ENDBRANCH 39 45
BRANCH 35 48
ATOM     48  O3  ASG B   4     -18.636  49.361  56.2700  0.00  0.00     0.000 O
BRANCH 48 51
ATOM     49  C1  ASG B   4     -19.797  45.849  56.1760  0.00  0.00     0.000 C
ATOM     50  C2  ASG B   4     -19.088  47.148  55.7590  0.00  0.00     0.000 C
ATOM     51  C3  ASG B   4     -19.111  48.176  56.8870  0.00  0.00     0.000 C
ATOM     52  C4  ASG B   4     -20.515  48.355  57.4410  0.00  0.00     0.000 C
ATOM     53  C5  ASG B   4     -21.045  46.982  57.8430  0.00  0.00     0.000 C
ATOM     54  O5  ASG B   4     -21.093  46.135  56.6780  0.00  0.00     0.000 O
BRANCH 50 57
ATOM     55   N  ASG B   4     -18.201  46.072  55.3800  0.00  0.00     0.000 N
ATOM     57  HD  ASG B   4     -18.474  45.981  54.5630  0.00  0.00     0.000 HD
ATOM     57   O  ASG B   4     -18.193  46.589  53.2010  0.00  0.00     0.000 OA
ATOM     58   C  ASG B   4     -17.735  45.937  54.1350  0.00  0.00     0.000 C
ATOM     59   C  ASG B   4     -16.664  44.907  53.9530  0.00  0.00     0.000 C
ENDBRANCH 50 57
BRANCH 52 60
ATOM     60   O  ASG B   4     -21.250  48.998  56.3210  0.00  0.00     0.000 O
ATOM     61   O  ASG B   4     -21.322  51.213  57.4700  0.00  0.00     0.000 OA
ATOM     62   O  ASG B   4     -22.137  51.006  55.2420  0.00  0.00     0.000 OA
ATOM     63   O  ASG B   4     -23.262  49.850  57.0070  0.00  0.00     0.000 OA
ATOM     64   S  ASG B   4     -21.998  50.403  56.5130  0.00  0.00     0.000 S
ENDBRANCH 52 60
ATOM     65   O  ASG B   4     -22.703  45.756  59.1190  0.00  0.00     0.000 O
ATOM     67  HD  ASG B   4     -22.850  45.241  58.4390  0.00  0.00     0.000 HD
ATOM     67   O  ASG B   4     -22.703  45.756  59.1190  0.00  0.00     0.000 O
ATOM     69  HD  ASG B   4     -22.850  45.241  58.4390  0.00  0.00     0.000 HD
ENDBRANCH 48 51
ENDBRANCH 35 48
ENDBRANCH 34 38
ENDBRANCH 15 34
ENDBRANCH 14 17
ENDBRANCH 1 14
TORSDOF 12
ENDMDL
MODEL 56
REMARK VINA RESULT:      -7.6     15.516     20.086
ROOT
ATOM      1  C1  GAD B   1       9.899  48.279  82.8580  0.00  0.00     0.000 C
ATOM      2  C2  GAD B   1      10.419  49.702  82.6380  0.00  0.00     0.000 C
ATOM      3  C3  GAD B   1      10.037  50.593  83.8270  0.00  0.00     0.000 C
ATOM      4  C4  GAD B   1       8.712  50.221  84.4980  0.00  0.00     0.000 C
ATOM      5  C5  GAD B   1       7.994  49.120  84.2020  0.00  0.00     0.000 C
ATOM      6  O5  GAD B   1       8.494  48.271  83.1520  0.00  0.00     0.000 O
ATOM      7   O  GAD B   1      11.869  49.708  82.3610  0.00  0.00     0.000 O
ATOM      9  HD  GAD B   1      11.705  48.867  82.2350  0.00  0.00     0.000 HD
ATOM      9   O  GAD B   1       9.913  51.978  83.4340  0.00  0.00     0.000 O
ATOM     11  HD  GAD B   1       9.750  51.137  83.3080  0.00  0.00     0.000 HD
ENDROOT
BRANCH 5 11
ATOM     11   C  GAD B   1       6.768  48.696  84.9180  0.00  0.00     0.000 C
ATOM     12   O  GAD B   1       5.767  48.377  84.2040  0.00  0.00     0.000 OA
ATOM     13   O  GAD B   1       6.722  48.737  86.2020  0.00  0.00     0.000 OA
ENDBRANCH 5 11
BRANCH 1 14
ATOM     14  O3  ASG B   2       9.700  47.390  81.8670  0.00  0.00     0.000 O
BRANCH 14 17
ATOM     15  C1  ASG B   2       8.348  43.875  81.5510  0.00  0.00     0.000 C
ATOM     16  C2  ASG B   2       9.421  44.967  81.6600  0.00  0.00     0.000 C
ATOM     17  C3  ASG B   2       8.737  46.334  81.7600  0.00  0.00     0.000 C
ATOM     18  C4  ASG B   2       7.860  46.565  80.5450  0.00  0.00     0.000 C
ATOM     19  C5  ASG B   2       6.890  45.396  80.4000  0.00  0.00     0.000 C
ATOM     20  O5  ASG B   2       7.618  44.153  80.3710  0.00  0.00     0.000 O
ATOM     21   C  ASG B   2       6.097  45.455  79.1350  0.00  0.00     0.000 C
ATOM     22   O  ASG B   2       5.391  44.250  78.9710  0.00  0.00     0.000 O
ATOM     24  HD  ASG B   2       4.903  43.571  78.7440  0.00  0.00     0.000 HD
BRANCH 16 26
ATOM     24   N  ASG B   2      10.845  45.203  81.5960  0.00  0.00     0.000 N
ATOM     26  HD  ASG B   2      10.266  45.812  81.3890  0.00  0.00     0.000 HD
ATOM     26   C  ASG B   2      11.671  45.111  82.6550  0.00  0.00     0.000 C
ATOM     27   C  ASG B   2      13.128  45.047  82.3460  0.00  0.00     0.000 C
ATOM     28   O  ASG B   2      11.246  45.082  83.8030  0.00  0.00     0.000 OA
ENDBRANCH 16 26
BRANCH 18 29
ATOM     29   O  ASG B   2       8.766  46.699  79.3960  0.00  0.00     0.000 O
ATOM     30   O  ASG B   2       7.333  48.294  78.1940  0.00  0.00     0.000 OA
ATOM     31   O  ASG B   2       9.366  49.067  79.2720  0.00  0.00     0.000 OA
ATOM     32   O  ASG B   2       9.497  47.666  77.3060  0.00  0.00     0.000 OA
ATOM     33   S  ASG B   2       8.727  48.030  78.4960  0.00  0.00     0.000 S
ENDBRANCH 18 29
BRANCH 15 34
ATOM     34  O4  ASG B   3       8.871  42.581  81.4600  0.00  0.00     0.000 O
BRANCH 34 38
ATOM     35  C1  GCT B   3      11.754  40.032  80.2130  0.00  0.00     0.000 C
ATOM     36  C2  GCT B   3      12.068  40.725  81.5210  0.00  0.00     0.000 C
ATOM     37  C3  GCT B   3      10.807  41.307  82.1420  0.00  0.00     0.000 C
ATOM     38  C4  GCT B   3      10.185  42.317  81.1690  0.00  0.00     0.000 C
ATOM     39  C5  GCT B   3      10.394  41.905  79.6950  0.00  0.00     0.000 C
ATOM     40  O5  GCT B   3      10.516  40.493  79.6820  0.00  0.00     0.000 O
ATOM     41   O  GCT B   3      12.629  39.739  82.3760  0.00  0.00     0.000 O
ATOM     43  HD  GCT B   3      13.414  39.375  82.4070  0.00  0.00     0.000 HD
ATOM     43   O  GCT B   3      11.150  41.894  83.4160  0.00  0.00     0.000 O
ATOM     45  HD  GCT B   3      11.935  41.530  83.4460  0.00  0.00     0.000 HD
BRANCH 39 45
ATOM     45   C  GCT B   3      11.552  42.514  78.9340  0.00  0.00     0.000 C
ATOM     46   O  GCT B   3      11.772  42.156  77.7350  0.00  0.00     0.000 OA
ATOM     47   O  GCT B   3      12.244  43.364  79.5190  0.00  0.00     0.000 OA
ENDBRANCH 39 45
BRANCH 35 48
ATOM     48  O3  ASG B   4      12.876  39.774  79.5770  0.00  0.00     0.000 O
BRANCH 48 51
ATOM     49  C1  ASG B   4      12.542  36.157  78.8770  0.00  0.00     0.000 C
ATOM     50  C2  ASG B   4      12.535  37.486  79.6510  0.00  0.00     0.000 C
ATOM     51  C3  ASG B   4      12.671  38.676  78.7050  0.00  0.00     0.000 C
ATOM     52  C4  ASG B   4      13.839  38.490  77.7510  0.00  0.00     0.000 C
ATOM     53  C5  ASG B   4      13.662  37.150  77.0400  0.00  0.00     0.000 C
ATOM     54  O5  ASG B   4      13.670  36.093  78.0190  0.00  0.00     0.000 O
BRANCH 50 57
ATOM     55   N  ASG B   4      11.378  36.807  80.1890  0.00  0.00     0.000 N
ATOM     57  HD  ASG B   4      11.777  36.401  80.8420  0.00  0.00     0.000 HD
ATOM     57   O  ASG B   4      12.180  36.688  82.2770  0.00  0.00     0.000 OA
ATOM     58   C  ASG B   4      11.245  36.551  81.4940  0.00  0.00     0.000 C
ATOM     59   C  ASG B   4       9.903  36.040  81.9200  0.00  0.00     0.000 C
ENDBRANCH 50 57
BRANCH 52 60
ATOM     60   O  ASG B   4      15.028  38.567  78.6370  0.00  0.00     0.000 O
ATOM     61   O  ASG B   4      15.764  40.750  77.6750  0.00  0.00     0.000 OA
ATOM     62   O  ASG B   4      16.927  39.821  79.5340  0.00  0.00     0.000 OA
ATOM     63   O  ASG B   4      16.976  38.673  77.4370  0.00  0.00     0.000 OA
ATOM     64   S  ASG B   4      16.236  39.574  78.3260  0.00  0.00     0.000 S
ENDBRANCH 52 60
ATOM     65   O  ASG B   4      14.315  35.764  75.1610  0.00  0.00     0.000 O
ATOM     67  HD  ASG B   4      14.417  35.087  75.6910  0.00  0.00     0.000 HD
ATOM     67   O  ASG B   4      14.315  35.764  75.1610  0.00  0.00     0.000 O
ATOM     69  HD  ASG B   4      14.417  35.087  75.6910  0.00  0.00     0.000 HD
ENDBRANCH 48 51
ENDBRANCH 35 48
ENDBRANCH 34 38
ENDBRANCH 15 34
ENDBRANCH 14 17
ENDBRANCH 1 14
TORSDOF 12
ENDMDL
MODEL 57
REMARK VINA RESULT:      -7.6     31.078     34.283
ROOT
ATOM      1  C1  GAD B   1     -11.202  50.825  51.7860  0.00  0.00     0.000 C
ATOM      2  C2  GAD B   1     -12.196  51.243  52.8730  0.00  0.00     0.000 C
ATOM      3  C3  GAD B   1     -12.324  50.133  53.9240  0.00  0.00     0.000 C
ATOM      4  C4  GAD B   1     -12.146  48.715  53.3750  0.00  0.00     0.000 C
ATOM      5  C5  GAD B   1     -11.754  48.432  52.1170  0.00  0.00     0.000 C
ATOM      6  O5  GAD B   1     -11.536  49.545  51.2290  0.00  0.00     0.000 O
ATOM      7   O  GAD B   1     -11.836  52.548  53.4600  0.00  0.00     0.000 O
ATOM      9  HD  GAD B   1     -11.341  52.572  52.7500  0.00  0.00     0.000 HD
ATOM      9   O  GAD B   1     -13.620  50.155  54.5650  0.00  0.00     0.000 O
ATOM     11  HD  GAD B   1     -13.125  50.180  53.8540  0.00  0.00     0.000 HD
ENDROOT
BRANCH 5 11
ATOM     11   C  GAD B   1     -11.476  47.069  51.6080  0.00  0.00     0.000 C
ATOM     12   O  GAD B   1     -10.462  46.471  52.0860  0.00  0.00     0.000 OA
ATOM     13   O  GAD B   1     -12.196  46.572  50.6650  0.00  0.00     0.000 OA
ENDBRANCH 5 11
BRANCH 1 14
ATOM     14  O3  ASG B   2     -11.172  51.358  50.5500  0.00  0.00     0.000 O
BRANCH 14 17
ATOM     15  C1  ASG B   2     -11.856  50.346  46.9740  0.00  0.00     0.000 C
ATOM     16  C2  ASG B   2     -11.001  50.716  48.1940  0.00  0.00     0.000 C
ATOM     17  C3  ASG B   2     -11.924  51.009  49.3820  0.00  0.00     0.000 C
ATOM     18  C4  ASG B   2     -12.876  52.137  49.0330  0.00  0.00     0.000 C
ATOM     19  C5  ASG B   2     -13.615  51.785  47.7450  0.00  0.00     0.000 C
ATOM     20  O5  ASG B   2     -12.670  51.472  46.7040  0.00  0.00     0.000 O
ATOM     21   C  ASG B   2     -14.455  52.911  47.2330  0.00  0.00     0.000 C
ATOM     22   O  ASG B   2     -14.929  52.592  45.9490  0.00  0.00     0.000 O
ATOM     24  HD  ASG B   2     -15.291  52.529  45.1640  0.00  0.00     0.000 HD
BRANCH 16 26
ATOM     24   N  ASG B   2      -9.653  50.999  48.6290  0.00  0.00     0.000 N
ATOM     26  HD  ASG B   2     -10.346  51.330  49.0290  0.00  0.00     0.000 HD
ATOM     26   C  ASG B   2      -8.781  50.058  49.0360  0.00  0.00     0.000 C
ATOM     27   C  ASG B   2      -7.353  50.479  49.1170  0.00  0.00     0.000 C
ATOM     28   O  ASG B   2      -9.143  48.924  49.3220  0.00  0.00     0.000 OA
ENDBRANCH 16 26
BRANCH 18 29
ATOM     29   O  ASG B   2     -12.056  53.350  48.9060  0.00  0.00     0.000 O
ATOM     30   O  ASG B   2     -13.780  54.853  49.8070  0.00  0.00     0.000 OA
ATOM     31   O  ASG B   2     -11.850  54.273  51.1600  0.00  0.00     0.000 OA
ATOM     32   O  ASG B   2     -11.587  55.698  49.2250  0.00  0.00     0.000 OA
ATOM     33   S  ASG B   2     -12.349  54.617  49.8500  0.00  0.00     0.000 S
ENDBRANCH 18 29
BRANCH 15 34
ATOM     34  O4  ASG B   3     -11.104  50.053  45.8300  0.00  0.00     0.000 O
BRANCH 34 38
ATOM     35  C1  GCT B   3     -12.903  46.479  45.2360  0.00  0.00     0.000 C
ATOM     36  C2  GCT B   3     -11.394  46.403  45.3120  0.00  0.00     0.000 C
ATOM     37  C3  GCT B   3     -10.821  47.658  45.9570  0.00  0.00     0.000 C
ATOM     38  C4  GCT B   3     -11.226  48.881  45.1270  0.00  0.00     0.000 C
ATOM     39  C5  GCT B   3     -12.626  48.715  44.4940  0.00  0.00     0.000 C
ATOM     40  O5  GCT B   3     -13.346  47.828  45.3320  0.00  0.00     0.000 O
ATOM     41   O  GCT B   3     -11.086  45.261  46.0980  0.00  0.00     0.000 O
ATOM     43  HD  GCT B   3     -11.096  44.413  45.9200  0.00  0.00     0.000 HD
ATOM     43   O  GCT B   3      -9.390  47.504  46.0690  0.00  0.00     0.000 O
ATOM     45  HD  GCT B   3      -9.400  46.657  45.8910  0.00  0.00     0.000 HD
BRANCH 39 45
ATOM     45   C  GCT B   3     -12.715  48.233  43.0620  0.00  0.00     0.000 C
ATOM     46   O  GCT B   3     -11.661  47.856  42.4610  0.00  0.00     0.000 OA
ATOM     47   O  GCT B   3     -13.836  48.212  42.5280  0.00  0.00     0.000 OA
ENDBRANCH 39 45
BRANCH 35 48
ATOM     48  O3  ASG B   4     -13.347  45.522  44.4490  0.00  0.00     0.000 O
BRANCH 48 51
ATOM     49  C1  ASG B   4     -16.551  44.531  46.0120  0.00  0.00     0.000 C
ATOM     50  C2  ASG B   4     -15.056  44.863  45.8640  0.00  0.00     0.000 C
ATOM     51  C3  ASG B   4     -14.763  45.497  44.5080  0.00  0.00     0.000 C
ATOM     52  C4  ASG B   4     -15.357  44.675  43.3760  0.00  0.00     0.000 C
ATOM     53  C5  ASG B   4     -16.844  44.480  43.6610  0.00  0.00     0.000 C
ATOM     54  O5  ASG B   4     -16.997  43.767  44.9030  0.00  0.00     0.000 O
BRANCH 50 57
ATOM     55   N  ASG B   4     -14.416  43.603  46.1660  0.00  0.00     0.000 N
ATOM     57  HD  ASG B   4     -13.908  43.883  46.8080  0.00  0.00     0.000 HD
ATOM     57   O  ASG B   4     -13.995  44.107  48.3060  0.00  0.00     0.000 OA
ATOM     58   C  ASG B   4     -14.025  43.279  47.4020  0.00  0.00     0.000 C
ATOM     59   C  ASG B   4     -13.578  41.861  47.5890  0.00  0.00     0.000 C
ENDBRANCH 50 57
BRANCH 52 60
ATOM     60   O  ASG B   4     -14.555  43.424  43.3960  0.00  0.00     0.000 O
ATOM     61   O  ASG B   4     -15.070  42.904  41.0090  0.00  0.00     0.000 OA
ATOM     62   O  ASG B   4     -13.537  41.539  42.2160  0.00  0.00     0.000 OA
ATOM     63   O  ASG B   4     -15.831  41.591  42.8890  0.00  0.00     0.000 OA
ATOM     64   S  ASG B   4     -14.721  42.309  42.2560  0.00  0.00     0.000 S
ENDBRANCH 52 60
ATOM     65   O  ASG B   4     -19.008  43.875  42.7500  0.00  0.00     0.000 O
ATOM     67  HD  ASG B   4     -19.155  43.361  43.4310  0.00  0.00     0.000 HD
ATOM     67   O  ASG B   4     -19.008  43.875  42.7500  0.00  0.00     0.000 O
ATOM     69  HD  ASG B   4     -19.155  43.361  43.4310  0.00  0.00     0.000 HD
ENDBRANCH 48 51
ENDBRANCH 35 48
ENDBRANCH 34 38
ENDBRANCH 15 34
ENDBRANCH 14 17
ENDBRANCH 1 14
TORSDOF 12
ENDMDL
MODEL 58
REMARK VINA RESULT:      -7.6     29.720     33.782
ROOT
ATOM      1  C1  GAD B   1      -2.846  16.656  57.0710  0.00  0.00     0.000 C
ATOM      2  C2  GAD B   1      -1.706  16.897  58.0650  0.00  0.00     0.000 C
ATOM      3  C3  GAD B   1      -2.172  17.838  59.1830  0.00  0.00     0.000 C
ATOM      4  C4  GAD B   1      -3.209  18.876  58.7470  0.00  0.00     0.000 C
ATOM      5  C5  GAD B   1      -3.804  18.894  57.5380  0.00  0.00     0.000 C
ATOM      6  O5  GAD B   1      -3.393  17.892  56.5880  0.00  0.00     0.000 O
ATOM      7   O  GAD B   1      -1.162  15.625  58.5780  0.00  0.00     0.000 O
ATOM      9  HD  GAD B   1      -1.606  15.323  57.8980  0.00  0.00     0.000 HD
ATOM      9   O  GAD B   1      -1.068  18.584  59.7430  0.00  0.00     0.000 O
ATOM     11  HD  GAD B   1      -1.512  18.283  59.0630  0.00  0.00     0.000 HD
ENDROOT
BRANCH 5 11
ATOM     11   C  GAD B   1      -4.885  19.827  57.1430  0.00  0.00     0.000 C
ATOM     12   O  GAD B   1      -5.485  19.583  56.0510  0.00  0.00     0.000 OA
ATOM     13   O  GAD B   1      -5.126  20.873  57.8520  0.00  0.00     0.000 OA
ENDBRANCH 5 11
BRANCH 1 14
ATOM     14  O3  ASG B   2      -2.662  16.239  55.8040  0.00  0.00     0.000 O
BRANCH 14 17
ATOM     15  C1  ASG B   2      -4.508  16.499  52.5170  0.00  0.00     0.000 C
ATOM     16  C2  ASG B   2      -4.040  15.839  53.8220  0.00  0.00     0.000 C
ATOM     17  C3  ASG B   2      -3.124  16.809  54.5740  0.00  0.00     0.000 C
ATOM     18  C4  ASG B   2      -1.937  17.179  53.7060  0.00  0.00     0.000 C
ATOM     19  C5  ASG B   2      -2.443  17.714  52.3700  0.00  0.00     0.000 C
ATOM     20  O5  ASG B   2      -3.339  16.761  51.7640  0.00  0.00     0.000 O
ATOM     21   C  ASG B   2      -1.343  17.949  51.3850  0.00  0.00     0.000 C
ATOM     22   O  ASG B   2      -1.898  18.234  50.1250  0.00  0.00     0.000 O
ATOM     24  HD  ASG B   2      -2.097  18.423  49.3040  0.00  0.00     0.000 HD
BRANCH 16 26
ATOM     24   N  ASG B   2      -5.115  15.347  54.6530  0.00  0.00     0.000 N
ATOM     26  HD  ASG B   2      -5.192  15.422  53.7940  0.00  0.00     0.000 HD
ATOM     26   C  ASG B   2      -5.026  14.248  55.4250  0.00  0.00     0.000 C
ATOM     27   C  ASG B   2      -6.087  14.086  56.4590  0.00  0.00     0.000 C
ATOM     28   O  ASG B   2      -4.124  13.431  55.2830  0.00  0.00     0.000 OA
ENDBRANCH 16 26
BRANCH 18 29
ATOM     29   O  ASG B   2      -1.130  15.959  53.5620  0.00  0.00     0.000 O
ATOM     30   O  ASG B   2       0.999  17.158  53.2860  0.00  0.00     0.000 OA
ATOM     31   O  ASG B   2       0.515  16.012  55.3700  0.00  0.00     0.000 OA
ATOM     32   O  ASG B   2       0.945  14.738  53.3610  0.00  0.00     0.000 OA
ATOM     33   S  ASG B   2       0.435  15.986  53.9290  0.00  0.00     0.000 S
ENDBRANCH 18 29
BRANCH 15 34
ATOM     34  O4  ASG B   3      -5.360  15.693  51.7540  0.00  0.00     0.000 O
BRANCH 34 38
ATOM     35  C1  GCT B   3      -5.923  18.428  48.8270  0.00  0.00     0.000 C
ATOM     36  C2  GCT B   3      -7.158  18.148  49.6540  0.00  0.00     0.000 C
ATOM     37  C3  GCT B   3      -6.789  17.475  50.9680  0.00  0.00     0.000 C
ATOM     38  C4  GCT B   3      -6.067  16.155  50.6730  0.00  0.00     0.000 C
ATOM     39  C5  GCT B   3      -5.204  16.240  49.3940  0.00  0.00     0.000 C
ATOM     40  O5  GCT B   3      -4.841  17.600  49.2400  0.00  0.00     0.000 O
ATOM     41   O  GCT B   3      -7.772  19.406  49.9000  0.00  0.00     0.000 O
ATOM     43  HD  GCT B   3      -8.252  19.925  49.4000  0.00  0.00     0.000 HD
ATOM     43   O  GCT B   3      -7.992  17.295  51.7460  0.00  0.00     0.000 O
ATOM     45  HD  GCT B   3      -8.472  17.814  51.2470  0.00  0.00     0.000 HD
BRANCH 39 45
ATOM     45   C  GCT B   3      -5.790  15.729  48.0950  0.00  0.00     0.000 C
ATOM     46   O  GCT B   3      -6.971  15.259  48.0820  0.00  0.00     0.000 OA
ATOM     47   O  GCT B   3      -5.086  15.803  47.0750  0.00  0.00     0.000 OA
ENDBRANCH 39 45
BRANCH 35 48
ATOM     48  O3  ASG B   4      -6.283  18.760  47.6050  0.00  0.00     0.000 O
BRANCH 48 51
ATOM     49  C1  ASG B   4      -5.088  21.962  46.1880  0.00  0.00     0.000 C
ATOM     50  C2  ASG B   4      -5.938  20.966  46.9950  0.00  0.00     0.000 C
ATOM     51  C3  ASG B   4      -5.283  19.589  47.0390  0.00  0.00     0.000 C
ATOM     52  C4  ASG B   4      -4.888  19.123  45.6470  0.00  0.00     0.000 C
ATOM     53  C5  ASG B   4      -4.018  20.204  45.0130  0.00  0.00     0.000 C
ATOM     54  O5  ASG B   4      -4.778  21.424  44.9130  0.00  0.00     0.000 O
BRANCH 50 57
ATOM     55   N  ASG B   4      -7.337  20.727  46.7250  0.00  0.00     0.000 N
ATOM     57  HD  ASG B   4      -7.659  21.115  47.4290  0.00  0.00     0.000 HD
ATOM     57   O  ASG B   4      -8.063  22.510  47.8690  0.00  0.00     0.000 OA
ATOM     58   C  ASG B   4      -8.293  21.583  47.0990  0.00  0.00     0.000 C
ATOM     59   C  ASG B   4      -9.662  21.301  46.5600  0.00  0.00     0.000 C
ENDBRANCH 50 57
BRANCH 52 60
ATOM     60   O  ASG B   4      -6.193  18.905  44.9710  0.00  0.00     0.000 O
ATOM     61   O  ASG B   4      -5.380  16.869  43.7770  0.00  0.00     0.000 OA
ATOM     62   O  ASG B   4      -7.667  17.511  43.6040  0.00  0.00     0.000 OA
ATOM     63   O  ASG B   4      -5.983  18.941  42.6900  0.00  0.00     0.000 OA
ATOM     64   S  ASG B   4      -6.322  17.935  43.7010  0.00  0.00     0.000 S
ENDBRANCH 52 60
ATOM     65   O  ASG B   4      -2.434  20.745  43.2590  0.00  0.00     0.000 O
ATOM     67  HD  ASG B   4      -2.875  21.469  43.0790  0.00  0.00     0.000 HD
ATOM     67   O  ASG B   4      -2.434  20.745  43.2590  0.00  0.00     0.000 O
ATOM     69  HD  ASG B   4      -2.875  21.469  43.0790  0.00  0.00     0.000 HD
ENDBRANCH 48 51
ENDBRANCH 35 48
ENDBRANCH 34 38
ENDBRANCH 15 34
ENDBRANCH 14 17
ENDBRANCH 1 14
TORSDOF 12
ENDMDL
MODEL 59
REMARK VINA RESULT:      -7.6     30.756     34.890
ROOT
ATOM      1  C1  GAD B   1      -7.783  19.962  43.0920  0.00  0.00     0.000 C
ATOM      2  C2  GAD B   1      -8.030  21.068  42.0610  0.00  0.00     0.000 C
ATOM      3  C3  GAD B   1      -7.504  20.634  40.6870  0.00  0.00     0.000 C
ATOM      4  C4  GAD B   1      -6.278  19.718  40.7370  0.00  0.00     0.000 C
ATOM      5  C5  GAD B   1      -5.771  19.189  41.8680  0.00  0.00     0.000 C
ATOM      6  O5  GAD B   1      -6.406  19.554  43.1080  0.00  0.00     0.000 O
ATOM      7   O  GAD B   1      -9.450  21.467  42.0300  0.00  0.00     0.000 O
ATOM      9  HD  GAD B   1      -9.443  21.032  42.7790  0.00  0.00     0.000 HD
ATOM      9   O  GAD B   1      -7.123  21.771  39.8810  0.00  0.00     0.000 O
ATOM     11  HD  GAD B   1      -7.116  21.336  40.6300  0.00  0.00     0.000 HD
ENDROOT
BRANCH 5 11
ATOM     11   C  GAD B   1      -4.652  18.219  41.9170  0.00  0.00     0.000 C
ATOM     12   O  GAD B   1      -4.294  17.812  43.0660  0.00  0.00     0.000 OA
ATOM     13   O  GAD B   1      -4.038  17.886  40.8370  0.00  0.00     0.000 OA
ENDBRANCH 5 11
BRANCH 1 14
ATOM     14  O3  ASG B   2      -7.739  20.170  44.4210  0.00  0.00     0.000 O
BRANCH 14 17
ATOM     15  C1  ASG B   2      -5.618  19.391  47.4490  0.00  0.00     0.000 C
ATOM     16  C2  ASG B   2      -6.850  19.319  46.5360  0.00  0.00     0.000 C
ATOM     17  C3  ASG B   2      -6.616  20.205  45.3090  0.00  0.00     0.000 C
ATOM     18  C4  ASG B   2      -6.354  21.634  45.7430  0.00  0.00     0.000 C
ATOM     19  C5  ASG B   2      -5.204  21.648  46.7450  0.00  0.00     0.000 C
ATOM     20  O5  ASG B   2      -5.488  20.747  47.8340  0.00  0.00     0.000 O
ATOM     21   C  ASG B   2      -4.984  22.995  47.3550  0.00  0.00     0.000 C
ATOM     22   O  ASG B   2      -4.062  22.883  48.4120  0.00  0.00     0.000 O
ATOM     24  HD  ASG B   2      -3.513  22.963  49.0770  0.00  0.00     0.000 HD
BRANCH 16 26
ATOM     24   N  ASG B   2      -7.238  17.987  46.1330  0.00  0.00     0.000 N
ATOM     26  HD  ASG B   2      -6.780  18.138  46.8520  0.00  0.00     0.000 HD
ATOM     26   C  ASG B   2      -8.514  17.589  45.9820  0.00  0.00     0.000 C
ATOM     27   C  ASG B   2      -8.719  16.312  45.2410  0.00  0.00     0.000 C
ATOM     28   O  ASG B   2      -9.450  18.240  46.4280  0.00  0.00     0.000 OA
ENDBRANCH 16 26
BRANCH 18 29
ATOM     29   O  ASG B   2      -7.613  22.134  46.3130  0.00  0.00     0.000 O
ATOM     30   O  ASG B   2      -7.203  24.475  45.6850  0.00  0.00     0.000 OA
ATOM     31   O  ASG B   2      -8.839  23.162  44.4640  0.00  0.00     0.000 OA
ATOM     32   O  ASG B   2      -9.282  23.827  46.7460  0.00  0.00     0.000 OA
ATOM     33   S  ASG B   2      -8.266  23.489  45.7490  0.00  0.00     0.000 S
ENDBRANCH 18 29
BRANCH 15 34
ATOM     34  O4  ASG B   3      -5.728  18.608  48.6040  0.00  0.00     0.000 O
BRANCH 34 38
ATOM     35  C1  GCT B   3      -4.610  18.097  52.4570  0.00  0.00     0.000 C
ATOM     36  C2  GCT B   3      -5.986  18.703  52.2910  0.00  0.00     0.000 C
ATOM     37  C3  GCT B   3      -6.515  18.467  50.8830  0.00  0.00     0.000 C
ATOM     38  C4  GCT B   3      -5.555  19.104  49.8710  0.00  0.00     0.000 C
ATOM     39  C5  GCT B   3      -4.084  19.027  50.3400  0.00  0.00     0.000 C
ATOM     40  O5  GCT B   3      -3.989  17.899  51.1920  0.00  0.00     0.000 O
ATOM     41   O  GCT B   3      -6.825  18.067  53.2450  0.00  0.00     0.000 O
ATOM     43  HD  GCT B   3      -6.910  18.167  54.1010  0.00  0.00     0.000 HD
ATOM     43   O  GCT B   3      -7.853  19.001  50.7990  0.00  0.00     0.000 O
ATOM     45  HD  GCT B   3      -7.938  19.101  51.6550  0.00  0.00     0.000 HD
BRANCH 39 45
ATOM     45   C  GCT B   3      -3.487  20.231  51.0360  0.00  0.00     0.000 C
ATOM     46   O  GCT B   3      -2.365  20.124  51.6230  0.00  0.00     0.000 OA
ATOM     47   O  GCT B   3      -4.122  21.298  50.9920  0.00  0.00     0.000 OA
ENDBRANCH 39 45
BRANCH 35 48
ATOM     48  O3  ASG B   4      -4.074  18.536  53.5760  0.00  0.00     0.000 O
BRANCH 48 51
ATOM     49  C1  ASG B   4      -3.529  17.114  56.9480  0.00  0.00     0.000 C
ATOM     50  C2  ASG B   4      -3.922  18.113  55.8470  0.00  0.00     0.000 C
ATOM     51  C3  ASG B   4      -3.923  17.450  54.4730  0.00  0.00     0.000 C
ATOM     52  C4  ASG B   4      -2.628  16.693  54.2270  0.00  0.00     0.000 C
ATOM     53  C5  ASG B   4      -2.418  15.722  55.3850  0.00  0.00     0.000 C
ATOM     54  O5  ASG B   4      -2.311  16.467  56.6130  0.00  0.00     0.000 O
BRANCH 50 57
ATOM     55   N  ASG B   4      -5.210  18.547  56.3400  0.00  0.00     0.000 N
ATOM     57  HD  ASG B   4      -4.924  19.023  57.0040  0.00  0.00     0.000 HD
ATOM     57   O  ASG B   4      -4.438  20.439  57.2570  0.00  0.00     0.000 OA
ATOM     58   C  ASG B   4      -5.387  19.737  56.9210  0.00  0.00     0.000 C
ATOM     59   C  ASG B   4      -6.810  20.126  57.1800  0.00  0.00     0.000 C
ENDBRANCH 50 57
BRANCH 52 60
ATOM     60   O  ASG B   4      -1.609  17.770  54.1320  0.00  0.00     0.000 O
ATOM     61   O  ASG B   4      -0.704  16.901  51.9740  0.00  0.00     0.000 OA
ATOM     62   O  ASG B   4       0.115  18.953  52.8610  0.00  0.00     0.000 OA
ATOM     63   O  ASG B   4       0.518  16.923  54.0580  0.00  0.00     0.000 OA
ATOM     64   S  ASG B   4      -0.359  17.650  53.1350  0.00  0.00     0.000 S
ENDBRANCH 52 60
ATOM     65   O  ASG B   4      -1.243  13.754  56.1770  0.00  0.00     0.000 O
ATOM     67  HD  ASG B   4      -1.068  14.156  56.9250  0.00  0.00     0.000 HD
ATOM     67   O  ASG B   4      -1.243  13.754  56.1770  0.00  0.00     0.000 O
ATOM     69  HD  ASG B   4      -1.068  14.156  56.9250  0.00  0.00     0.000 HD
ENDBRANCH 48 51
ENDBRANCH 35 48
ENDBRANCH 34 38
ENDBRANCH 15 34
ENDBRANCH 14 17
ENDBRANCH 1 14
TORSDOF 12
ENDMDL
MODEL 60
REMARK VINA RESULT:      -7.6     26.171     29.219
ROOT
ATOM      1  C1  GAD B   1     -12.207  48.760  53.1450  0.00  0.00     0.000 C
ATOM      2  C2  GAD B   1     -12.134  47.535  54.0620  0.00  0.00     0.000 C
ATOM      3  C3  GAD B   1     -10.995  46.611  53.6160  0.00  0.00     0.000 C
ATOM      4  C4  GAD B   1     -10.730  46.612  52.1080  0.00  0.00     0.000 C
ATOM      5  C5  GAD B   1     -11.316  47.456  51.2350  0.00  0.00     0.000 C
ATOM      6  O5  GAD B   1     -12.287  48.379  51.7630  0.00  0.00     0.000 O
ATOM      7   O  GAD B   1     -12.027  47.931  55.4800  0.00  0.00     0.000 O
ATOM      9  HD  GAD B   1     -12.280  48.687  55.1420  0.00  0.00     0.000 HD
ATOM      9   O  GAD B   1     -11.256  45.235  53.9750  0.00  0.00     0.000 O
ATOM     11  HD  GAD B   1     -11.509  45.991  53.6370  0.00  0.00     0.000 HD
ENDROOT
BRANCH 5 11
ATOM     11   C  GAD B   1     -10.989  47.538  49.7920  0.00  0.00     0.000 C
ATOM     12   O  GAD B   1     -11.822  48.141  49.0470  0.00  0.00     0.000 OA
ATOM     13   O  GAD B   1      -9.944  46.945  49.3320  0.00  0.00     0.000 OA
ENDBRANCH 5 11
BRANCH 1 14
ATOM     14  O3  ASG B   2     -13.305  49.525  53.0000  0.00  0.00     0.000 O
BRANCH 14 17
ATOM     15  C1  ASG B   2     -16.442  50.312  54.9550  0.00  0.00     0.000 C
ATOM     16  C2  ASG B   2     -15.590  49.642  53.8680  0.00  0.00     0.000 C
ATOM     17  C3  ASG B   2     -14.143  50.126  53.9940  0.00  0.00     0.000 C
ATOM     18  C4  ASG B   2     -14.089  51.636  53.8610  0.00  0.00     0.000 C
ATOM     19  C5  ASG B   2     -15.042  52.261  54.8750  0.00  0.00     0.000 C
ATOM     20  O5  ASG B   2     -16.362  51.705  54.7180  0.00  0.00     0.000 O
ATOM     21   C  ASG B   2     -15.179  53.740  54.7060  0.00  0.00     0.000 C
ATOM     22   O  ASG B   2     -16.223  54.207  55.5240  0.00  0.00     0.000 O
ATOM     24  HD  ASG B   2     -16.830  54.631  55.9740  0.00  0.00     0.000 HD
BRANCH 16 26
ATOM     24   N  ASG B   2     -15.705  48.799  52.7000  0.00  0.00     0.000 N
ATOM     26  HD  ASG B   2     -15.088  49.402  52.7760  0.00  0.00     0.000 HD
ATOM     26   C  ASG B   2     -15.617  47.456  52.7290  0.00  0.00     0.000 C
ATOM     27   C  ASG B   2     -16.095  46.741  51.5120  0.00  0.00     0.000 C
ATOM     28   O  ASG B   2     -15.171  46.861  53.7020  0.00  0.00     0.000 OA
ENDBRANCH 16 26
BRANCH 18 29
ATOM     29   O  ASG B   2     -14.452  51.946  52.4710  0.00  0.00     0.000 O
ATOM     30   O  ASG B   2     -12.927  53.865  52.2870  0.00  0.00     0.000 OA
ATOM     31   O  ASG B   2     -12.387  51.777  51.1720  0.00  0.00     0.000 OA
ATOM     32   O  ASG B   2     -14.226  53.132  50.3790  0.00  0.00     0.000 OA
ATOM     33   S  ASG B   2     -13.414  52.729  51.5270  0.00  0.00     0.000 S
ENDBRANCH 18 29
BRANCH 15 34
ATOM     34  O4  ASG B   3     -17.787  49.931  54.9300  0.00  0.00     0.000 O
BRANCH 34 38
ATOM     35  C1  GCT B   3     -20.711  47.465  56.2480  0.00  0.00     0.000 C
ATOM     36  C2  GCT B   3     -19.413  47.348  57.0170  0.00  0.00     0.000 C
ATOM     37  C3  GCT B   3     -18.530  48.564  56.7790  0.00  0.00     0.000 C
ATOM     38  C4  GCT B   3     -18.223  48.678  55.2800  0.00  0.00     0.000 C
ATOM     39  C5  GCT B   3     -19.405  48.198  54.4080  0.00  0.00     0.000 C
ATOM     40  O5  GCT B   3     -20.580  48.392  55.1760  0.00  0.00     0.000 O
ATOM     41   O  GCT B   3     -19.765  47.256  58.3910  0.00  0.00     0.000 O
ATOM     43  HD  GCT B   3     -20.080  46.606  58.8670  0.00  0.00     0.000 HD
ATOM     43   O  GCT B   3     -17.341  48.435  57.5870  0.00  0.00     0.000 O
ATOM     45  HD  GCT B   3     -17.656  47.784  58.0630  0.00  0.00     0.000 HD
BRANCH 39 45
ATOM     45   C  GCT B   3     -19.381  46.779  53.8820  0.00  0.00     0.000 C
ATOM     46   O  GCT B   3     -20.339  46.363  53.1570  0.00  0.00     0.000 OA
ATOM     47   O  GCT B   3     -18.403  46.071  54.1730  0.00  0.00     0.000 OA
ENDBRANCH 39 45
BRANCH 35 48
ATOM     48  O3  ASG B   4     -21.329  46.303  56.2590  0.00  0.00     0.000 O
BRANCH 48 51
ATOM     49  C1  ASG B   4     -24.711  45.864  57.6930  0.00  0.00     0.000 C
ATOM     50  C2  ASG B   4     -23.178  45.930  57.6020  0.00  0.00     0.000 C
ATOM     51  C3  ASG B   4     -22.729  46.526  56.2700  0.00  0.00     0.000 C
ATOM     52  C4  ASG B   4     -23.417  45.841  55.1010  0.00  0.00     0.000 C
ATOM     53  C5  ASG B   4     -24.924  45.906  55.3330  0.00  0.00     0.000 C
ATOM     54  O5  ASG B   4     -25.244  45.209  56.5520  0.00  0.00     0.000 O
BRANCH 50 57
ATOM     55   N  ASG B   4     -23.213  46.642  58.8590  0.00  0.00     0.000 N
ATOM     57  HD  ASG B   4     -23.277  45.953  59.3790  0.00  0.00     0.000 HD
ATOM     57   O  ASG B   4     -22.354  44.958  60.0590  0.00  0.00     0.000 OA
ATOM     58   C  ASG B   4     -22.697  46.134  59.9820  0.00  0.00     0.000 C
ATOM     59   C  ASG B   4     -22.619  47.076  61.1430  0.00  0.00     0.000 C
ENDBRANCH 50 57
BRANCH 52 60
ATOM     60   O  ASG B   4     -22.847  44.469  55.1180  0.00  0.00     0.000 O
ATOM     61   O  ASG B   4     -23.103  44.194  52.6500  0.00  0.00     0.000 OA
ATOM     62   O  ASG B   4     -22.005  42.507  53.9240  0.00  0.00     0.000 OA
ATOM     63   O  ASG B   4     -24.329  42.926  54.3010  0.00  0.00     0.000 OA
ATOM     64   S  ASG B   4     -23.037  43.472  53.8770  0.00  0.00     0.000 S
ENDBRANCH 52 60
ATOM     65   O  ASG B   4     -27.126  45.707  54.3380  0.00  0.00     0.000 O
ATOM     67  HD  ASG B   4     -27.385  45.215  55.0020  0.00  0.00     0.000 HD
ATOM     67   O  ASG B   4     -27.126  45.707  54.3380  0.00  0.00     0.000 O
ATOM     69  HD  ASG B   4     -27.385  45.215  55.0020  0.00  0.00     0.000 HD
ENDBRANCH 48 51
ENDBRANCH 35 48
ENDBRANCH 34 38
ENDBRANCH 15 34
ENDBRANCH 14 17
ENDBRANCH 1 14
TORSDOF 12
ENDMDL
MODEL 61
REMARK VINA RESULT:      -7.5     29.803     33.929
ROOT
ATOM      1  C1  GAD B   1      -6.794  21.664  44.6560  0.00  0.00     0.000 C
ATOM      2  C2  GAD B   1      -7.450  20.910  43.4950  0.00  0.00     0.000 C
ATOM      3  C3  GAD B   1      -8.787  21.566  43.1300  0.00  0.00     0.000 C
ATOM      4  C4  GAD B   1      -9.525  22.203  44.3110  0.00  0.00     0.000 C
ATOM      5  C5  GAD B   1      -9.006  22.336  45.5480  0.00  0.00     0.000 C
ATOM      6  O5  GAD B   1      -7.689  21.798  45.7710  0.00  0.00     0.000 O
ATOM      7   O  GAD B   1      -6.535  20.796  42.3430  0.00  0.00     0.000 O
ATOM      9  HD  GAD B   1      -5.964  21.024  42.9530  0.00  0.00     0.000 HD
ATOM      9   O  GAD B   1      -9.705  20.613  42.5510  0.00  0.00     0.000 O
ATOM     11  HD  GAD B   1      -9.134  20.841  43.1610  0.00  0.00     0.000 HD
ENDROOT
BRANCH 5 11
ATOM     11   C  GAD B   1      -9.669  23.044  46.6690  0.00  0.00     0.000 C
ATOM     12   O  GAD B   1     -10.248  24.141  46.3940  0.00  0.00     0.000 OA
ATOM     13   O  GAD B   1      -9.574  22.587  47.8670  0.00  0.00     0.000 OA
ENDBRANCH 5 11
BRANCH 1 14
ATOM     14  O3  ASG B   2      -5.861  21.131  45.4670  0.00  0.00     0.000 O
BRANCH 14 17
ATOM     15  C1  ASG B   2      -5.438  19.460  48.8300  0.00  0.00     0.000 C
ATOM     16  C2  ASG B   2      -5.262  20.556  47.7690  0.00  0.00     0.000 C
ATOM     17  C3  ASG B   2      -5.992  20.137  46.4890  0.00  0.00     0.000 C
ATOM     18  C4  ASG B   2      -5.443  18.815  45.9890  0.00  0.00     0.000 C
ATOM     19  C5  ASG B   2      -5.520  17.785  47.1120  0.00  0.00     0.000 C
ATOM     20  O5  ASG B   2      -4.857  18.288  48.2880  0.00  0.00     0.000 O
ATOM     21   C  ASG B   2      -4.848  16.496  46.7630  0.00  0.00     0.000 C
ATOM     22   O  ASG B   2      -4.774  15.684  47.9090  0.00  0.00     0.000 O
ATOM     24  HD  ASG B   2      -4.662  15.084  48.5240  0.00  0.00     0.000 HD
BRANCH 16 26
ATOM     24   N  ASG B   2      -4.600  21.797  47.4420  0.00  0.00     0.000 N
ATOM     26  HD  ASG B   2      -4.891  21.255  46.8330  0.00  0.00     0.000 HD
ATOM     26   C  ASG B   2      -5.048  23.010  47.8130  0.00  0.00     0.000 C
ATOM     27   C  ASG B   2      -4.077  24.134  47.6910  0.00  0.00     0.000 C
ATOM     28   O  ASG B   2      -6.189  23.176  48.2280  0.00  0.00     0.000 OA
ENDBRANCH 16 26
BRANCH 18 29
ATOM     29   O  ASG B   2      -4.065  19.075  45.5490  0.00  0.00     0.000 O
ATOM     30   O  ASG B   2      -4.087  17.358  43.7900  0.00  0.00     0.000 OA
ATOM     31   O  ASG B   2      -4.210  19.707  43.1910  0.00  0.00     0.000 OA
ATOM     32   O  ASG B   2      -2.160  18.793  44.0900  0.00  0.00     0.000 OA
ATOM     33   S  ASG B   2      -3.620  18.707  44.0490  0.00  0.00     0.000 S
ENDBRANCH 18 29
BRANCH 15 34
ATOM     34  O4  ASG B   3      -4.810  19.749  50.0460  0.00  0.00     0.000 O
BRANCH 34 38
ATOM     35  C1  GCT B   3      -4.033  18.238  53.7170  0.00  0.00     0.000 C
ATOM     36  C2  GCT B   3      -2.806  18.402  52.8460  0.00  0.00     0.000 C
ATOM     37  C3  GCT B   3      -3.085  19.352  51.6900  0.00  0.00     0.000 C
ATOM     38  C4  GCT B   3      -4.236  18.793  50.8450  0.00  0.00     0.000 C
ATOM     39  C5  GCT B   3      -5.276  18.041  51.7060  0.00  0.00     0.000 C
ATOM     40  O5  GCT B   3      -5.210  18.605  53.0050  0.00  0.00     0.000 O
ATOM     41   O  GCT B   3      -1.786  18.929  53.6820  0.00  0.00     0.000 O
ATOM     43  HD  GCT B   3      -1.282  18.564  54.2840  0.00  0.00     0.000 HD
ATOM     43   O  GCT B   3      -1.868  19.526  50.9350  0.00  0.00     0.000 O
ATOM     45  HD  GCT B   3      -1.364  19.161  51.5360  0.00  0.00     0.000 HD
BRANCH 39 45
ATOM     45   C  GCT B   3      -5.172  16.535  51.8090  0.00  0.00     0.000 C
ATOM     46   O  GCT B   3      -4.277  15.922  51.1460  0.00  0.00     0.000 OA
ATOM     47   O  GCT B   3      -5.970  15.950  52.5600  0.00  0.00     0.000 OA
ENDBRANCH 39 45
BRANCH 35 48
ATOM     48  O3  ASG B   4      -3.852  17.226  54.5380  0.00  0.00     0.000 O
BRANCH 48 51
ATOM     49  C1  ASG B   4      -1.261  16.368  57.0360  0.00  0.00     0.000 C
ATOM     50  C2  ASG B   4      -2.219  16.228  55.8420  0.00  0.00     0.000 C
ATOM     51  C3  ASG B   4      -2.849  17.570  55.4780  0.00  0.00     0.000 C
ATOM     52  C4  ASG B   4      -3.436  18.252  56.7030  0.00  0.00     0.000 C
ATOM     53  C5  ASG B   4      -2.343  18.346  57.7640  0.00  0.00     0.000 C
ATOM     54  O5  ASG B   4      -1.911  17.017  58.1160  0.00  0.00     0.000 O
BRANCH 50 57
ATOM     55   N  ASG B   4      -1.368  15.669  54.8170  0.00  0.00     0.000 N
ATOM     57  HD  ASG B   4      -1.274  14.880  55.1630  0.00  0.00     0.000 HD
ATOM     57   O  ASG B   4      -2.007  13.552  55.1690  0.00  0.00     0.000 OA
ATOM     58   C  ASG B   4      -1.405  14.374  54.4870  0.00  0.00     0.000 C
ATOM     59   C  ASG B   4      -0.622  13.995  53.2670  0.00  0.00     0.000 C
ENDBRANCH 50 57
BRANCH 52 60
ATOM     60   O  ASG B   4      -4.581  17.379  57.0710  0.00  0.00     0.000 O
ATOM     61   O  ASG B   4      -6.268  19.111  56.4480  0.00  0.00     0.000 OA
ATOM     62   O  ASG B   4      -6.986  16.937  57.1000  0.00  0.00     0.000 OA
ATOM     63   O  ASG B   4      -5.881  18.328  58.7010  0.00  0.00     0.000 OA
ATOM     64   S  ASG B   4      -6.051  17.980  57.2870  0.00  0.00     0.000 S
ENDBRANCH 52 60
ATOM     65   O  ASG B   4      -1.617  19.405  59.8220  0.00  0.00     0.000 O
ATOM     67  HD  ASG B   4      -1.396  18.632  60.1440  0.00  0.00     0.000 HD
ATOM     67   O  ASG B   4      -1.617  19.405  59.8220  0.00  0.00     0.000 O
ATOM     69  HD  ASG B   4      -1.396  18.632  60.1440  0.00  0.00     0.000 HD
ENDBRANCH 48 51
ENDBRANCH 35 48
ENDBRANCH 34 38
ENDBRANCH 15 34
ENDBRANCH 14 17
ENDBRANCH 1 14
TORSDOF 12
ENDMDL
MODEL 62
REMARK VINA RESULT:      -7.5     20.573     25.630
ROOT
ATOM      1  C1  GAD B   1       5.141  55.747  62.2730  0.00  0.00     0.000 C
ATOM      2  C2  GAD B   1       3.767  55.267  62.7510  0.00  0.00     0.000 C
ATOM      3  C3  GAD B   1       2.722  55.480  61.6490  0.00  0.00     0.000 C
ATOM      4  C4  GAD B   1       2.981  56.695  60.7550  0.00  0.00     0.000 C
ATOM      5  C5  GAD B   1       4.100  57.445  60.7980  0.00  0.00     0.000 C
ATOM      6  O5  GAD B   1       5.088  57.096  61.7860  0.00  0.00     0.000 O
ATOM      7   O  GAD B   1       3.820  53.872  63.2270  0.00  0.00     0.000 O
ATOM      9  HD  GAD B   1       4.668  54.048  63.2170  0.00  0.00     0.000 HD
ATOM      9   O  GAD B   1       1.399  55.662  62.2000  0.00  0.00     0.000 O
ATOM     11  HD  GAD B   1       2.246  55.839  62.1890  0.00  0.00     0.000 HD
ENDROOT
BRANCH 5 11
ATOM     11   C  GAD B   1       4.407  58.556  59.8670  0.00  0.00     0.000 C
ATOM     12   O  GAD B   1       5.090  59.522  60.3300  0.00  0.00     0.000 OA
ATOM     13   O  GAD B   1       3.921  58.555  58.6770  0.00  0.00     0.000 OA
ENDBRANCH 5 11
BRANCH 1 14
ATOM     14  O3  ASG B   2       6.149  56.082  63.1000  0.00  0.00     0.000 O
BRANCH 14 17
ATOM     15  C1  ASG B   2       8.075  54.695  66.0400  0.00  0.00     0.000 C
ATOM     16  C2  ASG B   2       7.092  55.621  65.3100  0.00  0.00     0.000 C
ATOM     17  C3  ASG B   2       7.057  55.245  63.8260  0.00  0.00     0.000 C
ATOM     18  C4  ASG B   2       8.447  55.362  63.2290  0.00  0.00     0.000 C
ATOM     19  C5  ASG B   2       9.417  54.526  64.0570  0.00  0.00     0.000 C
ATOM     20  O5  ASG B   2       9.340  54.911  65.4440  0.00  0.00     0.000 O
ATOM     21   C  ASG B   2      10.841  54.712  63.6430  0.00  0.00     0.000 C
ATOM     22   O  ASG B   2      11.684  54.084  64.5770  0.00  0.00     0.000 O
ATOM     24  HD  ASG B   2      12.316  53.745  65.0640  0.00  0.00     0.000 HD
BRANCH 16 26
ATOM     24   N  ASG B   2       5.761  55.653  65.8700  0.00  0.00     0.000 N
ATOM     26  HD  ASG B   2       6.455  55.440  66.3410  0.00  0.00     0.000 HD
ATOM     26   C  ASG B   2       4.987  56.754  65.9090  0.00  0.00     0.000 C
ATOM     27   C  ASG B   2       3.543  56.529  66.2000  0.00  0.00     0.000 C
ATOM     28   O  ASG B   2       5.447  57.872  65.7170  0.00  0.00     0.000 OA
ENDBRANCH 16 26
BRANCH 18 29
ATOM     29   O  ASG B   2       8.782  56.793  63.2310  0.00  0.00     0.000 O
ATOM     30   O  ASG B   2      10.208  56.668  61.2320  0.00  0.00     0.000 OA
ATOM     31   O  ASG B   2       8.006  57.679  61.0870  0.00  0.00     0.000 OA
ATOM     32   O  ASG B   2       9.771  58.794  62.3060  0.00  0.00     0.000 OA
ATOM     33   S  ASG B   2       9.214  57.516  61.8620  0.00  0.00     0.000 S
ENDBRANCH 18 29
BRANCH 15 34
ATOM     34  O4  ASG B   3       8.177  54.953  67.4110  0.00  0.00     0.000 O
BRANCH 34 38
ATOM     35  C1  GCT B   3       7.729  53.745  71.2460  0.00  0.00     0.000 C
ATOM     36  C2  GCT B   3       9.055  53.358  70.6290  0.00  0.00     0.000 C
ATOM     37  C3  GCT B   3       9.339  54.190  69.3870  0.00  0.00     0.000 C
ATOM     38  C4  GCT B   3       8.219  53.966  68.3640  0.00  0.00     0.000 C
ATOM     39  C5  GCT B   3       6.849  53.741  69.0430  0.00  0.00     0.000 C
ATOM     40  O5  GCT B   3       6.904  54.406  70.2930  0.00  0.00     0.000 O
ATOM     41   O  GCT B   3      10.045  53.597  71.6200  0.00  0.00     0.000 O
ATOM     43  HD  GCT B   3      10.274  53.158  72.3300  0.00  0.00     0.000 HD
ATOM     43   O  GCT B   3      10.642  53.831  68.8810  0.00  0.00     0.000 O
ATOM     45  HD  GCT B   3      10.871  53.393  69.5920  0.00  0.00     0.000 HD
BRANCH 39 45
ATOM     45   C  GCT B   3       6.375  52.320  69.2530  0.00  0.00     0.000 C
ATOM     46   O  GCT B   3       5.368  52.098  69.9960  0.00  0.00     0.000 OA
ATOM     47   O  GCT B   3       6.992  51.413  68.6700  0.00  0.00     0.000 OA
ENDBRANCH 39 45
BRANCH 35 48
ATOM     48  O3  ASG B   4       7.388  52.847  72.1450  0.00  0.00     0.000 O
BRANCH 48 51
ATOM     49  C1  ASG B   4       7.103  52.774  75.8330  0.00  0.00     0.000 C
ATOM     50  C2  ASG B   4       7.423  52.320  74.3990  0.00  0.00     0.000 C
ATOM     51  C3  ASG B   4       7.292  53.475  73.4110  0.00  0.00     0.000 C
ATOM     52  C4  ASG B   4       5.964  54.196  73.5810  0.00  0.00     0.000 C
ATOM     53  C5  ASG B   4       5.834  54.613  75.0430  0.00  0.00     0.000 C
ATOM     54  O5  ASG B   4       5.848  53.434  75.8730  0.00  0.00     0.000 O
BRANCH 50 57
ATOM     55   N  ASG B   4       8.685  51.713  74.0430  0.00  0.00     0.000 N
ATOM     57  HD  ASG B   4       8.666  51.064  74.6170  0.00  0.00     0.000 HD
ATOM     57   O  ASG B   4       8.106  49.657  74.7160  0.00  0.00     0.000 OA
ATOM     58   C  ASG B   4       8.894  50.396  74.1340  0.00  0.00     0.000 C
ATOM     59   C  ASG B   4      10.171  49.900  73.5280  0.00  0.00     0.000 C
ENDBRANCH 50 57
BRANCH 52 60
ATOM     60   O  ASG B   4       4.964  53.193  73.1320  0.00  0.00     0.000 O
ATOM     61   O  ASG B   4       3.554  54.915  72.0020  0.00  0.00     0.000 OA
ATOM     62   O  ASG B   4       2.997  52.609  71.8010  0.00  0.00     0.000 OA
ATOM     63   O  ASG B   4       2.875  53.655  73.9480  0.00  0.00     0.000 OA
ATOM     64   S  ASG B   4       3.509  53.636  72.6270  0.00  0.00     0.000 S
ENDBRANCH 52 60
ATOM     65   O  ASG B   4       4.689  56.034  76.6400  0.00  0.00     0.000 O
ATOM     67  HD  ASG B   4       4.587  55.359  77.1730  0.00  0.00     0.000 HD
ATOM     67   O  ASG B   4       4.689  56.034  76.6400  0.00  0.00     0.000 O
ATOM     69  HD  ASG B   4       4.587  55.359  77.1730  0.00  0.00     0.000 HD
ENDBRANCH 48 51
ENDBRANCH 35 48
ENDBRANCH 34 38
ENDBRANCH 15 34
ENDBRANCH 14 17
ENDBRANCH 1 14
TORSDOF 12
ENDMDL
MODEL 63
REMARK VINA RESULT:      -7.5     13.485     18.144
ROOT
ATOM      1  C1  GAD B   1      10.066  48.176  83.5350  0.00  0.00     0.000 C
ATOM      2  C2  GAD B   1      10.718  49.561  83.4810  0.00  0.00     0.000 C
ATOM      3  C3  GAD B   1      10.156  50.451  84.5960  0.00  0.00     0.000 C
ATOM      4  C4  GAD B   1       8.697  50.167  84.9610  0.00  0.00     0.000 C
ATOM      5  C5  GAD B   1       7.983  49.129  84.4810  0.00  0.00     0.000 C
ATOM      6  O5  GAD B   1       8.633  48.268  83.5270  0.00  0.00     0.000 O
ATOM      7   O  GAD B   1      12.190  49.464  83.5140  0.00  0.00     0.000 O
ATOM      9  HD  GAD B   1      12.000  48.640  83.3250  0.00  0.00     0.000 HD
ATOM      9   O  GAD B   1      10.214  51.850  84.2380  0.00  0.00     0.000 O
ATOM     11  HD  GAD B   1      10.024  51.027  84.0490  0.00  0.00     0.000 HD
ENDROOT
BRANCH 5 11
ATOM     11   C  GAD B   1       6.607  48.783  84.9070  0.00  0.00     0.000 C
ATOM     12   O  GAD B   1       6.429  48.551  86.1440  0.00  0.00     0.000 OA
ATOM     13   O  GAD B   1       5.673  48.650  84.0330  0.00  0.00     0.000 OA
ENDBRANCH 5 11
BRANCH 1 14
ATOM     14  O3  ASG B   2      10.020  47.326  82.4920  0.00  0.00     0.000 O
BRANCH 14 17
ATOM     15  C1  ASG B   2       9.171  43.698  81.8670  0.00  0.00     0.000 C
ATOM     16  C2  ASG B   2      10.082  44.917  82.0700  0.00  0.00     0.000 C
ATOM     17  C3  ASG B   2       9.214  46.159  82.2930  0.00  0.00     0.000 C
ATOM     18  C4  ASG B   2       8.295  46.370  81.1050  0.00  0.00     0.000 C
ATOM     19  C5  ASG B   2       7.497  45.093  80.8600  0.00  0.00     0.000 C
ATOM     20  O5  ASG B   2       8.392  43.972  80.7170  0.00  0.00     0.000 O
ATOM     21   C  ASG B   2       6.684  45.150  79.6060  0.00  0.00     0.000 C
ATOM     22   O  ASG B   2       6.152  43.876  79.3370  0.00  0.00     0.000 O
ATOM     24  HD  ASG B   2       5.761  43.158  79.0520  0.00  0.00     0.000 HD
BRANCH 16 26
ATOM     24   N  ASG B   2      11.064  44.768  83.1190  0.00  0.00     0.000 N
ATOM     26  HD  ASG B   2      10.725  44.088  82.7030  0.00  0.00     0.000 HD
ATOM     26   C  ASG B   2      12.304  45.289  83.0680  0.00  0.00     0.000 C
ATOM     27   C  ASG B   2      13.049  45.333  84.3580  0.00  0.00     0.000 C
ATOM     28   O  ASG B   2      12.787  45.703  82.0210  0.00  0.00     0.000 OA
ENDBRANCH 16 26
BRANCH 18 29
ATOM     29   O  ASG B   2       9.156  46.731  79.9710  0.00  0.00     0.000 O
ATOM     30   O  ASG B   2       7.457  48.122  78.8640  0.00  0.00     0.000 OA
ATOM     31   O  ASG B   2       9.331  49.170  79.9970  0.00  0.00     0.000 OA
ATOM     32   O  ASG B   2       9.691  47.939  77.9480  0.00  0.00     0.000 OA
ATOM     33   S  ASG B   2       8.879  48.088  79.1550  0.00  0.00     0.000 S
ENDBRANCH 18 29
BRANCH 15 34
ATOM     34  O4  ASG B   3       9.869  42.503  81.6580  0.00  0.00     0.000 O
BRANCH 34 38
ATOM     35  C1  GCT B   3       9.514  38.483  81.9370  0.00  0.00     0.000 C
ATOM     36  C2  GCT B   3       9.651  38.993  80.5180  0.00  0.00     0.000 C
ATOM     37  C3  GCT B   3      10.208  40.409  80.5030  0.00  0.00     0.000 C
ATOM     38  C4  GCT B   3       9.263  41.331  81.2840  0.00  0.00     0.000 C
ATOM     39  C5  GCT B   3       8.597  40.604  82.4740  0.00  0.00     0.000 C
ATOM     40  O5  GCT B   3       9.481  39.566  82.8600  0.00  0.00     0.000 O
ATOM     41   O  GCT B   3      10.540  38.106  79.8550  0.00  0.00     0.000 O
ATOM     43  HD  GCT B   3      10.434  37.309  79.5340  0.00  0.00     0.000 HD
ATOM     43   O  GCT B   3      10.382  40.819  79.1300  0.00  0.00     0.000 O
ATOM     45  HD  GCT B   3      10.276  40.022  78.8090  0.00  0.00     0.000 HD
BRANCH 39 45
ATOM     45   C  GCT B   3       7.209  40.033  82.2820  0.00  0.00     0.000 C
ATOM     46   O  GCT B   3       6.616  40.185  81.1680  0.00  0.00     0.000 OA
ATOM     47   O  GCT B   3       6.700  39.416  83.2330  0.00  0.00     0.000 OA
ENDBRANCH 39 45
BRANCH 35 48
ATOM     48  O3  ASG B   4       8.796  37.381  81.9360  0.00  0.00     0.000 O
BRANCH 48 51
ATOM     49  C1  ASG B   4       9.476  33.746  82.0360  0.00  0.00     0.000 C
ATOM     50  C2  ASG B   4       8.718  35.069  81.8390  0.00  0.00     0.000 C
ATOM     51  C3  ASG B   4       9.666  36.263  81.9020  0.00  0.00     0.000 C
ATOM     52  C4  ASG B   4      10.549  36.201  83.1370  0.00  0.00     0.000 C
ATOM     53  C5  ASG B   4      11.254  34.847  83.1480  0.00  0.00     0.000 C
ATOM     54  O5  ASG B   4      10.266  33.801  83.2120  0.00  0.00     0.000 O
BRANCH 50 57
ATOM     55   N  ASG B   4       7.776  35.655  80.9130  0.00  0.00     0.000 N
ATOM     57  HD  ASG B   4       7.293  34.950  80.7790  0.00  0.00     0.000 HD
ATOM     57   O  ASG B   4       6.108  34.249  81.4180  0.00  0.00     0.000 OA
ATOM     58   C  ASG B   4       6.500  35.263  80.8490  0.00  0.00     0.000 C
ATOM     59   C  ASG B   4       5.604  36.109  79.9970  0.00  0.00     0.000 C
ENDBRANCH 50 57
BRANCH 52 60
ATOM     60   O  ASG B   4       9.596  36.410  84.2570  0.00  0.00     0.000 O
ATOM     61   O  ASG B   4      11.047  38.126  85.3430  0.00  0.00     0.000 OA
ATOM     62   O  ASG B   4       8.887  37.667  86.2320  0.00  0.00     0.000 OA
ATOM     63   O  ASG B   4      10.557  35.956  86.2860  0.00  0.00     0.000 OA
ATOM     64   S  ASG B   4      10.044  37.150  85.6070  0.00  0.00     0.000 S
ENDBRANCH 52 60
ATOM     65   O  ASG B   4      13.078  33.532  84.0570  0.00  0.00     0.000 O
ATOM     67  HD  ASG B   4      12.536  32.873  84.1990  0.00  0.00     0.000 HD
ATOM     67   O  ASG B   4      13.078  33.532  84.0570  0.00  0.00     0.000 O
ATOM     69  HD  ASG B   4      12.536  32.873  84.1990  0.00  0.00     0.000 HD
ENDBRANCH 48 51
ENDBRANCH 35 48
ENDBRANCH 34 38
ENDBRANCH 15 34
ENDBRANCH 14 17
ENDBRANCH 1 14
TORSDOF 12
ENDMDL
MODEL 64
REMARK VINA RESULT:      -7.5     24.366     29.523
ROOT
ATOM      1  C1  GAD B   1     -22.722  23.580  63.3630  0.00  0.00     0.000 C
ATOM      2  C2  GAD B   1     -22.315  24.478  64.5360  0.00  0.00     0.000 C
ATOM      3  C3  GAD B   1     -23.008  25.840  64.4210  0.00  0.00     0.000 C
ATOM      4  C4  GAD B   1     -23.256  26.308  62.9840  0.00  0.00     0.000 C
ATOM      5  C5  GAD B   1     -23.044  25.548  61.8910  0.00  0.00     0.000 C
ATOM      6  O5  GAD B   1     -22.504  24.230  62.1010  0.00  0.00     0.000 O
ATOM      7   O  GAD B   1     -22.564  23.816  65.8310  0.00  0.00     0.000 O
ATOM      9  HD  GAD B   1     -22.624  23.128  65.3080  0.00  0.00     0.000 HD
ATOM      9   O  GAD B   1     -22.235  26.885  65.0540  0.00  0.00     0.000 O
ATOM     11  HD  GAD B   1     -22.295  26.196  64.5320  0.00  0.00     0.000 HD
ENDROOT
BRANCH 5 11
ATOM     11   C  GAD B   1     -23.380  25.952  60.5060  0.00  0.00     0.000 C
ATOM     12   O  GAD B   1     -24.548  26.410  60.3070  0.00  0.00     0.000 OA
ATOM     13   O  GAD B   1     -22.536  25.758  59.5540  0.00  0.00     0.000 OA
ENDBRANCH 5 11
BRANCH 1 14
ATOM     14  O3  ASG B   2     -22.006  22.520  62.9440  0.00  0.00     0.000 O
BRANCH 14 17
ATOM     15  C1  ASG B   2     -20.480  21.136  59.7760  0.00  0.00     0.000 C
ATOM     16  C2  ASG B   2     -21.474  21.215  60.9430  0.00  0.00     0.000 C
ATOM     17  C3  ASG B   2     -21.103  22.401  61.8380  0.00  0.00     0.000 C
ATOM     18  C4  ASG B   2     -19.685  22.237  62.3530  0.00  0.00     0.000 C
ATOM     19  C5  ASG B   2     -18.745  22.037  61.1690  0.00  0.00     0.000 C
ATOM     20  O5  ASG B   2     -19.204  20.939  60.3550  0.00  0.00     0.000 O
ATOM     21   C  ASG B   2     -17.350  21.701  61.5880  0.00  0.00     0.000 C
ATOM     22   O  ASG B   2     -16.602  21.324  60.4580  0.00  0.00     0.000 O
ATOM     24  HD  ASG B   2     -16.027  21.076  59.8600  0.00  0.00     0.000 HD
BRANCH 16 26
ATOM     24   N  ASG B   2     -22.865  21.281  60.5560  0.00  0.00     0.000 N
ATOM     26  HD  ASG B   2     -22.258  20.935  60.0440  0.00  0.00     0.000 HD
ATOM     26   C  ASG B   2     -23.865  20.694  61.2390  0.00  0.00     0.000 C
ATOM     27   C  ASG B   2     -25.244  21.145  60.8990  0.00  0.00     0.000 C
ATOM     28   O  ASG B   2     -23.649  19.840  62.0900  0.00  0.00     0.000 OA
ENDBRANCH 16 26
BRANCH 18 29
ATOM     29   O  ASG B   2     -19.704  21.087  63.2670  0.00  0.00     0.000 O
ATOM     30   O  ASG B   2     -17.957  21.979  64.7490  0.00  0.00     0.000 OA
ATOM     31   O  ASG B   2     -20.274  21.977  65.4730  0.00  0.00     0.000 OA
ATOM     32   O  ASG B   2     -19.069  19.892  65.2690  0.00  0.00     0.000 OA
ATOM     33   S  ASG B   2     -19.219  21.266  64.7890  0.00  0.00     0.000 S
ENDBRANCH 18 29
BRANCH 15 34
ATOM     34  O4  ASG B   3     -20.736  20.084  58.8910  0.00  0.00     0.000 O
BRANCH 34 38
ATOM     35  C1  GCT B   3     -18.940  21.771  55.6830  0.00  0.00     0.000 C
ATOM     36  C2  GCT B   3     -20.451  21.753  55.6040  0.00  0.00     0.000 C
ATOM     37  C3  GCT B   3     -21.063  21.523  56.9780  0.00  0.00     0.000 C
ATOM     38  C4  GCT B   3     -20.567  20.182  57.5330  0.00  0.00     0.000 C
ATOM     39  C5  GCT B   3     -19.118  19.872  57.0930  0.00  0.00     0.000 C
ATOM     40  O5  GCT B   3     -18.489  21.121  56.8660  0.00  0.00     0.000 O
ATOM     41   O  GCT B   3     -20.843  23.020  55.0950  0.00  0.00     0.000 O
ATOM     43  HD  GCT B   3     -20.828  23.355  54.2970  0.00  0.00     0.000 HD
ATOM     43   O  GCT B   3     -22.499  21.584  56.8580  0.00  0.00     0.000 O
ATOM     45  HD  GCT B   3     -22.485  21.920  56.0600  0.00  0.00     0.000 HD
BRANCH 39 45
ATOM     45   C  GCT B   3     -18.907  18.980  55.8900  0.00  0.00     0.000 C
ATOM     46   O  GCT B   3     -19.912  18.573  55.2260  0.00  0.00     0.000 OA
ATOM     47   O  GCT B   3     -17.739  18.687  55.5850  0.00  0.00     0.000 OA
ENDBRANCH 39 45
BRANCH 35 48
ATOM     48  O3  ASG B   4     -18.439  21.706  54.4680  0.00  0.00     0.000 O
BRANCH 48 51
ATOM     49  C1  ASG B   4     -16.436  24.133  52.5220  0.00  0.00     0.000 C
ATOM     50  C2  ASG B   4     -17.612  23.233  52.9370  0.00  0.00     0.000 C
ATOM     51  C3  ASG B   4     -17.409  22.670  54.3410  0.00  0.00     0.000 C
ATOM     52  C4  ASG B   4     -16.032  22.044  54.4880  0.00  0.00     0.000 C
ATOM     53  C5  ASG B   4     -14.992  23.083  54.0800  0.00  0.00     0.000 C
ATOM     54  O5  ASG B   4     -15.206  23.450  52.7030  0.00  0.00     0.000 O
BRANCH 50 57
ATOM     55   N  ASG B   4     -18.729  24.138  52.7910  0.00  0.00     0.000 N
ATOM     57  HD  ASG B   4     -18.737  24.172  51.9260  0.00  0.00     0.000 HD
ATOM     57   O  ASG B   4     -19.324  23.387  50.7680  0.00  0.00     0.000 OA
ATOM     58   C  ASG B   4     -19.569  24.074  51.7540  0.00  0.00     0.000 C
ATOM     59   C  ASG B   4     -20.792  24.933  51.8570  0.00  0.00     0.000 C
ENDBRANCH 50 57
BRANCH 52 60
ATOM     60   O  ASG B   4     -16.095  20.852  53.6030  0.00  0.00     0.000 O
ATOM     61   O  ASG B   4     -14.421  19.594  54.9620  0.00  0.00     0.000 OA
ATOM     62   O  ASG B   4     -15.517  18.521  53.1410  0.00  0.00     0.000 OA
ATOM     63   O  ASG B   4     -14.050  20.357  52.7000  0.00  0.00     0.000 OA
ATOM     64   S  ASG B   4     -14.964  19.717  53.6510  0.00  0.00     0.000 S
ENDBRANCH 52 60
ATOM     65   O  ASG B   4     -12.658  23.738  54.1580  0.00  0.00     0.000 O
ATOM     67  HD  ASG B   4     -12.676  23.916  53.3100  0.00  0.00     0.000 HD
ATOM     67   O  ASG B   4     -12.658  23.738  54.1580  0.00  0.00     0.000 O
ATOM     69  HD  ASG B   4     -12.676  23.916  53.3100  0.00  0.00     0.000 HD
ENDBRANCH 48 51
ENDBRANCH 35 48
ENDBRANCH 34 38
ENDBRANCH 15 34
ENDBRANCH 14 17
ENDBRANCH 1 14
TORSDOF 12
ENDMDL
MODEL 65
REMARK VINA RESULT:      -7.5     14.129     18.370
ROOT
ATOM      1  C1  GAD B   1       7.234  46.051  77.8360  0.00  0.00     0.000 C
ATOM      2  C2  GAD B   1       5.907  45.496  78.3620  0.00  0.00     0.000 C
ATOM      3  C3  GAD B   1       4.773  45.831  77.3860  0.00  0.00     0.000 C
ATOM      4  C4  GAD B   1       4.951  47.153  76.6350  0.00  0.00     0.000 C
ATOM      5  C5  GAD B   1       6.068  47.907  76.6790  0.00  0.00     0.000 C
ATOM      6  O5  GAD B   1       7.137  47.450  77.5300  0.00  0.00     0.000 O
ATOM      7   O  GAD B   1       6.005  44.053  78.6510  0.00  0.00     0.000 O
ATOM      9  HD  GAD B   1       6.848  44.241  78.5930  0.00  0.00     0.000 HD
ATOM      9   O  GAD B   1       3.500  45.925  78.0640  0.00  0.00     0.000 O
ATOM     11  HD  GAD B   1       4.343  46.113  78.0050  0.00  0.00     0.000 HD
ENDROOT
BRANCH 5 11
ATOM     11   C  GAD B   1       6.292  49.131  75.8750  0.00  0.00     0.000 C
ATOM     12   O  GAD B   1       6.307  48.994  74.6120  0.00  0.00     0.000 OA
ATOM     13   O  GAD B   1       6.539  50.251  76.4570  0.00  0.00     0.000 OA
ENDBRANCH 5 11
BRANCH 1 14
ATOM     14  O3  ASG B   2       8.308  46.293  78.6110  0.00  0.00     0.000 O
BRANCH 14 17
ATOM     15  C1  ASG B   2      11.011  44.473  80.5240  0.00  0.00     0.000 C
ATOM     16  C2  ASG B   2       9.757  45.338  80.3370  0.00  0.00     0.000 C
ATOM     17  C3  ASG B   2       9.475  45.494  78.8390  0.00  0.00     0.000 C
ATOM     18  C4  ASG B   2      10.668  46.128  78.1500  0.00  0.00     0.000 C
ATOM     19  C5  ASG B   2      11.917  45.309  78.4630  0.00  0.00     0.000 C
ATOM     20  O5  ASG B   2      12.069  45.167  79.8900  0.00  0.00     0.000 O
ATOM     21   C  ASG B   2      13.171  45.950  77.9630  0.00  0.00     0.000 C
ATOM     22   O  ASG B   2      14.284  45.255  78.4690  0.00  0.00     0.000 O
ATOM     24  HD  ASG B   2      15.051  44.927  78.7020  0.00  0.00     0.000 HD
BRANCH 16 26
ATOM     24   N  ASG B   2       8.818  46.144  81.0830  0.00  0.00     0.000 N
ATOM     26  HD  ASG B   2       9.034  46.325  80.2640  0.00  0.00     0.000 HD
ATOM     26   C  ASG B   2       7.665  45.676  81.5950  0.00  0.00     0.000 C
ATOM     27   C  ASG B   2       7.000  46.540  82.6110  0.00  0.00     0.000 C
ATOM     28   O  ASG B   2       7.194  44.601  81.2450  0.00  0.00     0.000 OA
ENDBRANCH 16 26
BRANCH 18 29
ATOM     29   O  ASG B   2      10.753  47.508  78.6470  0.00  0.00     0.000 O
ATOM     30   O  ASG B   2      11.903  48.370  76.6530  0.00  0.00     0.000 OA
ATOM     31   O  ASG B   2       9.562  48.893  77.0220  0.00  0.00     0.000 OA
ATOM     32   O  ASG B   2      11.257  49.862  78.4470  0.00  0.00     0.000 OA
ATOM     33   S  ASG B   2      10.871  48.728  77.6080  0.00  0.00     0.000 S
ENDBRANCH 18 29
BRANCH 15 34
ATOM     34  O4  ASG B   3      11.354  44.264  81.8640  0.00  0.00     0.000 O
BRANCH 34 38
ATOM     35  C1  GCT B   3       9.632  40.694  82.6730  0.00  0.00     0.000 C
ATOM     36  C2  GCT B   3      10.176  41.406  83.8930  0.00  0.00     0.000 C
ATOM     37  C3  GCT B   3      10.402  42.883  83.6020  0.00  0.00     0.000 C
ATOM     38  C4  GCT B   3      11.400  43.022  82.4460  0.00  0.00     0.000 C
ATOM     39  C5  GCT B   3      11.255  41.880  81.4150  0.00  0.00     0.000 C
ATOM     40  O5  GCT B   3       9.913  41.434  81.4900  0.00  0.00     0.000 O
ATOM     41   O  GCT B   3       9.205  41.248  84.9180  0.00  0.00     0.000 O
ATOM     43  HD  GCT B   3       9.003  40.578  85.4280  0.00  0.00     0.000 HD
ATOM     43   O  GCT B   3      10.853  43.526  84.8130  0.00  0.00     0.000 O
ATOM     45  HD  GCT B   3      10.650  42.856  85.3230  0.00  0.00     0.000 HD
BRANCH 39 45
ATOM     45   C  GCT B   3      12.184  40.691  81.5240  0.00  0.00     0.000 C
ATOM     46   O  GCT B   3      12.087  39.740  80.6860  0.00  0.00     0.000 OA
ATOM     47   O  GCT B   3      13.028  40.698  82.4350  0.00  0.00     0.000 OA
ENDBRANCH 39 45
BRANCH 35 48
ATOM     48  O3  ASG B   4       9.696  39.394  82.8640  0.00  0.00     0.000 O
BRANCH 48 51
ATOM     49  C1  ASG B   4       6.853  37.026  82.8050  0.00  0.00     0.000 C
ATOM     50  C2  ASG B   4       7.947  37.958  83.3540  0.00  0.00     0.000 C
ATOM     51  C3  ASG B   4       8.583  38.780  82.2360  0.00  0.00     0.000 C
ATOM     52  C4  ASG B   4       9.008  37.896  81.0760  0.00  0.00     0.000 C
ATOM     53  C5  ASG B   4       7.798  37.079  80.6330  0.00  0.00     0.000 C
ATOM     54  O5  ASG B   4       7.359  36.253  81.7290  0.00  0.00     0.000 O
BRANCH 50 57
ATOM     55   N  ASG B   4       9.006  37.381  84.1490  0.00  0.00     0.000 N
ATOM     57  HD  ASG B   4       8.797  37.750  84.9040  0.00  0.00     0.000 HD
ATOM     57   O  ASG B   4       7.876  37.483  86.0790  0.00  0.00     0.000 OA
ATOM     58   C  ASG B   4       8.848  37.089  85.4440  0.00  0.00     0.000 C
ATOM     59   C  ASG B   4       9.958  36.302  86.0700  0.00  0.00     0.000 C
ENDBRANCH 50 57
BRANCH 52 60
ATOM     60   O  ASG B   4      10.123  37.093  81.6420  0.00  0.00     0.000 O
ATOM     61   O  ASG B   4      11.103  36.631  79.3930  0.00  0.00     0.000 OA
ATOM     62   O  ASG B   4      12.247  35.915  81.3550  0.00  0.00     0.000 OA
ATOM     63   O  ASG B   4      10.123  34.952  80.8280  0.00  0.00     0.000 OA
ATOM     64   S  ASG B   4      11.002  36.120  80.7190  0.00  0.00     0.000 S
ENDBRANCH 52 60
ATOM     65   O  ASG B   4       6.814  35.722  78.8800  0.00  0.00     0.000 O
ATOM     67  HD  ASG B   4       6.574  35.132  79.4670  0.00  0.00     0.000 HD
ATOM     67   O  ASG B   4       6.814  35.722  78.8800  0.00  0.00     0.000 O
ATOM     69  HD  ASG B   4       6.574  35.132  79.4670  0.00  0.00     0.000 HD
ENDBRANCH 48 51
ENDBRANCH 35 48
ENDBRANCH 34 38
ENDBRANCH 15 34
ENDBRANCH 14 17
ENDBRANCH 1 14
TORSDOF 12
ENDMDL
MODEL 66
REMARK VINA RESULT:      -7.5      3.625      6.493
ROOT
ATOM      1  C1  GAD B   1      -0.278  33.815  77.1740  0.00  0.00     0.000 C
ATOM      2  C2  GAD B   1       1.097  34.461  77.3680  0.00  0.00     0.000 C
ATOM      3  C3  GAD B   1       2.068  33.967  76.2890  0.00  0.00     0.000 C
ATOM      4  C4  GAD B   1       1.815  32.533  75.8160  0.00  0.00     0.000 C
ATOM      5  C5  GAD B   1       0.748  31.792  76.1750  0.00  0.00     0.000 C
ATOM      6  O5  GAD B   1      -0.183  32.384  77.1010  0.00  0.00     0.000 O
ATOM      7   O  GAD B   1       0.997  35.932  77.4180  0.00  0.00     0.000 O
ATOM      9  HD  GAD B   1       0.163  35.732  77.5340  0.00  0.00     0.000 HD
ATOM      9   O  GAD B   1       3.437  34.001  76.7510  0.00  0.00     0.000 O
ATOM     11  HD  GAD B   1       2.602  33.800  76.8680  0.00  0.00     0.000 HD
ENDROOT
BRANCH 5 11
ATOM     11   C  GAD B   1       0.438  30.445  75.6410  0.00  0.00     0.000 C
ATOM     12   O  GAD B   1       0.203  30.360  74.3960  0.00  0.00     0.000 OA
ATOM     13   O  GAD B   1       0.338  29.441  76.4390  0.00  0.00     0.000 OA
ENDBRANCH 5 11
BRANCH 1 14
ATOM     14  O3  ASG B   2      -1.202  33.706  78.1470  0.00  0.00     0.000 O
BRANCH 14 17
ATOM     15  C1  ASG B   2      -4.539  31.981  78.5530  0.00  0.00     0.000 C
ATOM     16  C2  ASG B   2      -3.581  33.145  78.2630  0.00  0.00     0.000 C
ATOM     17  C3  ASG B   2      -2.138  32.654  78.4120  0.00  0.00     0.000 C
ATOM     18  C4  ASG B   2      -1.916  32.115  79.8120  0.00  0.00     0.000 C
ATOM     19  C5  ASG B   2      -2.966  31.049  80.1080  0.00  0.00     0.000 C
ATOM     20  O5  ASG B   2      -4.286  31.583  79.8870  0.00  0.00     0.000 O
ATOM     21   C  ASG B   2      -2.929  30.578  81.5260  0.00  0.00     0.000 C
ATOM     22   O  ASG B   2      -4.049  29.765  81.7760  0.00  0.00     0.000 O
ATOM     24  HD  ASG B   2      -4.681  29.250  82.0690  0.00  0.00     0.000 HD
BRANCH 16 26
ATOM     24   N  ASG B   2      -3.752  33.786  76.9790  0.00  0.00     0.000 N
ATOM     26  HD  ASG B   2      -4.388  33.339  77.3610  0.00  0.00     0.000 HD
ATOM     26   C  ASG B   2      -3.620  35.110  76.7760  0.00  0.00     0.000 C
ATOM     27   C  ASG B   2      -3.492  35.545  75.3560  0.00  0.00     0.000 C
ATOM     28   O  ASG B   2      -3.607  35.906  77.7060  0.00  0.00     0.000 OA
ENDBRANCH 16 26
BRANCH 18 29
ATOM     29   O  ASG B   2      -2.001  33.267  80.7210  0.00  0.00     0.000 O
ATOM     30   O  ASG B   2      -0.309  32.413  82.2860  0.00  0.00     0.000 OA
ATOM     31   O  ASG B   2       0.238  34.247  80.7930  0.00  0.00     0.000 OA
ATOM     32   O  ASG B   2      -1.309  34.594  82.6180  0.00  0.00     0.000 OA
ATOM     33   S  ASG B   2      -0.750  33.643  81.6560  0.00  0.00     0.000 S
ENDBRANCH 18 29
BRANCH 15 34
ATOM     34  O4  ASG B   3      -5.891  32.324  78.4380  0.00  0.00     0.000 O
BRANCH 34 38
ATOM     35  C1  GCT B   3      -9.413  33.550  80.0050  0.00  0.00     0.000 C
ATOM     36  C2  GCT B   3      -8.352  34.628  79.9560  0.00  0.00     0.000 C
ATOM     37  C3  GCT B   3      -7.241  34.251  78.9870  0.00  0.00     0.000 C
ATOM     38  C4  GCT B   3      -6.603  32.932  79.4410  0.00  0.00     0.000 C
ATOM     39  C5  GCT B   3      -7.634  31.983  80.0920  0.00  0.00     0.000 C
ATOM     40  O5  GCT B   3      -8.895  32.311  79.5340  0.00  0.00     0.000 O
ATOM     41   O  GCT B   3      -9.003  35.814  79.5220  0.00  0.00     0.000 O
ATOM     43  HD  GCT B   3      -9.521  36.375  79.9310  0.00  0.00     0.000 HD
ATOM     43   O  GCT B   3      -6.295  35.339  78.9260  0.00  0.00     0.000 O
ATOM     45  HD  GCT B   3      -6.813  35.900  79.3350  0.00  0.00     0.000 HD
BRANCH 39 45
ATOM     45   C  GCT B   3      -7.744  31.967  81.6010  0.00  0.00     0.000 C
ATOM     46   O  GCT B   3      -8.525  31.137  82.1650  0.00  0.00     0.000 OA
ATOM     47   O  GCT B   3      -7.045  32.770  82.2400  0.00  0.00     0.000 OA
ENDBRANCH 39 45
BRANCH 35 48
ATOM     48  O3  ASG B   4     -10.211  33.771  81.0270  0.00  0.00     0.000 O
BRANCH 48 51
ATOM     49  C1  ASG B   4     -13.861  34.373  80.9300  0.00  0.00     0.000 C
ATOM     50  C2  ASG B   4     -12.352  34.653  81.0320  0.00  0.00     0.000 C
ATOM     51  C3  ASG B   4     -11.535  33.418  80.6640  0.00  0.00     0.000 C
ATOM     52  C4  ASG B   4     -12.018  32.192  81.4220  0.00  0.00     0.000 C
ATOM     53  C5  ASG B   4     -13.516  32.041  81.1750  0.00  0.00     0.000 C
ATOM     54  O5  ASG B   4     -14.197  33.211  81.6700  0.00  0.00     0.000 O
BRANCH 50 57
ATOM     55   N  ASG B   4     -13.477  35.554  81.1340  0.00  0.00     0.000 N
ATOM     57  HD  ASG B   4     -13.139  36.093  81.7220  0.00  0.00     0.000 HD
ATOM     57   O  ASG B   4     -12.251  37.323  81.7530  0.00  0.00     0.000 OA
ATOM     58   C  ASG B   4     -13.326  36.858  81.3880  0.00  0.00     0.000 C
ATOM     59   C  ASG B   4     -14.562  37.692  81.2500  0.00  0.00     0.000 C
ENDBRANCH 50 57
BRANCH 52 60
ATOM     60   O  ASG B   4     -11.651  32.489  82.8310  0.00  0.00     0.000 O
ATOM     61   O  ASG B   4     -11.314  30.079  83.3860  0.00  0.00     0.000 OA
ATOM     62   O  ASG B   4     -10.795  31.750  85.0000  0.00  0.00     0.000 OA
ATOM     63   O  ASG B   4     -13.066  31.461  84.3100  0.00  0.00     0.000 OA
ATOM     64   S  ASG B   4     -11.650  31.342  83.9510  0.00  0.00     0.000 S
ENDBRANCH 52 60
ATOM     65   O  ASG B   4     -15.437  30.564  81.2770  0.00  0.00     0.000 O
ATOM     67  HD  ASG B   4     -15.903  31.192  81.6490  0.00  0.00     0.000 HD
ATOM     67   O  ASG B   4     -15.437  30.564  81.2770  0.00  0.00     0.000 O
ATOM     69  HD  ASG B   4     -15.903  31.192  81.6490  0.00  0.00     0.000 HD
ENDBRANCH 48 51
ENDBRANCH 35 48
ENDBRANCH 34 38
ENDBRANCH 15 34
ENDBRANCH 14 17
ENDBRANCH 1 14
TORSDOF 12
ENDMDL
MODEL 67
REMARK VINA RESULT:      -7.5     17.778     24.411
ROOT
ATOM      1  C1  GAD B   1       7.845  49.117  75.7820  0.00  0.00     0.000 C
ATOM      2  C2  GAD B   1       8.716  49.181  77.0400  0.00  0.00     0.000 C
ATOM      3  C3  GAD B   1       8.563  47.891  77.8530  0.00  0.00     0.000 C
ATOM      4  C4  GAD B   1       7.179  47.241  77.7590  0.00  0.00     0.000 C
ATOM      5  C5  GAD B   1       6.205  47.648  76.9210  0.00  0.00     0.000 C
ATOM      6  O5  GAD B   1       6.481  48.799  76.1000  0.00  0.00     0.000 O
ATOM      7   O  GAD B   1      10.121  49.484  76.7060  0.00  0.00     0.000 O
ATOM      9  HD  GAD B   1       9.749  49.703  75.9560  0.00  0.00     0.000 HD
ATOM      9   O  GAD B   1       8.803  48.118  79.2600  0.00  0.00     0.000 O
ATOM     11  HD  GAD B   1       8.431  48.337  78.5100  0.00  0.00     0.000 HD
ENDROOT
BRANCH 5 11
ATOM     11   C  GAD B   1       4.903  46.963  76.7450  0.00  0.00     0.000 C
ATOM     12   O  GAD B   1       4.297  46.600  77.8000  0.00  0.00     0.000 OA
ATOM     13   O  GAD B   1       4.472  46.688  75.5650  0.00  0.00     0.000 OA
ENDBRANCH 5 11
BRANCH 1 14
ATOM     14  O3  ASG B   2       7.435  50.200  75.0950  0.00  0.00     0.000 O
BRANCH 14 17
ATOM     15  C1  ASG B   2       6.936  50.882  71.4120  0.00  0.00     0.000 C
ATOM     16  C2  ASG B   2       7.701  50.812  72.7410  0.00  0.00     0.000 C
ATOM     17  C3  ASG B   2       6.764  50.287  73.8320  0.00  0.00     0.000 C
ATOM     18  C4  ASG B   2       5.555  51.194  73.9590  0.00  0.00     0.000 C
ATOM     19  C5  ASG B   2       4.895  51.338  72.5910  0.00  0.00     0.000 C
ATOM     20  O5  ASG B   2       5.863  51.782  71.6200  0.00  0.00     0.000 O
ATOM     21   C  ASG B   2       3.791  52.347  72.5840  0.00  0.00     0.000 C
ATOM     22   O  ASG B   2       3.379  52.577  71.2590  0.00  0.00     0.000 O
ATOM     24  HD  ASG B   2       3.026  52.814  70.5050  0.00  0.00     0.000 HD
BRANCH 16 26
ATOM     24   N  ASG B   2       8.965  50.126  72.6070  0.00  0.00     0.000 N
ATOM     26  HD  ASG B   2       8.626  50.599  71.9660  0.00  0.00     0.000 HD
ATOM     26   C  ASG B   2      10.035  50.359  73.3890  0.00  0.00     0.000 C
ATOM     27   C  ASG B   2      11.120  49.339  73.3390  0.00  0.00     0.000 C
ATOM     28   O  ASG B   2      10.109  51.354  74.1000  0.00  0.00     0.000 OA
ENDBRANCH 16 26
BRANCH 18 29
ATOM     29   O  ASG B   2       6.047  52.472  74.4910  0.00  0.00     0.000 O
ATOM     30   O  ASG B   2       4.033  52.924  75.8260  0.00  0.00     0.000 OA
ATOM     31   O  ASG B   2       6.084  52.230  76.9240  0.00  0.00     0.000 OA
ATOM     32   O  ASG B   2       5.934  54.422  75.9140  0.00  0.00     0.000 OA
ATOM     33   S  ASG B   2       5.479  53.031  75.8860  0.00  0.00     0.000 S
ENDBRANCH 18 29
BRANCH 15 34
ATOM     34  O4  ASG B   3       7.708  51.348  70.3430  0.00  0.00     0.000 O
BRANCH 34 38
ATOM     35  C1  GCT B   3       9.240  54.278  68.0120  0.00  0.00     0.000 C
ATOM     36  C2  GCT B   3       9.538  54.444  69.4860  0.00  0.00     0.000 C
ATOM     37  C3  GCT B   3       9.331  53.134  70.2320  0.00  0.00     0.000 C
ATOM     38  C4  GCT B   3       7.877  52.679  70.0570  0.00  0.00     0.000 C
ATOM     39  C5  GCT B   3       7.312  53.062  68.6700  0.00  0.00     0.000 C
ATOM     40  O5  GCT B   3       8.419  53.136  67.7890  0.00  0.00     0.000 O
ATOM     41   O  GCT B   3      10.895  54.854  69.5790  0.00  0.00     0.000 O
ATOM     43  HD  GCT B   3      11.282  55.616  69.4380  0.00  0.00     0.000 HD
ATOM     43   O  GCT B   3       9.695  53.329  71.6150  0.00  0.00     0.000 O
ATOM     45  HD  GCT B   3      10.082  54.091  71.4740  0.00  0.00     0.000 HD
BRANCH 39 45
ATOM     45   C  GCT B   3       6.494  54.329  68.5520  0.00  0.00     0.000 C
ATOM     46   O  GCT B   3       6.195  54.983  69.6000  0.00  0.00     0.000 OA
ATOM     47   O  GCT B   3       6.152  54.693  67.4150  0.00  0.00     0.000 OA
ENDBRANCH 39 45
BRANCH 35 48
ATOM     48  O3  ASG B   4       9.169  55.463  67.4460  0.00  0.00     0.000 O
BRANCH 48 51
ATOM     49  C1  ASG B   4      11.299  56.011  64.4700  0.00  0.00     0.000 C
ATOM     50  C2  ASG B   4      10.888  55.852  65.9430  0.00  0.00     0.000 C
ATOM     51  C3  ASG B   4       9.457  55.333  66.0640  0.00  0.00     0.000 C
ATOM     52  C4  ASG B   4       8.501  56.150  65.2110  0.00  0.00     0.000 C
ATOM     53  C5  ASG B   4       9.036  56.166  63.7820  0.00  0.00     0.000 C
ATOM     54  O5  ASG B   4      10.337  56.786  63.7720  0.00  0.00     0.000 O
BRANCH 50 57
ATOM     55   N  ASG B   4      12.064  55.035  66.1340  0.00  0.00     0.000 N
ATOM     57  HD  ASG B   4      12.638  55.678  66.2210  0.00  0.00     0.000 HD
ATOM     57   O  ASG B   4      13.176  56.574  67.3220  0.00  0.00     0.000 OA
ATOM     58   C  ASG B   4      13.085  55.424  66.9040  0.00  0.00     0.000 C
ATOM     59   C  ASG B   4      14.127  54.382  67.1730  0.00  0.00     0.000 C
ENDBRANCH 50 57
BRANCH 52 60
ATOM     60   O  ASG B   4       8.486  57.476  65.8800  0.00  0.00     0.000 O
ATOM     61   O  ASG B   4       5.993  57.610  65.8420  0.00  0.00     0.000 OA
ATOM     62   O  ASG B   4       7.253  59.292  66.9610  0.00  0.00     0.000 OA
ATOM     63   O  ASG B   4       7.459  59.065  64.5890  0.00  0.00     0.000 OA
ATOM     64   S  ASG B   4       7.177  58.402  65.8660  0.00  0.00     0.000 S
ENDBRANCH 52 60
ATOM     65   O  ASG B   4       8.535  56.586  61.4470  0.00  0.00     0.000 O
ATOM     67  HD  ASG B   4       9.268  57.041  61.3680  0.00  0.00     0.000 HD
ATOM     67   O  ASG B   4       8.535  56.586  61.4470  0.00  0.00     0.000 O
ATOM     69  HD  ASG B   4       9.268  57.041  61.3680  0.00  0.00     0.000 HD
ENDBRANCH 48 51
ENDBRANCH 35 48
ENDBRANCH 34 38
ENDBRANCH 15 34
ENDBRANCH 14 17
ENDBRANCH 1 14
TORSDOF 12
ENDMDL
MODEL 68
REMARK VINA RESULT:      -7.5     24.199     29.629
ROOT
ATOM      1  C1  GAD B   1     -22.572  23.474  63.2890  0.00  0.00     0.000 C
ATOM      2  C2  GAD B   1     -22.231  24.392  64.4670  0.00  0.00     0.000 C
ATOM      3  C3  GAD B   1     -23.001  25.712  64.3450  0.00  0.00     0.000 C
ATOM      4  C4  GAD B   1     -23.260  26.166  62.9060  0.00  0.00     0.000 C
ATOM      5  C5  GAD B   1     -22.992  25.421  61.8150  0.00  0.00     0.000 C
ATOM      6  O5  GAD B   1     -22.378  24.136  62.0310  0.00  0.00     0.000 O
ATOM      7   O  GAD B   1     -22.455  23.716  65.7590  0.00  0.00     0.000 O
ATOM      9  HD  GAD B   1     -22.469  23.026  65.2360  0.00  0.00     0.000 HD
ATOM      9   O  GAD B   1     -22.297  26.799  64.9870  0.00  0.00     0.000 O
ATOM     11  HD  GAD B   1     -22.311  26.109  64.4640  0.00  0.00     0.000 HD
ENDROOT
BRANCH 5 11
ATOM     11   C  GAD B   1     -23.335  25.806  60.4260  0.00  0.00     0.000 C
ATOM     12   O  GAD B   1     -22.396  25.776  59.5720  0.00  0.00     0.000 OA
ATOM     13   O  GAD B   1     -24.518  26.225  60.1460  0.00  0.00     0.000 OA
ENDBRANCH 5 11
BRANCH 1 14
ATOM     14  O3  ASG B   2     -21.791  22.458  62.8780  0.00  0.00     0.000 O
BRANCH 14 17
ATOM     15  C1  ASG B   2     -19.991  21.195  59.8040  0.00  0.00     0.000 C
ATOM     16  C2  ASG B   2     -21.047  21.194  60.9190  0.00  0.00     0.000 C
ATOM     17  C3  ASG B   2     -20.825  22.412  61.8210  0.00  0.00     0.000 C
ATOM     18  C4  ASG B   2     -19.428  22.373  62.4090  0.00  0.00     0.000 C
ATOM     19  C5  ASG B   2     -18.414  22.248  61.2760  0.00  0.00     0.000 C
ATOM     20  O5  ASG B   2     -18.734  21.111  60.4500  0.00  0.00     0.000 O
ATOM     21   C  ASG B   2     -17.018  22.036  61.7690  0.00  0.00     0.000 C
ATOM     22   O  ASG B   2     -16.183  21.719  60.6820  0.00  0.00     0.000 O
ATOM     24  HD  ASG B   2     -15.560  21.518  60.1160  0.00  0.00     0.000 HD
BRANCH 16 26
ATOM     24   N  ASG B   2     -22.096  20.335  61.4170  0.00  0.00     0.000 N
ATOM     26  HD  ASG B   2     -21.597  20.808  61.9430  0.00  0.00     0.000 HD
ATOM     26   C  ASG B   2     -23.397  20.471  61.0970  0.00  0.00     0.000 C
ATOM     27   C  ASG B   2     -24.275  19.311  61.4180  0.00  0.00     0.000 C
ATOM     28   O  ASG B   2     -23.828  21.490  60.5720  0.00  0.00     0.000 OA
ENDBRANCH 16 26
BRANCH 18 29
ATOM     29   O  ASG B   2     -19.395  21.229  63.3310  0.00  0.00     0.000 O
ATOM     30   O  ASG B   2     -17.764  22.251  64.8610  0.00  0.00     0.000 OA
ATOM     31   O  ASG B   2     -20.097  22.090  65.5100  0.00  0.00     0.000 OA
ATOM     32   O  ASG B   2     -18.742  20.093  65.3610  0.00  0.00     0.000 OA
ATOM     33   S  ASG B   2     -18.974  21.450  64.8670  0.00  0.00     0.000 S
ENDBRANCH 18 29
BRANCH 15 34
ATOM     34  O4  ASG B   3     -20.110  20.121  58.9170  0.00  0.00     0.000 O
BRANCH 34 38
ATOM     35  C1  GCT B   3     -20.598  22.407  55.6150  0.00  0.00     0.000 C
ATOM     36  C2  GCT B   3     -21.840  21.645  56.0260  0.00  0.00     0.000 C
ATOM     37  C3  GCT B   3     -21.733  21.173  57.4690  0.00  0.00     0.000 C
ATOM     38  C4  GCT B   3     -20.508  20.261  57.6110  0.00  0.00     0.000 C
ATOM     39  C5  GCT B   3     -19.351  20.696  56.6840  0.00  0.00     0.000 C
ATOM     40  O5  GCT B   3     -19.505  22.088  56.4690  0.00  0.00     0.000 O
ATOM     41   O  GCT B   3     -22.930  22.544  55.8810  0.00  0.00     0.000 O
ATOM     43  HD  GCT B   3     -23.362  22.826  55.1860  0.00  0.00     0.000 HD
ATOM     43   O  GCT B   3     -22.966  20.516  57.8300  0.00  0.00     0.000 O
ATOM     45  HD  GCT B   3     -23.398  20.798  57.1350  0.00  0.00     0.000 HD
BRANCH 39 45
ATOM     45   C  GCT B   3     -19.197  19.998  55.3500  0.00  0.00     0.000 C
ATOM     46   O  GCT B   3     -18.235  20.317  54.5820  0.00  0.00     0.000 OA
ATOM     47   O  GCT B   3     -20.022  19.117  55.0600  0.00  0.00     0.000 OA
ENDBRANCH 39 45
BRANCH 35 48
ATOM     48  O3  ASG B   4     -20.600  22.570  54.3100  0.00  0.00     0.000 O
BRANCH 48 51
ATOM     49  C1  ASG B   4     -22.043  25.211  52.1560  0.00  0.00     0.000 C
ATOM     50  C2  ASG B   4     -21.794  23.824  52.7720  0.00  0.00     0.000 C
ATOM     51  C3  ASG B   4     -20.914  23.921  54.0150  0.00  0.00     0.000 C
ATOM     52  C4  ASG B   4     -19.664  24.741  53.7410  0.00  0.00     0.000 C
ATOM     53  C5  ASG B   4     -20.096  26.093  53.1800  0.00  0.00     0.000 C
ATOM     54  O5  ASG B   4     -20.813  25.885  51.9470  0.00  0.00     0.000 O
BRANCH 50 57
ATOM     55   N  ASG B   4     -23.230  23.661  52.7810  0.00  0.00     0.000 N
ATOM     57  HD  ASG B   4     -23.323  23.414  51.9560  0.00  0.00     0.000 HD
ATOM     57   O  ASG B   4     -23.262  22.135  51.1420  0.00  0.00     0.000 OA
ATOM     58   C  ASG B   4     -23.849  22.745  52.0310  0.00  0.00     0.000 C
ATOM     59   C  ASG B   4     -25.308  22.555  52.3120  0.00  0.00     0.000 C
ENDBRANCH 50 57
BRANCH 52 60
ATOM     60   O  ASG B   4     -18.894  23.896  52.7920  0.00  0.00     0.000 O
ATOM     61   O  ASG B   4     -17.076  23.465  54.4470  0.00  0.00     0.000 OA
ATOM     62   O  ASG B   4     -17.045  22.361  52.3380  0.00  0.00     0.000 OA
ATOM     63   O  ASG B   4     -16.799  24.738  52.4130  0.00  0.00     0.000 OA
ATOM     64   S  ASG B   4     -17.353  23.541  53.0520  0.00  0.00     0.000 S
ENDBRANCH 52 60
ATOM     65   O  ASG B   4     -19.449  28.383  52.7170  0.00  0.00     0.000 O
ATOM     67  HD  ASG B   4     -19.792  28.323  51.9240  0.00  0.00     0.000 HD
ATOM     67   O  ASG B   4     -19.449  28.383  52.7170  0.00  0.00     0.000 O
ATOM     69  HD  ASG B   4     -19.792  28.323  51.9240  0.00  0.00     0.000 HD
ENDBRANCH 48 51
ENDBRANCH 35 48
ENDBRANCH 34 38
ENDBRANCH 15 34
ENDBRANCH 14 17
ENDBRANCH 1 14
TORSDOF 12
ENDMDL
MODEL 69
REMARK VINA RESULT:      -7.5     25.864     30.531
ROOT
ATOM      1  C1  GAD B   1     -24.050  50.083  56.8840  0.00  0.00     0.000 C
ATOM      2  C2  GAD B   1     -25.367  49.968  57.6570  0.00  0.00     0.000 C
ATOM      3  C3  GAD B   1     -25.845  51.358  58.0940  0.00  0.00     0.000 C
ATOM      4  C4  GAD B   1     -24.719  52.351  58.3940  0.00  0.00     0.000 C
ATOM      5  C5  GAD B   1     -23.414  52.114  58.1550  0.00  0.00     0.000 C
ATOM      6  O5  GAD B   1     -23.066  50.820  57.6260  0.00  0.00     0.000 O
ATOM      7   O  GAD B   1     -26.384  49.231  56.8810  0.00  0.00     0.000 O
ATOM      9  HD  GAD B   1     -25.678  49.014  56.4290  0.00  0.00     0.000 HD
ATOM      9   O  GAD B   1     -26.650  51.290  59.2920  0.00  0.00     0.000 O
ATOM     11  HD  GAD B   1     -25.944  51.073  58.8400  0.00  0.00     0.000 HD
ENDROOT
BRANCH 5 11
ATOM     11   C  GAD B   1     -22.329  53.105  58.3420  0.00  0.00     0.000 C
ATOM     12   O  GAD B   1     -22.577  54.094  59.0990  0.00  0.00     0.000 OA
ATOM     13   O  GAD B   1     -21.226  52.987  57.6900  0.00  0.00     0.000 OA
ENDBRANCH 5 11
BRANCH 1 14
ATOM     14  O3  ASG B   2     -23.178  49.069  56.7300  0.00  0.00     0.000 O
BRANCH 14 17
ATOM     15  C1  ASG B   2     -19.641  48.091  57.6300  0.00  0.00     0.000 C
ATOM     16  C2  ASG B   2     -20.798  48.501  56.7080  0.00  0.00     0.000 C
ATOM     17  C3  ASG B   2     -22.067  48.681  57.5460  0.00  0.00     0.000 C
ATOM     18  C4  ASG B   2     -22.395  47.391  58.2730  0.00  0.00     0.000 C
ATOM     19  C5  ASG B   2     -21.177  46.950  59.0800  0.00  0.00     0.000 C
ATOM     20  O5  ASG B   2     -20.023  46.863  58.2210  0.00  0.00     0.000 O
ATOM     21   C  ASG B   2     -21.350  45.600  59.6990  0.00  0.00     0.000 C
ATOM     22   O  ASG B   2     -20.123  45.175  60.2390  0.00  0.00     0.000 O
ATOM     24  HD  ASG B   2     -19.444  44.790  60.6140  0.00  0.00     0.000 HD
BRANCH 16 26
ATOM     24   N  ASG B   2     -20.700  49.727  55.9500  0.00  0.00     0.000 N
ATOM     26  HD  ASG B   2     -20.016  49.371  56.3430  0.00  0.00     0.000 HD
ATOM     26   C  ASG B   2     -20.997  49.829  54.6410  0.00  0.00     0.000 C
ATOM     27   C  ASG B   2     -21.170  51.211  54.1130  0.00  0.00     0.000 C
ATOM     28   O  ASG B   2     -21.116  48.839  53.9290  0.00  0.00     0.000 OA
ENDBRANCH 16 26
BRANCH 18 29
ATOM     29   O  ASG B   2     -22.779  46.417  57.2430  0.00  0.00     0.000 O
ATOM     30   O  ASG B   2     -24.344  45.196  58.6930  0.00  0.00     0.000 OA
ATOM     31   O  ASG B   2     -25.195  46.653  56.9470  0.00  0.00     0.000 OA
ATOM     32   O  ASG B   2     -24.086  44.585  56.3630  0.00  0.00     0.000 OA
ATOM     33   S  ASG B   2     -24.202  45.677  57.3310  0.00  0.00     0.000 S
ENDBRANCH 18 29
BRANCH 15 34
ATOM     34  O4  ASG B   3     -18.427  47.905  56.9590  0.00  0.00     0.000 O
BRANCH 34 38
ATOM     35  C1  GCT B   3     -15.014  49.266  55.2670  0.00  0.00     0.000 C
ATOM     36  C2  GCT B   3     -15.406  49.994  56.5350  0.00  0.00     0.000 C
ATOM     37  C3  GCT B   3     -16.411  49.180  57.3380  0.00  0.00     0.000 C
ATOM     38  C4  GCT B   3     -17.661  48.940  56.4840  0.00  0.00     0.000 C
ATOM     39  C5  GCT B   3     -17.319  48.782  54.9850  0.00  0.00     0.000 C
ATOM     40  O5  GCT B   3     -15.992  48.291  54.9230  0.00  0.00     0.000 O
ATOM     41   O  GCT B   3     -14.210  50.175  57.2810  0.00  0.00     0.000 O
ATOM     43  HD  GCT B   3     -13.550  50.729  57.1950  0.00  0.00     0.000 HD
ATOM     43   O  GCT B   3     -16.696  49.884  58.5660  0.00  0.00     0.000 O
ATOM     45  HD  GCT B   3     -16.036  50.438  58.4790  0.00  0.00     0.000 HD
BRANCH 39 45
ATOM     45   C  GCT B   3     -17.446  49.994  54.0870  0.00  0.00     0.000 C
ATOM     46   O  GCT B   3     -17.256  49.870  52.8370  0.00  0.00     0.000 OA
ATOM     47   O  GCT B   3     -17.750  51.076  54.6160  0.00  0.00     0.000 OA
ENDBRANCH 39 45
BRANCH 35 48
ATOM     48  O3  ASG B   4     -14.362  50.091  54.4760  0.00  0.00     0.000 O
BRANCH 48 51
ATOM     49  C1  ASG B   4     -11.025  50.148  52.8790  0.00  0.00     0.000 C
ATOM     50  C2  ASG B   4     -12.416  50.618  53.3390  0.00  0.00     0.000 C
ATOM     51  C3  ASG B   4     -13.026  49.641  54.3400  0.00  0.00     0.000 C
ATOM     52  C4  ASG B   4     -12.964  48.213  53.8240  0.00  0.00     0.000 C
ATOM     53  C5  ASG B   4     -11.515  47.902  53.4590  0.00  0.00     0.000 C
ATOM     54  O5  ASG B   4     -11.085  48.807  52.4220  0.00  0.00     0.000 O
BRANCH 50 57
ATOM     55   N  ASG B   4     -12.751  51.887  53.9420  0.00  0.00     0.000 N
ATOM     57  HD  ASG B   4     -12.382  52.398  53.3480  0.00  0.00     0.000 HD
ATOM     57   O  ASG B   4     -12.741  53.025  52.0130  0.00  0.00     0.000 OA
ATOM     58   C  ASG B   4     -12.992  52.981  53.2140  0.00  0.00     0.000 C
ATOM     59   C  ASG B   4     -13.534  54.156  53.9690  0.00  0.00     0.000 C
ENDBRANCH 50 57
BRANCH 52 60
ATOM     60   O  ASG B   4     -13.903  48.218  52.6730  0.00  0.00     0.000 O
ATOM     61   O  ASG B   4     -14.473  45.805  52.9610  0.00  0.00     0.000 OA
ATOM     62   O  ASG B   4     -15.625  47.109  51.3350  0.00  0.00     0.000 OA
ATOM     63   O  ASG B   4     -13.283  46.711  51.0640  0.00  0.00     0.000 OA
ATOM     64   S  ASG B   4     -14.404  46.853  51.9980  0.00  0.00     0.000 S
ENDBRANCH 52 60
ATOM     65   O  ASG B   4      -9.882  46.174  52.9830  0.00  0.00     0.000 O
ATOM     67  HD  ASG B   4      -9.607  46.619  52.2930  0.00  0.00     0.000 HD
ATOM     67   O  ASG B   4      -9.882  46.174  52.9830  0.00  0.00     0.000 O
ATOM     69  HD  ASG B   4      -9.607  46.619  52.2930  0.00  0.00     0.000 HD
ENDBRANCH 48 51
ENDBRANCH 35 48
ENDBRANCH 34 38
ENDBRANCH 15 34
ENDBRANCH 14 17
ENDBRANCH 1 14
TORSDOF 12
ENDMDL
MODEL 70
REMARK VINA RESULT:      -7.4     16.312     20.060
ROOT
ATOM      1  C1  GAD B   1       8.500  49.382  86.1660  0.00  0.00     0.000 C
ATOM      2  C2  GAD B   1       8.042  48.846  87.5250  0.00  0.00     0.000 C
ATOM      3  C3  GAD B   1       7.620  50.006  88.4340  0.00  0.00     0.000 C
ATOM      4  C4  GAD B   1       8.394  51.307  88.2040  0.00  0.00     0.000 C
ATOM      5  C5  GAD B   1       9.266  51.503  87.1950  0.00  0.00     0.000 C
ATOM      6  O5  GAD B   1       9.510  50.392  86.3110  0.00  0.00     0.000 O
ATOM      7   O  GAD B   1       6.987  47.826  87.3730  0.00  0.00     0.000 O
ATOM      9  HD  GAD B   1       7.277  47.849  86.5570  0.00  0.00     0.000 HD
ATOM      9   O  GAD B   1       7.795  49.678  89.8310  0.00  0.00     0.000 O
ATOM     11  HD  GAD B   1       8.086  49.702  89.0150  0.00  0.00     0.000 HD
ENDROOT
BRANCH 5 11
ATOM     11   C  GAD B   1       9.939  52.790  86.9000  0.00  0.00     0.000 C
ATOM     12   O  GAD B   1       9.731  53.298  85.7550  0.00  0.00     0.000 OA
ATOM     13   O  GAD B   1      10.755  53.302  87.7520  0.00  0.00     0.000 OA
ENDBRANCH 5 11
BRANCH 1 14
ATOM     14  O3  ASG B   2       9.298  48.703  85.3200  0.00  0.00     0.000 O
BRANCH 14 17
ATOM     15  C1  ASG B   2       9.650  45.331  83.6520  0.00  0.00     0.000 C
ATOM     16  C2  ASG B   2      10.025  46.482  84.5970  0.00  0.00     0.000 C
ATOM     17  C3  ASG B   2       8.993  47.604  84.4540  0.00  0.00     0.000 C
ATOM     18  C4  ASG B   2       8.947  48.085  83.0160  0.00  0.00     0.000 C
ATOM     19  C5  ASG B   2       8.696  46.892  82.0990  0.00  0.00     0.000 C
ATOM     20  O5  ASG B   2       9.679  45.868  82.3430  0.00  0.00     0.000 O
ATOM     21   C  ASG B   2       8.799  47.245  80.6500  0.00  0.00     0.000 C
ATOM     22   O  ASG B   2       8.769  46.067  79.8810  0.00  0.00     0.000 O
ATOM     24  HD  ASG B   2       8.761  45.435  79.2890  0.00  0.00     0.000 HD
BRANCH 16 26
ATOM     24   N  ASG B   2      10.074  46.267  86.0250  0.00  0.00     0.000 N
ATOM     26  HD  ASG B   2      10.011  45.613  85.4610  0.00  0.00     0.000 HD
ATOM     26   C  ASG B   2      11.100  46.646  86.8080  0.00  0.00     0.000 C
ATOM     27   C  ASG B   2      10.836  46.658  88.2750  0.00  0.00     0.000 C
ATOM     28   O  ASG B   2      12.187  46.962  86.3390  0.00  0.00     0.000 OA
ENDBRANCH 16 26
BRANCH 18 29
ATOM     29   O  ASG B   2      10.234  48.744  82.7550  0.00  0.00     0.000 O
ATOM     30   O  ASG B   2       9.330  50.292  81.0730  0.00  0.00     0.000 OA
ATOM     31   O  ASG B   2       9.909  51.110  83.2840  0.00  0.00     0.000 OA
ATOM     32   O  ASG B   2      11.651  50.425  81.7530  0.00  0.00     0.000 OA
ATOM     33   S  ASG B   2      10.264  50.245  82.1820  0.00  0.00     0.000 S
ENDBRANCH 18 29
BRANCH 15 34
ATOM     34  O4  ASG B   3      10.532  44.246  83.7100  0.00  0.00     0.000 O
BRANCH 34 38
ATOM     35  C1  GCT B   3      11.039  40.265  83.2090  0.00  0.00     0.000 C
ATOM     36  C2  GCT B   3      11.540  41.100  82.0510  0.00  0.00     0.000 C
ATOM     37  C3  GCT B   3      11.725  42.551  82.4700  0.00  0.00     0.000 C
ATOM     38  C4  GCT B   3      10.383  43.111  82.9550  0.00  0.00     0.000 C
ATOM     39  C5  GCT B   3       9.529  42.036  83.6670  0.00  0.00     0.000 C
ATOM     40  O5  GCT B   3      10.437  41.088  84.2010  0.00  0.00     0.000 O
ATOM     41   O  GCT B   3      12.784  40.538  81.6580  0.00  0.00     0.000 O
ATOM     43  HD  GCT B   3      12.983  39.829  81.2020  0.00  0.00     0.000 HD
ATOM     43   O  GCT B   3      12.269  43.286  81.3540  0.00  0.00     0.000 O
ATOM     45  HD  GCT B   3      12.468  42.577  80.8980  0.00  0.00     0.000 HD
BRANCH 39 45
ATOM     45   C  GCT B   3       8.467  41.315  82.8660  0.00  0.00     0.000 C
ATOM     46   O  GCT B   3       8.265  41.643  81.6540  0.00  0.00     0.000 OA
ATOM     47   O  GCT B   3       7.834  40.408  83.4310  0.00  0.00     0.000 OA
ENDBRANCH 39 45
BRANCH 35 48
ATOM     48  O3  ASG B   4      10.640  39.094  82.7600  0.00  0.00     0.000 O
BRANCH 48 51
ATOM     49  C1  ASG B   4      12.042  35.671  82.8720  0.00  0.00     0.000 C
ATOM     50  C2  ASG B   4      11.423  36.962  82.3090  0.00  0.00     0.000 C
ATOM     51  C3  ASG B   4      11.435  38.079  83.3490  0.00  0.00     0.000 C
ATOM     52  C4  ASG B   4      10.854  37.606  84.6720  0.00  0.00     0.000 C
ATOM     53  C5  ASG B   4      11.610  36.351  85.1000  0.00  0.00     0.000 C
ATOM     54  O5  ASG B   4      11.428  35.327  84.1030  0.00  0.00     0.000 O
BRANCH 50 57
ATOM     55   N  ASG B   4      12.105  37.424  81.1220  0.00  0.00     0.000 N
ATOM     57  HD  ASG B   4      11.924  36.746  80.6140  0.00  0.00     0.000 HD
ATOM     57   O  ASG B   4      10.806  36.284  79.6980  0.00  0.00     0.000 OA
ATOM     58   C  ASG B   4      11.675  37.129  79.8920  0.00  0.00     0.000 C
ATOM     59   C  ASG B   4      12.358  37.856  78.7750  0.00  0.00     0.000 C
ENDBRANCH 50 57
BRANCH 52 60
ATOM     60   O  ASG B   4       9.418  37.387  84.3610  0.00  0.00     0.000 O
ATOM     61   O  ASG B   4       8.706  37.866  86.7050  0.00  0.00     0.000 OA
ATOM     62   O  ASG B   4       7.065  37.501  85.0190  0.00  0.00     0.000 OA
ATOM     63   O  ASG B   4       8.522  35.707  85.6350  0.00  0.00     0.000 OA
ATOM     64   S  ASG B   4       8.339  37.158  85.5250  0.00  0.00     0.000 S
ENDBRANCH 52 60
ATOM     65   O  ASG B   4      12.141  34.842  86.9230  0.00  0.00     0.000 O
ATOM     67  HD  ASG B   4      11.980  34.163  86.4110  0.00  0.00     0.000 HD
ATOM     67   O  ASG B   4      12.141  34.842  86.9230  0.00  0.00     0.000 O
ATOM     69  HD  ASG B   4      11.980  34.163  86.4110  0.00  0.00     0.000 HD
ENDBRANCH 48 51
ENDBRANCH 35 48
ENDBRANCH 34 38
ENDBRANCH 15 34
ENDBRANCH 14 17
ENDBRANCH 1 14
TORSDOF 12
ENDMDL
MODEL 71
REMARK VINA RESULT:      -7.4     19.385     25.672
ROOT
ATOM      1  C1  GAD B   1       4.327  56.037  61.8090  0.00  0.00     0.000 C
ATOM      2  C2  GAD B   1       3.061  55.328  62.2990  0.00  0.00     0.000 C
ATOM      3  C3  GAD B   1       1.945  55.460  61.2550  0.00  0.00     0.000 C
ATOM      4  C4  GAD B   1       1.983  56.760  60.4470  0.00  0.00     0.000 C
ATOM      5  C5  GAD B   1       2.983  57.662  60.5070  0.00  0.00     0.000 C
ATOM      6  O5  GAD B   1       4.056  57.395  61.4290  0.00  0.00     0.000 O
ATOM      7   O  GAD B   1       3.338  53.925  62.6650  0.00  0.00     0.000 O
ATOM      9  HD  GAD B   1       4.150  54.226  62.6370  0.00  0.00     0.000 HD
ATOM      9   O  GAD B   1       0.637  55.406  61.8670  0.00  0.00     0.000 O
ATOM     11  HD  GAD B   1       1.449  55.707  61.8390  0.00  0.00     0.000 HD
ENDROOT
BRANCH 5 11
ATOM     11   C  GAD B   1       3.081  58.869  59.6530  0.00  0.00     0.000 C
ATOM     12   O  GAD B   1       1.993  59.453  59.3550  0.00  0.00     0.000 OA
ATOM     13   O  GAD B   1       4.220  59.236  59.1820  0.00  0.00     0.000 OA
ENDBRANCH 5 11
BRANCH 1 14
ATOM     14  O3  ASG B   2       5.315  56.459  62.6210  0.00  0.00     0.000 O
BRANCH 14 17
ATOM     15  C1  ASG B   2       6.722  55.584  66.0170  0.00  0.00     0.000 C
ATOM     16  C2  ASG B   2       5.914  56.393  64.9920  0.00  0.00     0.000 C
ATOM     17  C3  ASG B   2       6.056  55.740  63.6140  0.00  0.00     0.000 C
ATOM     18  C4  ASG B   2       7.518  55.683  63.2160  0.00  0.00     0.000 C
ATOM     19  C5  ASG B   2       8.308  54.982  64.3170  0.00  0.00     0.000 C
ATOM     20  O5  ASG B   2       8.069  55.629  65.5830  0.00  0.00     0.000 O
ATOM     21   C  ASG B   2       9.785  55.026  64.0890  0.00  0.00     0.000 C
ATOM     22   O  ASG B   2      10.447  54.556  65.2370  0.00  0.00     0.000 O
ATOM     24  HD  ASG B   2      10.982  54.290  65.8640  0.00  0.00     0.000 HD
BRANCH 16 26
ATOM     24   N  ASG B   2       4.526  56.589  65.3410  0.00  0.00     0.000 N
ATOM     26  HD  ASG B   2       5.137  56.447  65.9380  0.00  0.00     0.000 HD
ATOM     26   C  ASG B   2       3.829  57.705  65.0570  0.00  0.00     0.000 C
ATOM     27   C  ASG B   2       2.347  57.601  65.1790  0.00  0.00     0.000 C
ATOM     28   O  ASG B   2       4.384  58.743  64.7190  0.00  0.00     0.000 OA
ENDBRANCH 16 26
BRANCH 18 29
ATOM     29   O  ASG B   2       7.947  57.072  63.0030  0.00  0.00     0.000 O
ATOM     30   O  ASG B   2       9.500  56.527  61.1770  0.00  0.00     0.000 OA
ATOM     31   O  ASG B   2       7.385  57.614  60.6860  0.00  0.00     0.000 OA
ATOM     32   O  ASG B   2       9.130  58.827  61.8370  0.00  0.00     0.000 OA
ATOM     33   S  ASG B   2       8.522  57.523  61.5720  0.00  0.00     0.000 S
ENDBRANCH 18 29
BRANCH 15 34
ATOM     34  O4  ASG B   3       6.654  56.096  67.3170  0.00  0.00     0.000 O
BRANCH 34 38
ATOM     35  C1  GCT B   3       6.518  54.018  70.7850  0.00  0.00     0.000 C
ATOM     36  C2  GCT B   3       7.307  55.307  70.8690  0.00  0.00     0.000 C
ATOM     37  C3  GCT B   3       6.964  56.229  69.7090  0.00  0.00     0.000 C
ATOM     38  C4  GCT B   3       7.289  55.521  68.3880  0.00  0.00     0.000 C
ATOM     39  C5  GCT B   3       7.045  53.997  68.4720  0.00  0.00     0.000 C
ATOM     40  O5  GCT B   3       6.047  53.801  69.4590  0.00  0.00     0.000 O
ATOM     41   O  GCT B   3       6.955  55.915  72.1040  0.00  0.00     0.000 O
ATOM     43  HD  GCT B   3       7.186  55.747  72.9210  0.00  0.00     0.000 HD
ATOM     43   O  GCT B   3       7.688  57.466  69.8750  0.00  0.00     0.000 O
ATOM     45  HD  GCT B   3       7.920  57.298  70.6920  0.00  0.00     0.000 HD
BRANCH 39 45
ATOM     45   C  GCT B   3       8.224  53.095  68.7660  0.00  0.00     0.000 C
ATOM     46   O  GCT B   3       8.033  51.849  68.9330  0.00  0.00     0.000 OA
ATOM     47   O  GCT B   3       9.350  53.614  68.8200  0.00  0.00     0.000 OA
ENDBRANCH 39 45
BRANCH 35 48
ATOM     48  O3  ASG B   4       7.019  53.145  71.6330  0.00  0.00     0.000 O
BRANCH 48 51
ATOM     49  C1  ASG B   4       4.148  51.992  73.6620  0.00  0.00     0.000 C
ATOM     50  C2  ASG B   4       5.158  52.941  72.9950  0.00  0.00     0.000 C
ATOM     51  C3  ASG B   4       6.016  52.203  71.9710  0.00  0.00     0.000 C
ATOM     52  C4  ASG B   4       6.611  50.936  72.5620  0.00  0.00     0.000 C
ATOM     53  C5  ASG B   4       5.471  50.098  73.1350  0.00  0.00     0.000 C
ATOM     54  O5  ASG B   4       4.811  50.848  74.1740  0.00  0.00     0.000 O
BRANCH 50 57
ATOM     55   N  ASG B   4       3.904  53.652  72.9040  0.00  0.00     0.000 N
ATOM     57  HD  ASG B   4       3.968  54.094  73.6460  0.00  0.00     0.000 HD
ATOM     57   O  ASG B   4       4.578  55.392  74.1420  0.00  0.00     0.000 OA
ATOM     58   C  ASG B   4       3.743  54.882  73.4010  0.00  0.00     0.000 C
ATOM     59   C  ASG B   4       2.460  55.565  73.0390  0.00  0.00     0.000 C
ENDBRANCH 50 57
BRANCH 52 60
ATOM     60   O  ASG B   4       7.574  51.443  73.5730  0.00  0.00     0.000 O
ATOM     61   O  ASG B   4       9.520  50.350  72.4560  0.00  0.00     0.000 OA
ATOM     62   O  ASG B   4       9.876  51.777  74.3290  0.00  0.00     0.000 OA
ATOM     63   O  ASG B   4       8.670  49.734  74.6320  0.00  0.00     0.000 OA
ATOM     64   S  ASG B   4       9.042  50.815  73.7150  0.00  0.00     0.000 S
ENDBRANCH 52 60
ATOM     65   O  ASG B   4       4.771  47.911  73.9130  0.00  0.00     0.000 O
ATOM     67  HD  ASG B   4       4.407  48.272  74.6110  0.00  0.00     0.000 HD
ATOM     67   O  ASG B   4       4.771  47.911  73.9130  0.00  0.00     0.000 O
ATOM     69  HD  ASG B   4       4.407  48.272  74.6110  0.00  0.00     0.000 HD
ENDBRANCH 48 51
ENDBRANCH 35 48
ENDBRANCH 34 38
ENDBRANCH 15 34
ENDBRANCH 14 17
ENDBRANCH 1 14
TORSDOF 12
ENDMDL
MODEL 72
REMARK VINA RESULT:      -7.4     14.352     18.824
ROOT
ATOM      1  C1  GAD B   1       8.532  48.928  83.7760  0.00  0.00     0.000 C
ATOM      2  C2  GAD B   1       7.942  48.873  85.1890  0.00  0.00     0.000 C
ATOM      3  C3  GAD B   1       7.926  50.275  85.8080  0.00  0.00     0.000 C
ATOM      4  C4  GAD B   1       9.074  51.182  85.3560  0.00  0.00     0.000 C
ATOM      5  C5  GAD B   1       9.950  50.869  84.3800  0.00  0.00     0.000 C
ATOM      6  O5  GAD B   1       9.814  49.574  83.7650  0.00  0.00     0.000 O
ATOM      7   O  GAD B   1       6.614  48.231  85.1920  0.00  0.00     0.000 O
ATOM      9  HD  GAD B   1       6.887  47.984  84.4080  0.00  0.00     0.000 HD
ATOM      9   O  GAD B   1       8.004  50.220  87.2500  0.00  0.00     0.000 O
ATOM     11  HD  GAD B   1       8.277  49.973  86.4660  0.00  0.00     0.000 HD
ENDROOT
BRANCH 5 11
ATOM     11   C  GAD B   1      10.997  51.780  83.8620  0.00  0.00     0.000 C
ATOM     12   O  GAD B   1      11.510  51.487  82.7380  0.00  0.00     0.000 OA
ATOM     13   O  GAD B   1      11.405  52.769  84.5770  0.00  0.00     0.000 OA
ENDBRANCH 5 11
BRANCH 1 14
ATOM     14  O3  ASG B   2       9.059  47.865  83.1390  0.00  0.00     0.000 O
BRANCH 14 17
ATOM     15  C1  ASG B   2       8.657  44.164  82.4920  0.00  0.00     0.000 C
ATOM     16  C2  ASG B   2       9.370  45.446  82.9450  0.00  0.00     0.000 C
ATOM     17  C3  ASG B   2       8.439  46.642  82.7270  0.00  0.00     0.000 C
ATOM     18  C4  ASG B   2       8.050  46.735  81.2640  0.00  0.00     0.000 C
ATOM     19  C5  ASG B   2       7.460  45.401  80.8190  0.00  0.00     0.000 C
ATOM     20  O5  ASG B   2       8.380  44.332  81.1140  0.00  0.00     0.000 O
ATOM     21   C  ASG B   2       7.200  45.345  79.3480  0.00  0.00     0.000 C
ATOM     22   O  ASG B   2       6.863  44.028  78.9840  0.00  0.00     0.000 O
ATOM     24  HD  ASG B   2       6.642  43.274  78.6210  0.00  0.00     0.000 HD
BRANCH 16 26
ATOM     24   N  ASG B   2      10.687  45.823  83.4050  0.00  0.00     0.000 N
ATOM     26  HD  ASG B   2      10.225  46.321  82.8680  0.00  0.00     0.000 HD
ATOM     26   C  ASG B   2      11.010  46.005  84.6990  0.00  0.00     0.000 C
ATOM     27   C  ASG B   2      12.466  46.050  85.0110  0.00  0.00     0.000 C
ATOM     28   O  ASG B   2      10.153  46.125  85.5650  0.00  0.00     0.000 OA
ENDBRANCH 16 26
BRANCH 18 29
ATOM     29   O  ASG B   2       9.272  47.091  80.5300  0.00  0.00     0.000 O
ATOM     30   O  ASG B   2       8.104  48.442  78.8400  0.00  0.00     0.000 OA
ATOM     31   O  ASG B   2       9.407  49.533  80.5730  0.00  0.00     0.000 OA
ATOM     32   O  ASG B   2      10.520  48.276  78.8340  0.00  0.00     0.000 OA
ATOM     33   S  ASG B   2       9.312  48.432  79.6440  0.00  0.00     0.000 S
ENDBRANCH 18 29
BRANCH 15 34
ATOM     34  O4  ASG B   3       9.425  43.006  82.6550  0.00  0.00     0.000 O
BRANCH 34 38
ATOM     35  C1  GCT B   3      10.047  39.030  82.2430  0.00  0.00     0.000 C
ATOM     36  C2  GCT B   3      10.029  39.790  80.9350  0.00  0.00     0.000 C
ATOM     37  C3  GCT B   3      10.231  41.280  81.1700  0.00  0.00     0.000 C
ATOM     38  C4  GCT B   3       9.110  41.804  82.0760  0.00  0.00     0.000 C
ATOM     39  C5  GCT B   3       8.660  40.748  83.1110  0.00  0.00     0.000 C
ATOM     40  O5  GCT B   3       9.773  39.901  83.3350  0.00  0.00     0.000 O
ATOM     41   O  GCT B   3      11.092  39.266  80.1510  0.00  0.00     0.000 O
ATOM     43  HD  GCT B   3      11.173  38.533  79.6970  0.00  0.00     0.000 HD
ATOM     43   O  GCT B   3      10.276  41.946  79.8910  0.00  0.00     0.000 O
ATOM     45  HD  GCT B   3      10.357  41.212  79.4370  0.00  0.00     0.000 HD
BRANCH 39 45
ATOM     45   C  GCT B   3       7.445  39.903  82.7950  0.00  0.00     0.000 C
ATOM     46   O  GCT B   3       6.790  40.120  81.7280  0.00  0.00     0.000 OA
ATOM     47   O  GCT B   3       7.139  39.008  83.6000  0.00  0.00     0.000 OA
ENDBRANCH 39 45
BRANCH 35 48
ATOM     48  O3  ASG B   4       9.612  37.805  82.0410  0.00  0.00     0.000 O
BRANCH 48 51
ATOM     49  C1  ASG B   4      11.023  34.391  82.2530  0.00  0.00     0.000 C
ATOM     50  C2  ASG B   4      10.093  35.548  81.8510  0.00  0.00     0.000 C
ATOM     51  C3  ASG B   4      10.674  36.895  82.2720  0.00  0.00     0.000 C
ATOM     52  C4  ASG B   4      11.095  36.881  83.7320  0.00  0.00     0.000 C
ATOM     53  C5  ASG B   4      12.043  35.704  83.9410  0.00  0.00     0.000 C
ATOM     54  O5  ASG B   4      11.351  34.479  83.6300  0.00  0.00     0.000 O
BRANCH 50 57
ATOM     55   N  ASG B   4       8.763  36.072  81.6370  0.00  0.00     0.000 N
ATOM     57  HD  ASG B   4       8.579  35.627  80.9170  0.00  0.00     0.000 HD
ATOM     57   O  ASG B   4       8.020  34.269  80.5370  0.00  0.00     0.000 OA
ATOM     58   C  ASG B   4       7.790  35.343  81.0820  0.00  0.00     0.000 C
ATOM     59   C  ASG B   4       6.421  35.950  81.1260  0.00  0.00     0.000 C
ENDBRANCH 50 57
BRANCH 52 60
ATOM     60   O  ASG B   4       9.806  36.775  84.4640  0.00  0.00     0.000 O
ATOM     61   O  ASG B   4      10.520  38.401  86.2180  0.00  0.00     0.000 OA
ATOM     62   O  ASG B   4       8.294  37.557  86.2200  0.00  0.00     0.000 OA
ATOM     63   O  ASG B   4      10.111  36.053  86.6160  0.00  0.00     0.000 OA
ATOM     64   S  ASG B   4       9.660  37.292  85.9740  0.00  0.00     0.000 S
ENDBRANCH 52 60
ATOM     65   O  ASG B   4      13.716  34.695  85.3770  0.00  0.00     0.000 O
ATOM     67  HD  ASG B   4      13.321  33.928  85.3050  0.00  0.00     0.000 HD
ATOM     67   O  ASG B   4      13.716  34.695  85.3770  0.00  0.00     0.000 O
ATOM     69  HD  ASG B   4      13.321  33.928  85.3050  0.00  0.00     0.000 HD
ENDBRANCH 48 51
ENDBRANCH 35 48
ENDBRANCH 34 38
ENDBRANCH 15 34
ENDBRANCH 14 17
ENDBRANCH 1 14
TORSDOF 12
ENDMDL
MODEL 73
REMARK VINA RESULT:      -7.3     30.127     34.161
ROOT
ATOM      1  C1  GAD B   1      -7.309  21.012  44.7360  0.00  0.00     0.000 C
ATOM      2  C2  GAD B   1      -7.434  22.425  44.1570  0.00  0.00     0.000 C
ATOM      3  C3  GAD B   1      -8.504  22.452  43.0600  0.00  0.00     0.000 C
ATOM      4  C4  GAD B   1      -8.633  21.149  42.2660  0.00  0.00     0.000 C
ATOM      5  C5  GAD B   1      -7.992  20.004  42.5770  0.00  0.00     0.000 C
ATOM      6  O5  GAD B   1      -7.096  20.037  43.7040  0.00  0.00     0.000 O
ATOM      7   O  GAD B   1      -7.677  23.421  45.2180  0.00  0.00     0.000 O
ATOM      9  HD  GAD B   1      -7.414  22.756  45.7080  0.00  0.00     0.000 HD
ATOM      9   O  GAD B   1      -8.242  23.488  42.0880  0.00  0.00     0.000 O
ATOM     11  HD  GAD B   1      -7.979  22.824  42.5770  0.00  0.00     0.000 HD
ENDROOT
BRANCH 5 11
ATOM     11   C  GAD B   1      -8.191  18.711  41.8810  0.00  0.00     0.000 C
ATOM     12   O  GAD B   1      -7.177  18.206  41.3070  0.00  0.00     0.000 OA
ATOM     13   O  GAD B   1      -9.364  18.190  41.8090  0.00  0.00     0.000 OA
ENDBRANCH 5 11
BRANCH 1 14
ATOM     14  O3  ASG B   2      -6.222  20.561  45.3900  0.00  0.00     0.000 O
BRANCH 14 17
ATOM     15  C1  ASG B   2      -5.342  19.091  48.7580  0.00  0.00     0.000 C
ATOM     16  C2  ASG B   2      -5.424  20.171  47.6700  0.00  0.00     0.000 C
ATOM     17  C3  ASG B   2      -6.118  19.588  46.4360  0.00  0.00     0.000 C
ATOM     18  C4  ASG B   2      -5.352  18.379  45.9330  0.00  0.00     0.000 C
ATOM     19  C5  ASG B   2      -5.184  17.384  47.0780  0.00  0.00     0.000 C
ATOM     20  O5  ASG B   2      -4.576  18.035  48.2110  0.00  0.00     0.000 O
ATOM     21   C  ASG B   2      -4.298  16.235  46.7200  0.00  0.00     0.000 C
ATOM     22   O  ASG B   2      -4.020  15.483  47.8760  0.00  0.00     0.000 O
ATOM     24  HD  ASG B   2      -3.770  14.932  48.4950  0.00  0.00     0.000 HD
BRANCH 16 26
ATOM     24   N  ASG B   2      -4.954  21.513  47.4130  0.00  0.00     0.000 N
ATOM     26  HD  ASG B   2      -5.032  20.922  46.7850  0.00  0.00     0.000 HD
ATOM     26   C  ASG B   2      -5.675  22.623  47.6590  0.00  0.00     0.000 C
ATOM     27   C  ASG B   2      -4.920  23.908  47.6600  0.00  0.00     0.000 C
ATOM     28   O  ASG B   2      -6.880  22.575  47.8680  0.00  0.00     0.000 OA
ENDBRANCH 16 26
BRANCH 18 29
ATOM     29   O  ASG B   2      -4.070  18.881  45.4210  0.00  0.00     0.000 O
ATOM     30   O  ASG B   2      -3.794  17.082  43.7690  0.00  0.00     0.000 OA
ATOM     31   O  ASG B   2      -4.409  19.313  43.0380  0.00  0.00     0.000 OA
ATOM     32   O  ASG B   2      -2.191  18.891  43.9030  0.00  0.00     0.000 OA
ATOM     33   S  ASG B   2      -3.603  18.511  43.9290  0.00  0.00     0.000 S
ENDBRANCH 18 29
BRANCH 15 34
ATOM     34  O4  ASG B   3      -4.725  19.526  49.9360  0.00  0.00     0.000 O
BRANCH 34 38
ATOM     35  C1  GCT B   3      -4.473  18.784  53.9050  0.00  0.00     0.000 C
ATOM     36  C2  GCT B   3      -3.196  18.503  53.1430  0.00  0.00     0.000 C
ATOM     37  C3  GCT B   3      -3.210  19.196  51.7880  0.00  0.00     0.000 C
ATOM     38  C4  GCT B   3      -4.407  18.689  50.9750  0.00  0.00     0.000 C
ATOM     39  C5  GCT B   3      -5.625  18.371  51.8730  0.00  0.00     0.000 C
ATOM     40  O5  GCT B   3      -5.508  19.196  53.0190  0.00  0.00     0.000 O
ATOM     41   O  GCT B   3      -2.132  19.003  53.9410  0.00  0.00     0.000 O
ATOM     43  HD  GCT B   3      -1.748  18.696  54.6540  0.00  0.00     0.000 HD
ATOM     43   O  GCT B   3      -1.946  18.953  51.1350  0.00  0.00     0.000 O
ATOM     45  HD  GCT B   3      -1.561  18.647  51.8480  0.00  0.00     0.000 HD
BRANCH 39 45
ATOM     45   C  GCT B   3      -5.844  16.939  52.3070  0.00  0.00     0.000 C
ATOM     46   O  GCT B   3      -4.979  16.054  52.0120  0.00  0.00     0.000 OA
ATOM     47   O  GCT B   3      -6.870  16.682  52.9580  0.00  0.00     0.000 OA
ENDBRANCH 39 45
BRANCH 35 48
ATOM     48  O3  ASG B   4      -4.550  17.974  54.9390  0.00  0.00     0.000 O
BRANCH 48 51
ATOM     49  C1  ASG B   4      -5.309  19.068  58.3910  0.00  0.00     0.000 C
ATOM     50  C2  ASG B   4      -4.498  18.675  57.1450  0.00  0.00     0.000 C
ATOM     51  C3  ASG B   4      -5.396  18.554  55.9170  0.00  0.00     0.000 C
ATOM     52  C4  ASG B   4      -6.606  17.680  56.2030  0.00  0.00     0.000 C
ATOM     53  C5  ASG B   4      -7.313  18.237  57.4360  0.00  0.00     0.000 C
ATOM     54  O5  ASG B   4      -6.410  18.190  58.5590  0.00  0.00     0.000 O
BRANCH 50 57
ATOM     55   N  ASG B   4      -3.527  17.645  56.8550  0.00  0.00     0.000 N
ATOM     57  HD  ASG B   4      -2.815  18.126  56.9610  0.00  0.00     0.000 HD
ATOM     57   O  ASG B   4      -1.899  18.562  58.0900  0.00  0.00     0.000 OA
ATOM     58   C  ASG B   4      -2.325  17.613  57.4380  0.00  0.00     0.000 C
ATOM     59   C  ASG B   4      -1.522  16.372  57.1980  0.00  0.00     0.000 C
ENDBRANCH 50 57
BRANCH 52 60
ATOM     60   O  ASG B   4      -6.021  16.326  56.3850  0.00  0.00     0.000 O
ATOM     61   O  ASG B   4      -8.104  15.183  55.6200  0.00  0.00     0.000 OA
ATOM     62   O  ASG B   4      -6.152  13.902  56.0860  0.00  0.00     0.000 OA
ATOM     63   O  ASG B   4      -7.232  15.072  57.8700  0.00  0.00     0.000 OA
ATOM     64   S  ASG B   4      -6.946  15.018  56.4330  0.00  0.00     0.000 S
ENDBRANCH 52 60
ATOM     65   O  ASG B   4      -9.352  18.269  58.7480  0.00  0.00     0.000 O
ATOM     67  HD  ASG B   4      -8.890  18.168  59.4740  0.00  0.00     0.000 HD
ATOM     67   O  ASG B   4      -9.352  18.269  58.7480  0.00  0.00     0.000 O
ATOM     69  HD  ASG B   4      -8.890  18.168  59.4740  0.00  0.00     0.000 HD
ENDBRANCH 48 51
ENDBRANCH 35 48
ENDBRANCH 34 38
ENDBRANCH 15 34
ENDBRANCH 14 17
ENDBRANCH 1 14
TORSDOF 12
ENDMDL
MODEL 74
REMARK VINA RESULT:      -7.3     24.290     28.004
ROOT
ATOM      1  C1  GAD B   1     -23.040  15.635  66.7500  0.00  0.00     0.000 C
ATOM      2  C2  GAD B   1     -23.544  14.631  67.7900  0.00  0.00     0.000 C
ATOM      3  C3  GAD B   1     -24.934  15.042  68.2890  0.00  0.00     0.000 C
ATOM      4  C4  GAD B   1     -25.176  16.554  68.3180  0.00  0.00     0.000 C
ATOM      5  C5  GAD B   1     -24.327  17.469  67.8090  0.00  0.00     0.000 C
ATOM      6  O5  GAD B   1     -23.094  16.981  67.2460  0.00  0.00     0.000 O
ATOM      7   O  GAD B   1     -23.509  13.251  67.2670  0.00  0.00     0.000 O
ATOM      9  HD  GAD B   1     -23.005  13.637  66.6790  0.00  0.00     0.000 HD
ATOM      9   O  GAD B   1     -25.177  14.572  69.6340  0.00  0.00     0.000 O
ATOM     11  HD  GAD B   1     -24.672  14.958  69.0450  0.00  0.00     0.000 HD
ENDROOT
BRANCH 5 11
ATOM     11   C  GAD B   1     -24.599  18.923  67.7370  0.00  0.00     0.000 C
ATOM     12   O  GAD B   1     -23.641  19.670  67.3640  0.00  0.00     0.000 OA
ATOM     13   O  GAD B   1     -25.736  19.388  68.1180  0.00  0.00     0.000 OA
ENDBRANCH 5 11
BRANCH 1 14
ATOM     14  O3  ASG B   2     -21.742  15.802  66.4340  0.00  0.00     0.000 O
BRANCH 14 17
ATOM     15  C1  ASG B   2     -19.299  18.651  65.9910  0.00  0.00     0.000 C
ATOM     16  C2  ASG B   2     -20.256  17.534  65.5510  0.00  0.00     0.000 C
ATOM     17  C3  ASG B   2     -20.837  16.852  66.7930  0.00  0.00     0.000 C
ATOM     18  C4  ASG B   2     -19.716  16.290  67.6470  0.00  0.00     0.000 C
ATOM     19  C5  ASG B   2     -18.721  17.403  67.9590  0.00  0.00     0.000 C
ATOM     20  O5  ASG B   2     -18.273  18.022  66.7370  0.00  0.00     0.000 O
ATOM     21   C  ASG B   2     -17.496  16.906  68.6570  0.00  0.00     0.000 C
ATOM     22   O  ASG B   2     -16.543  17.938  68.7190  0.00  0.00     0.000 O
ATOM     24  HD  ASG B   2     -15.871  18.473  68.8300  0.00  0.00     0.000 HD
BRANCH 16 26
ATOM     24   N  ASG B   2     -20.667  16.886  64.3260  0.00  0.00     0.000 N
ATOM     26  HD  ASG B   2     -20.563  16.451  65.0680  0.00  0.00     0.000 HD
ATOM     26   C  ASG B   2     -21.789  17.198  63.6500  0.00  0.00     0.000 C
ATOM     27   C  ASG B   2     -21.877  16.681  62.2550  0.00  0.00     0.000 C
ATOM     28   O  ASG B   2     -22.681  17.867  64.1560  0.00  0.00     0.000 OA
ENDBRANCH 16 26
BRANCH 18 29
ATOM     29   O  ASG B   2     -19.118  15.190  66.8780  0.00  0.00     0.000 O
ATOM     30   O  ASG B   2     -18.568  13.838  68.8560  0.00  0.00     0.000 OA
ATOM     31   O  ASG B   2     -20.417  13.191  67.4230  0.00  0.00     0.000 OA
ATOM     32   O  ASG B   2     -18.143  12.993  66.6260  0.00  0.00     0.000 OA
ATOM     33   S  ASG B   2     -19.072  13.709  67.5010  0.00  0.00     0.000 S
ENDBRANCH 18 29
BRANCH 15 34
ATOM     34  O4  ASG B   3     -18.716  19.344  64.9250  0.00  0.00     0.000 O
BRANCH 34 38
ATOM     35  C1  GCT B   3     -21.075  21.883  62.8390  0.00  0.00     0.000 C
ATOM     36  C2  GCT B   3     -19.593  22.130  62.6590  0.00  0.00     0.000 C
ATOM     37  C3  GCT B   3     -18.784  20.916  63.0920  0.00  0.00     0.000 C
ATOM     38  C4  GCT B   3     -19.073  20.620  64.5690  0.00  0.00     0.000 C
ATOM     39  C5  GCT B   3     -20.532  20.954  64.9530  0.00  0.00     0.000 C
ATOM     40  O5  GCT B   3     -21.301  20.829  63.7690  0.00  0.00     0.000 O
ATOM     41   O  GCT B   3     -19.392  22.388  61.2760  0.00  0.00     0.000 O
ATOM     43  HD  GCT B   3     -19.545  23.086  60.7870  0.00  0.00     0.000 HD
ATOM     43   O  GCT B   3     -17.388  21.178  62.8360  0.00  0.00     0.000 O
ATOM     45  HD  GCT B   3     -17.541  21.876  62.3470  0.00  0.00     0.000 HD
BRANCH 39 45
ATOM     45   C  GCT B   3     -20.818  22.294  65.5960  0.00  0.00     0.000 C
ATOM     46   O  GCT B   3     -19.870  23.124  65.7640  0.00  0.00     0.000 OA
ATOM     47   O  GCT B   3     -21.990  22.537  65.9280  0.00  0.00     0.000 OA
ENDBRANCH 39 45
BRANCH 35 48
ATOM     48  O3  ASG B   4     -21.725  23.020  62.7110  0.00  0.00     0.000 O
BRANCH 48 51
ATOM     49  C1  ASG B   4     -24.233  22.379  60.0690  0.00  0.00     0.000 C
ATOM     50  C2  ASG B   4     -22.872  22.462  60.7790  0.00  0.00     0.000 C
ATOM     51  C3  ASG B   4     -23.043  22.750  62.2680  0.00  0.00     0.000 C
ATOM     52  C4  ASG B   4     -23.967  23.936  62.4970  0.00  0.00     0.000 C
ATOM     53  C5  ASG B   4     -25.277  23.666  61.7630  0.00  0.00     0.000 C
ATOM     54  O5  ASG B   4     -25.009  23.531  60.3530  0.00  0.00     0.000 O
BRANCH 50 57
ATOM     55   N  ASG B   4     -22.759  21.224  60.0430  0.00  0.00     0.000 N
ATOM     57  HD  ASG B   4     -22.427  21.554  59.3140  0.00  0.00     0.000 HD
ATOM     57   O  ASG B   4     -21.065  21.921  58.7540  0.00  0.00     0.000 OA
ATOM     58   C  ASG B   4     -21.787  21.011  59.1510  0.00  0.00     0.000 C
ATOM     59   C  ASG B   4     -21.679  19.609  58.6340  0.00  0.00     0.000 C
ENDBRANCH 50 57
BRANCH 52 60
ATOM     60   O  ASG B   4     -23.190  25.088  61.9710  0.00  0.00     0.000 O
ATOM     61   O  ASG B   4     -23.156  26.241  64.1850  0.00  0.00     0.000 OA
ATOM     62   O  ASG B   4     -21.932  27.151  62.3560  0.00  0.00     0.000 OA
ATOM     63   O  ASG B   4     -24.319  27.063  62.2330  0.00  0.00     0.000 OA
ATOM     64   S  ASG B   4     -23.095  26.469  62.7800  0.00  0.00     0.000 S
ENDBRANCH 52 60
ATOM     65   O  ASG B   4     -27.614  24.267  61.5230  0.00  0.00     0.000 O
ATOM     67  HD  ASG B   4     -27.525  24.281  60.6620  0.00  0.00     0.000 HD
ATOM     67   O  ASG B   4     -27.614  24.267  61.5230  0.00  0.00     0.000 O
ATOM     69  HD  ASG B   4     -27.525  24.281  60.6620  0.00  0.00     0.000 HD
ENDBRANCH 48 51
ENDBRANCH 35 48
ENDBRANCH 34 38
ENDBRANCH 15 34
ENDBRANCH 14 17
ENDBRANCH 1 14
TORSDOF 12
ENDMDL
MODEL 75
REMARK VINA RESULT:      -7.3     26.409     30.831
ROOT
ATOM      1  C1  GAD B   1     -21.158  46.263  57.5280  0.00  0.00     0.000 C
ATOM      2  C2  GAD B   1     -20.829  46.545  58.9970  0.00  0.00     0.000 C
ATOM      3  C3  GAD B   1     -22.042  46.223  59.8790  0.00  0.00     0.000 C
ATOM      4  C4  GAD B   1     -23.397  46.460  59.2060  0.00  0.00     0.000 C
ATOM      5  C5  GAD B   1     -23.554  46.772  57.9040  0.00  0.00     0.000 C
ATOM      6  O5  GAD B   1     -22.358  46.935  57.1180  0.00  0.00     0.000 O
ATOM      7   O  GAD B   1     -19.608  45.833  59.4220  0.00  0.00     0.000 O
ATOM      9  HD  GAD B   1     -19.523  45.758  58.5630  0.00  0.00     0.000 HD
ATOM      9   O  GAD B   1     -22.048  47.019  61.0850  0.00  0.00     0.000 O
ATOM     11  HD  GAD B   1     -21.963  46.944  60.2260  0.00  0.00     0.000 HD
ENDROOT
BRANCH 5 11
ATOM     11   C  GAD B   1     -24.862  46.899  57.2190  0.00  0.00     0.000 C
ATOM     12   O  GAD B   1     -25.858  46.340  57.7750  0.00  0.00     0.000 OA
ATOM     13   O  GAD B   1     -24.938  47.483  56.0760  0.00  0.00     0.000 OA
ENDBRANCH 5 11
BRANCH 1 14
ATOM     14  O3  ASG B   2     -20.495  46.810  56.4920  0.00  0.00     0.000 O
BRANCH 14 17
ATOM     15  C1  ASG B   2     -17.335  48.677  55.5950  0.00  0.00     0.000 C
ATOM     16  C2  ASG B   2     -18.846  48.458  55.7460  0.00  0.00     0.000 C
ATOM     17  C3  ASG B   2     -19.095  47.063  56.3280  0.00  0.00     0.000 C
ATOM     18  C4  ASG B   2     -18.489  46.008  55.4220  0.00  0.00     0.000 C
ATOM     19  C5  ASG B   2     -17.015  46.332  55.1960  0.00  0.00     0.000 C
ATOM     20  O5  ASG B   2     -16.876  47.679  54.7020  0.00  0.00     0.000 O
ATOM     21   C  ASG B   2     -16.375  45.439  54.1810  0.00  0.00     0.000 C
ATOM     22   O  ASG B   2     -15.093  45.929  53.8720  0.00  0.00     0.000 O
ATOM     24  HD  ASG B   2     -14.295  46.111  53.5900  0.00  0.00     0.000 HD
BRANCH 16 26
ATOM     24   N  ASG B   2     -20.048  49.174  55.3850  0.00  0.00     0.000 N
ATOM     26  HD  ASG B   2     -19.977  48.315  55.2960  0.00  0.00     0.000 HD
ATOM     26   C  ASG B   2     -20.779  49.902  56.2490  0.00  0.00     0.000 C
ATOM     27   C  ASG B   2     -21.771  50.836  55.6450  0.00  0.00     0.000 C
ATOM     28   O  ASG B   2     -20.633  49.800  57.4610  0.00  0.00     0.000 OA
ENDBRANCH 16 26
BRANCH 18 29
ATOM     29   O  ASG B   2     -19.273  46.025  54.1800  0.00  0.00     0.000 O
ATOM     30   O  ASG B   2     -19.102  43.602  53.8000  0.00  0.00     0.000 OA
ATOM     31   O  ASG B   2     -21.195  44.564  54.5660  0.00  0.00     0.000 OA
ATOM     32   O  ASG B   2     -20.417  44.994  52.3180  0.00  0.00     0.000 OA
ATOM     33   S  ASG B   2     -20.046  44.700  53.7020  0.00  0.00     0.000 S
ENDBRANCH 18 29
BRANCH 15 34
ATOM     34  O4  ASG B   3     -16.998  49.931  55.0730  0.00  0.00     0.000 O
BRANCH 34 38
ATOM     35  C1  GCT B   3     -13.667  49.176  52.9060  0.00  0.00     0.000 C
ATOM     36  C2  GCT B   3     -13.402  49.435  54.3740  0.00  0.00     0.000 C
ATOM     37  C3  GCT B   3     -14.676  49.276  55.1910  0.00  0.00     0.000 C
ATOM     38  C4  GCT B   3     -15.728  50.270  54.6820  0.00  0.00     0.000 C
ATOM     39  C5  GCT B   3     -15.620  50.499  53.1570  0.00  0.00     0.000 C
ATOM     40  O5  GCT B   3     -15.052  49.321  52.6110  0.00  0.00     0.000 O
ATOM     41   O  GCT B   3     -12.432  48.480  54.7830  0.00  0.00     0.000 O
ATOM     43  HD  GCT B   3     -11.576  48.433  54.6600  0.00  0.00     0.000 HD
ATOM     43   O  GCT B   3     -14.355  49.464  56.5850  0.00  0.00     0.000 O
ATOM     45  HD  GCT B   3     -13.499  49.417  56.4620  0.00  0.00     0.000 HD
BRANCH 39 45
ATOM     45   C  GCT B   3     -14.847  51.702  52.6630  0.00  0.00     0.000 C
ATOM     46   O  GCT B   3     -14.783  51.938  51.4160  0.00  0.00     0.000 OA
ATOM     47   O  GCT B   3     -14.309  52.432  53.5120  0.00  0.00     0.000 OA
ENDBRANCH 39 45
BRANCH 35 48
ATOM     48  O3  ASG B   4     -12.630  49.572  52.2000  0.00  0.00     0.000 O
BRANCH 48 51
ATOM     49  C1  ASG B   4     -10.041  47.899  50.1530  0.00  0.00     0.000 C
ATOM     50  C2  ASG B   4     -10.685  48.867  51.1590  0.00  0.00     0.000 C
ATOM     51  C3  ASG B   4     -12.128  48.472  51.4600  0.00  0.00     0.000 C
ATOM     52  C4  ASG B   4     -12.917  48.251  50.1800  0.00  0.00     0.000 C
ATOM     53  C5  ASG B   4     -12.161  47.236  49.3270  0.00  0.00     0.000 C
ATOM     54  O5  ASG B   4     -10.861  47.766  49.0030  0.00  0.00     0.000 O
BRANCH 50 57
ATOM     55   N  ASG B   4     -10.822  50.274  51.4590  0.00  0.00     0.000 N
ATOM     57  HD  ASG B   4     -10.111  50.357  51.9470  0.00  0.00     0.000 HD
ATOM     57   O  ASG B   4      -8.629  50.621  51.7560  0.00  0.00     0.000 OA
ATOM     58   C  ASG B   4      -9.764  51.072  51.6330  0.00  0.00     0.000 C
ATOM     59   C  ASG B   4     -10.065  52.537  51.7220  0.00  0.00     0.000 C
ENDBRANCH 50 57
BRANCH 52 60
ATOM     60   O  ASG B   4     -13.007  49.610  49.5880  0.00  0.00     0.000 O
ATOM     61   O  ASG B   4     -15.278  49.187  48.6400  0.00  0.00     0.000 OA
ATOM     62   O  ASG B   4     -14.309  51.355  48.4720  0.00  0.00     0.000 OA
ATOM     63   O  ASG B   4     -13.286  49.529  47.3160  0.00  0.00     0.000 OA
ATOM     64   S  ASG B   4     -14.094  49.959  48.4620  0.00  0.00     0.000 S
ENDBRANCH 52 60
ATOM     65   O  ASG B   4     -12.274  45.685  47.4660  0.00  0.00     0.000 O
ATOM     67  HD  ASG B   4     -11.527  45.996  47.1570  0.00  0.00     0.000 HD
ATOM     67   O  ASG B   4     -12.274  45.685  47.4660  0.00  0.00     0.000 O
ATOM     69  HD  ASG B   4     -11.527  45.996  47.1570  0.00  0.00     0.000 HD
ENDBRANCH 48 51
ENDBRANCH 35 48
ENDBRANCH 34 38
ENDBRANCH 15 34
ENDBRANCH 14 17
ENDBRANCH 1 14
TORSDOF 12
ENDMDL
MODEL 76
REMARK VINA RESULT:      -7.2     16.555     20.970
ROOT
ATOM      1  C1  GAD B   1       8.385  48.949  83.7060  0.00  0.00     0.000 C
ATOM      2  C2  GAD B   1       7.940  48.876  85.1700  0.00  0.00     0.000 C
ATOM      3  C3  GAD B   1       7.936  50.278  85.7900  0.00  0.00     0.000 C
ATOM      4  C4  GAD B   1       9.001  51.224  85.2280  0.00  0.00     0.000 C
ATOM      5  C5  GAD B   1       9.787  50.940  84.1700  0.00  0.00     0.000 C
ATOM      6  O5  GAD B   1       9.636  49.639  83.5690  0.00  0.00     0.000 O
ATOM      7   O  GAD B   1       6.642  48.188  85.3040  0.00  0.00     0.000 O
ATOM      9  HD  GAD B   1       6.844  47.949  84.4960  0.00  0.00     0.000 HD
ATOM      9   O  GAD B   1       8.158  50.229  87.2170  0.00  0.00     0.000 O
ATOM     11  HD  GAD B   1       8.361  49.990  86.4100  0.00  0.00     0.000 HD
ENDROOT
BRANCH 5 11
ATOM     11   C  GAD B   1      10.744  51.887  83.5520  0.00  0.00     0.000 C
ATOM     12   O  GAD B   1      10.266  52.970  83.0920  0.00  0.00     0.000 OA
ATOM     13   O  GAD B   1      11.983  51.563  83.4280  0.00  0.00     0.000 OA
ENDBRANCH 5 11
BRANCH 1 14
ATOM     14  O3  ASG B   2       8.883  47.904  83.0190  0.00  0.00     0.000 O
BRANCH 14 17
ATOM     15  C1  ASG B   2       8.358  44.218  82.3750  0.00  0.00     0.000 C
ATOM     16  C2  ASG B   2       9.096  45.471  82.8660  0.00  0.00     0.000 C
ATOM     17  C3  ASG B   2       8.238  46.706  82.5750  0.00  0.00     0.000 C
ATOM     18  C4  ASG B   2       7.954  46.800  81.0870  0.00  0.00     0.000 C
ATOM     19  C5  ASG B   2       7.336  45.489  80.6130  0.00  0.00     0.000 C
ATOM     20  O5  ASG B   2       8.184  44.383  80.9800  0.00  0.00     0.000 O
ATOM     21   C  ASG B   2       7.175  45.428  79.1280  0.00  0.00     0.000 C
ATOM     22   O  ASG B   2       6.804  44.124  78.7530  0.00  0.00     0.000 O
ATOM     24  HD  ASG B   2       6.573  43.377  78.3810  0.00  0.00     0.000 HD
BRANCH 16 26
ATOM     24   N  ASG B   2       9.417  45.635  84.2650  0.00  0.00     0.000 N
ATOM     26  HD  ASG B   2       9.129  44.885  83.9410  0.00  0.00     0.000 HD
ATOM     26   C  ASG B   2      10.636  45.975  84.7230  0.00  0.00     0.000 C
ATOM     27   C  ASG B   2      10.700  46.430  86.1410  0.00  0.00     0.000 C
ATOM     28   O  ASG B   2      11.632  45.913  84.0130  0.00  0.00     0.000 OA
ENDBRANCH 16 26
BRANCH 18 29
ATOM     29   O  ASG B   2       9.238  47.093  80.4360  0.00  0.00     0.000 O
ATOM     30   O  ASG B   2       8.243  48.391  78.6020  0.00  0.00     0.000 OA
ATOM     31   O  ASG B   2       9.437  49.530  80.3820  0.00  0.00     0.000 OA
ATOM     32   O  ASG B   2      10.646  48.167  78.7930  0.00  0.00     0.000 OA
ATOM     33   S  ASG B   2       9.384  48.389  79.4980  0.00  0.00     0.000 S
ENDBRANCH 18 29
BRANCH 15 34
ATOM     34  O4  ASG B   3       9.059  43.029  82.6000  0.00  0.00     0.000 O
BRANCH 34 38
ATOM     35  C1  GCT B   3      12.173  40.642  81.6140  0.00  0.00     0.000 C
ATOM     36  C2  GCT B   3      12.445  41.555  82.7890  0.00  0.00     0.000 C
ATOM     37  C3  GCT B   3      11.145  42.087  83.3750  0.00  0.00     0.000 C
ATOM     38  C4  GCT B   3      10.386  42.865  82.2920  0.00  0.00     0.000 C
ATOM     39  C5  GCT B   3      10.597  42.259  80.8870  0.00  0.00     0.000 C
ATOM     40  O5  GCT B   3      10.877  40.883  81.0770  0.00  0.00     0.000 O
ATOM     41   O  GCT B   3      13.137  40.775  83.7540  0.00  0.00     0.000 O
ATOM     43  HD  GCT B   3      13.959  40.506  83.8030  0.00  0.00     0.000 HD
ATOM     43   O  GCT B   3      11.457  42.893  84.5300  0.00  0.00     0.000 O
ATOM     45  HD  GCT B   3      12.278  42.624  84.5790  0.00  0.00     0.000 HD
BRANCH 39 45
ATOM     45   C  GCT B   3      11.657  42.865  79.9930  0.00  0.00     0.000 C
ATOM     46   O  GCT B   3      11.860  42.374  78.8380  0.00  0.00     0.000 OA
ATOM     47   O  GCT B   3      12.288  43.844  80.4260  0.00  0.00     0.000 OA
ENDBRANCH 39 45
BRANCH 35 48
ATOM     48  O3  ASG B   4      13.298  40.412  80.9720  0.00  0.00     0.000 O
BRANCH 48 51
ATOM     49  C1  ASG B   4      15.258  37.276  80.8510  0.00  0.00     0.000 C
ATOM     50  C2  ASG B   4      14.844  38.707  81.2300  0.00  0.00     0.000 C
ATOM     51  C3  ASG B   4      13.428  39.018  80.7530  0.00  0.00     0.000 C
ATOM     52  C4  ASG B   4      13.251  38.660  79.2860  0.00  0.00     0.000 C
ATOM     53  C5  ASG B   4      13.662  37.203  79.1000  0.00  0.00     0.000 C
ATOM     54  O5  ASG B   4      15.048  37.053  79.4660  0.00  0.00     0.000 O
BRANCH 50 57
ATOM     55   N  ASG B   4      15.170  38.419  82.6080  0.00  0.00     0.000 N
ATOM     57  HD  ASG B   4      16.027  38.524  82.5470  0.00  0.00     0.000 HD
ATOM     57   O  ASG B   4      17.039  39.653  82.6260  0.00  0.00     0.000 OA
ATOM     58   C  ASG B   4      16.195  39.003  83.2360  0.00  0.00     0.000 C
ATOM     59   C  ASG B   4      16.271  38.765  84.7130  0.00  0.00     0.000 C
ENDBRANCH 50 57
BRANCH 52 60
ATOM     60   O  ASG B   4      14.116  39.642  78.5820  0.00  0.00     0.000 O
ATOM     61   O  ASG B   4      12.554  39.823  76.6440  0.00  0.00     0.000 OA
ATOM     62   O  ASG B   4      14.469  41.234  76.7590  0.00  0.00     0.000 OA
ATOM     63   O  ASG B   4      14.773  38.873  76.5270  0.00  0.00     0.000 OA
ATOM     64   S  ASG B   4      13.921  39.958  77.0230  0.00  0.00     0.000 S
ENDBRANCH 52 60
ATOM     65   O  ASG B   4      13.564  35.247  77.6690  0.00  0.00     0.000 O
ATOM     67  HD  ASG B   4      14.414  35.123  77.7750  0.00  0.00     0.000 HD
ATOM     67   O  ASG B   4      13.564  35.247  77.6690  0.00  0.00     0.000 O
ATOM     69  HD  ASG B   4      14.414  35.123  77.7750  0.00  0.00     0.000 HD
ENDBRANCH 48 51
ENDBRANCH 35 48
ENDBRANCH 34 38
ENDBRANCH 15 34
ENDBRANCH 14 17
ENDBRANCH 1 14
TORSDOF 12
ENDMDL
MODEL 77
REMARK VINA RESULT:      -7.1     14.166     20.146
ROOT
ATOM      1  C1  GAD B   1       8.932  49.135  86.6490  0.00  0.00     0.000 C
ATOM      2  C2  GAD B   1       8.464  48.714  88.0450  0.00  0.00     0.000 C
ATOM      3  C3  GAD B   1       7.867  49.917  88.7860  0.00  0.00     0.000 C
ATOM      4  C4  GAD B   1       8.503  51.263  88.4260  0.00  0.00     0.000 C
ATOM      5  C5  GAD B   1       9.400  51.438  87.4360  0.00  0.00     0.000 C
ATOM      6  O5  GAD B   1       9.814  50.267  86.7070  0.00  0.00     0.000 O
ATOM      7   O  GAD B   1       7.538  47.567  87.9790  0.00  0.00     0.000 O
ATOM      9  HD  GAD B   1       7.868  47.528  87.1790  0.00  0.00     0.000 HD
ATOM      9   O  GAD B   1       8.003  49.780  90.2180  0.00  0.00     0.000 O
ATOM     11  HD  GAD B   1       8.333  49.740  89.4180  0.00  0.00     0.000 HD
ENDROOT
BRANCH 5 11
ATOM     11   C  GAD B   1       9.941  52.751  87.0100  0.00  0.00     0.000 C
ATOM     12   O  GAD B   1      10.614  53.401  87.8690  0.00  0.00     0.000 OA
ATOM     13   O  GAD B   1       9.657  53.220  85.8470  0.00  0.00     0.000 OA
ENDBRANCH 5 11
BRANCH 1 14
ATOM     14  O3  ASG B   2       9.844  48.459  85.9260  0.00  0.00     0.000 O
BRANCH 14 17
ATOM     15  C1  ASG B   2      10.826  44.984  84.8140  0.00  0.00     0.000 C
ATOM     16  C2  ASG B   2      10.990  46.334  85.5240  0.00  0.00     0.000 C
ATOM     17  C3  ASG B   2       9.741  47.185  85.2790  0.00  0.00     0.000 C
ATOM     18  C4  ASG B   2       9.535  47.386  83.7890  0.00  0.00     0.000 C
ATOM     19  C5  ASG B   2       9.502  46.024  83.1030  0.00  0.00     0.000 C
ATOM     20  O5  ASG B   2      10.688  45.275  83.4350  0.00  0.00     0.000 O
ATOM     21   C  ASG B   2       9.470  46.128  81.6110  0.00  0.00     0.000 C
ATOM     22   O  ASG B   2       9.656  44.851  81.0510  0.00  0.00     0.000 O
ATOM     24  HD  ASG B   2       9.756  44.136  80.5740  0.00  0.00     0.000 HD
BRANCH 16 26
ATOM     24   N  ASG B   2      11.238  46.285  86.9470  0.00  0.00     0.000 N
ATOM     26  HD  ASG B   2      11.390  45.609  86.4270  0.00  0.00     0.000 HD
ATOM     26   C  ASG B   2      12.097  47.098  87.5900  0.00  0.00     0.000 C
ATOM     27   C  ASG B   2      11.973  47.140  89.0740  0.00  0.00     0.000 C
ATOM     28   O  ASG B   2      12.930  47.762  86.9860  0.00  0.00     0.000 OA
ENDBRANCH 16 26
BRANCH 18 29
ATOM     29   O  ASG B   2      10.644  48.231  83.3260  0.00  0.00     0.000 O
ATOM     30   O  ASG B   2       9.360  49.264  81.5010  0.00  0.00     0.000 OA
ATOM     31   O  ASG B   2       9.861  50.541  83.5030  0.00  0.00     0.000 OA
ATOM     32   O  ASG B   2      11.632  49.964  81.9620  0.00  0.00     0.000 OA
ATOM     33   S  ASG B   2      10.334  49.590  82.5250  0.00  0.00     0.000 S
ENDBRANCH 18 29
BRANCH 15 34
ATOM     34  O4  ASG B   3      11.918  44.124  84.9810  0.00  0.00     0.000 O
BRANCH 34 38
ATOM     35  C1  GCT B   3      10.689  40.313  84.4120  0.00  0.00     0.000 C
ATOM     36  C2  GCT B   3      12.177  40.451  84.6520  0.00  0.00     0.000 C
ATOM     37  C3  GCT B   3      12.502  41.799  85.2790  0.00  0.00     0.000 C
ATOM     38  C4  GCT B   3      12.033  42.917  84.3390  0.00  0.00     0.000 C
ATOM     39  C5  GCT B   3      10.748  42.530  83.5720  0.00  0.00     0.000 C
ATOM     40  O5  GCT B   3      10.062  41.590  84.3810  0.00  0.00     0.000 O
ATOM     41   O  GCT B   3      12.543  39.398  85.5320  0.00  0.00     0.000 O
ATOM     43  HD  GCT B   3      12.666  38.550  85.4040  0.00  0.00     0.000 HD
ATOM     43   O  GCT B   3      13.918  41.851  85.5500  0.00  0.00     0.000 O
ATOM     45  HD  GCT B   3      14.041  41.004  85.4220  0.00  0.00     0.000 HD
BRANCH 39 45
ATOM     45   C  GCT B   3      10.886  41.978  82.1700  0.00  0.00     0.000 C
ATOM     46   O  GCT B   3      12.043  41.736  81.7020  0.00  0.00     0.000 OA
ATOM     47   O  GCT B   3       9.845  41.767  81.5280  0.00  0.00     0.000 OA
ENDBRANCH 39 45
BRANCH 35 48
ATOM     48  O3  ASG B   4      10.468  39.270  83.6410  0.00  0.00     0.000 O
BRANCH 48 51
ATOM     49  C1  ASG B   4       7.452  37.392  84.6730  0.00  0.00     0.000 C
ATOM     50  C2  ASG B   4       8.872  37.980  84.7130  0.00  0.00     0.000 C
ATOM     51  C3  ASG B   4       9.076  39.009  83.6050  0.00  0.00     0.000 C
ATOM     52  C4  ASG B   4       8.641  38.460  82.2560  0.00  0.00     0.000 C
ATOM     53  C5  ASG B   4       7.203  37.964  82.3870  0.00  0.00     0.000 C
ATOM     54  O5  ASG B   4       7.154  36.914  83.3720  0.00  0.00     0.000 O
BRANCH 50 57
ATOM     55   N  ASG B   4       8.902  38.492  86.0640  0.00  0.00     0.000 N
ATOM     57  HD  ASG B   4       8.947  37.730  86.4740  0.00  0.00     0.000 HD
ATOM     57   O  ASG B   4      10.010  36.739  86.9090  0.00  0.00     0.000 OA
ATOM     58   C  ASG B   4       9.566  37.874  87.0460  0.00  0.00     0.000 C
ATOM     59   C  ASG B   4       9.681  38.638  88.3300  0.00  0.00     0.000 C
ENDBRANCH 50 57
BRANCH 52 60
ATOM     60   O  ASG B   4       9.639  37.394  81.9770  0.00  0.00     0.000 O
ATOM     61   O  ASG B   4      10.646  38.657  80.0740  0.00  0.00     0.000 OA
ATOM     62   O  ASG B   4      11.631  36.612  80.7940  0.00  0.00     0.000 OA
ATOM     63   O  ASG B   4       9.435  36.578  79.8470  0.00  0.00     0.000 OA
ATOM     64   S  ASG B   4      10.440  37.345  80.5900  0.00  0.00     0.000 S
ENDBRANCH 52 60
ATOM     65   O  ASG B   4       5.182  37.313  81.2160  0.00  0.00     0.000 O
ATOM     67  HD  ASG B   4       5.113  36.612  81.7190  0.00  0.00     0.000 HD
ATOM     67   O  ASG B   4       5.182  37.313  81.2160  0.00  0.00     0.000 O
ATOM     69  HD  ASG B   4       5.113  36.612  81.7190  0.00  0.00     0.000 HD
ENDBRANCH 48 51
ENDBRANCH 35 48
ENDBRANCH 34 38
ENDBRANCH 15 34
ENDBRANCH 14 17
ENDBRANCH 1 14
TORSDOF 12
ENDMDL
MODEL 78
REMARK VINA RESULT:      -7.1     14.583     18.552
ROOT
ATOM      1  C1  GAD B   1      10.500  47.623  79.2480  0.00  0.00     0.000 C
ATOM      2  C2  GAD B   1      11.520  46.896  78.3650  0.00  0.00     0.000 C
ATOM      3  C3  GAD B   1      11.768  47.696  77.0810  0.00  0.00     0.000 C
ATOM      4  C4  GAD B   1      10.555  48.484  76.5790  0.00  0.00     0.000 C
ATOM      5  C5  GAD B   1       9.401  48.618  77.2620  0.00  0.00     0.000 C
ATOM      6  O5  GAD B   1       9.300  47.930  78.5240  0.00  0.00     0.000 O
ATOM      7   O  GAD B   1      12.762  46.605  79.1060  0.00  0.00     0.000 O
ATOM      9  HD  GAD B   1      12.242  46.791  79.7730  0.00  0.00     0.000 HD
ATOM      9   O  GAD B   1      12.166  46.836  75.9890  0.00  0.00     0.000 O
ATOM     11  HD  GAD B   1      11.646  47.023  76.6560  0.00  0.00     0.000 HD
ENDROOT
BRANCH 5 11
ATOM     11   C  GAD B   1       8.262  49.464  76.8360  0.00  0.00     0.000 C
ATOM     12   O  GAD B   1       8.501  50.697  76.6460  0.00  0.00     0.000 OA
ATOM     13   O  GAD B   1       7.080  48.962  76.7520  0.00  0.00     0.000 OA
ENDBRANCH 5 11
BRANCH 1 14
ATOM     14  O3  ASG B   2       9.771  47.021  80.2060  0.00  0.00     0.000 O
BRANCH 14 17
ATOM     15  C1  ASG B   2       9.459  43.849  82.2370  0.00  0.00     0.000 C
ATOM     16  C2  ASG B   2       9.016  44.942  81.2540  0.00  0.00     0.000 C
ATOM     17  C3  ASG B   2      10.136  45.978  81.1180  0.00  0.00     0.000 C
ATOM     18  C4  ASG B   2      10.455  46.576  82.4750  0.00  0.00     0.000 C
ATOM     19  C5  ASG B   2      10.768  45.450  83.4550  0.00  0.00     0.000 C
ATOM     20  O5  ASG B   2       9.687  44.498  83.4740  0.00  0.00     0.000 O
ATOM     21   C  ASG B   2      10.933  45.934  84.8600  0.00  0.00     0.000 C
ATOM     22   O  ASG B   2      11.005  44.830  85.7280  0.00  0.00     0.000 O
ATOM     24  HD  ASG B   2      11.066  44.253  86.3710  0.00  0.00     0.000 HD
BRANCH 16 26
ATOM     24   N  ASG B   2       7.804  45.271  80.5400  0.00  0.00     0.000 N
ATOM     26  HD  ASG B   2       8.295  45.875  80.9200  0.00  0.00     0.000 HD
ATOM     26   C  ASG B   2       7.603  45.007  79.2360  0.00  0.00     0.000 C
ATOM     27   C  ASG B   2       6.195  45.098  78.7580  0.00  0.00     0.000 C
ATOM     28   O  ASG B   2       8.527  44.709  78.4890  0.00  0.00     0.000 OA
ENDBRANCH 16 26
BRANCH 18 29
ATOM     29   O  ASG B   2       9.280  47.365  82.8700  0.00  0.00     0.000 O
ATOM     30   O  ASG B   2      10.582  49.106  84.0170  0.00  0.00     0.000 OA
ATOM     31   O  ASG B   2       9.570  49.574  81.8610  0.00  0.00     0.000 OA
ATOM     32   O  ASG B   2       8.177  49.295  83.8170  0.00  0.00     0.000 OA
ATOM     33   S  ASG B   2       9.430  48.940  83.1510  0.00  0.00     0.000 S
ENDBRANCH 18 29
BRANCH 15 34
ATOM     34  O4  ASG B   3       8.504  42.845  82.4280  0.00  0.00     0.000 O
BRANCH 34 38
ATOM     35  C1  GCT B   3       9.893  39.138  81.5950  0.00  0.00     0.000 C
ATOM     36  C2  GCT B   3       9.814  40.051  80.3910  0.00  0.00     0.000 C
ATOM     37  C3  GCT B   3       9.714  41.508  80.8210  0.00  0.00     0.000 C
ATOM     38  C4  GCT B   3       8.459  41.694  81.6820  0.00  0.00     0.000 C
ATOM     39  C5  GCT B   3       8.155  40.445  82.5400  0.00  0.00     0.000 C
ATOM     40  O5  GCT B   3       9.392  39.791  82.7560  0.00  0.00     0.000 O
ATOM     41   O  GCT B   3      11.003  39.838  79.6440  0.00  0.00     0.000 O
ATOM     43  HD  GCT B   3      11.250  39.199  79.1140  0.00  0.00     0.000 HD
ATOM     43   O  GCT B   3       9.712  42.337  79.6390  0.00  0.00     0.000 O
ATOM     45  HD  GCT B   3       9.958  41.698  79.1090  0.00  0.00     0.000 HD
BRANCH 39 45
ATOM     45   C  GCT B   3       7.144  39.445  82.0220  0.00  0.00     0.000 C
ATOM     46   O  GCT B   3       6.965  38.353  82.6470  0.00  0.00     0.000 OA
ATOM     47   O  GCT B   3       6.510  39.743  80.9960  0.00  0.00     0.000 OA
ENDBRANCH 39 45
BRANCH 35 48
ATOM     48  O3  ASG B   4       9.713  37.893  81.2090  0.00  0.00     0.000 O
BRANCH 48 51
ATOM     49  C1  ASG B   4      12.145  35.142  81.6630  0.00  0.00     0.000 C
ATOM     50  C2  ASG B   4      11.372  36.292  80.9960  0.00  0.00     0.000 C
ATOM     51  C3  ASG B   4      10.513  37.042  82.0110  0.00  0.00     0.000 C
ATOM     52  C4  ASG B   4       9.666  36.082  82.8310  0.00  0.00     0.000 C
ATOM     53  C5  ASG B   4      10.594  35.042  83.4520  0.00  0.00     0.000 C
ATOM     54  O5  ASG B   4      11.259  34.315  82.4000  0.00  0.00     0.000 O
BRANCH 50 57
ATOM     55   N  ASG B   4      12.536  36.946  80.4460  0.00  0.00     0.000 N
ATOM     57  HD  ASG B   4      12.681  36.394  79.7950  0.00  0.00     0.000 HD
ATOM     57   O  ASG B   4      12.220  36.184  78.3640  0.00  0.00     0.000 OA
ATOM     58   C  ASG B   4      12.815  36.927  79.1390  0.00  0.00     0.000 C
ATOM     59   C  ASG B   4      13.930  37.826  78.7010  0.00  0.00     0.000 C
ENDBRANCH 50 57
BRANCH 52 60
ATOM     60   O  ASG B   4       8.701  35.538  81.8410  0.00  0.00     0.000 O
ATOM     61   O  ASG B   4       7.105  34.799  83.6120  0.00  0.00     0.000 OA
ATOM     62   O  ASG B   4       6.505  34.597  81.3170  0.00  0.00     0.000 OA
ATOM     63   O  ASG B   4       8.327  33.301  82.1640  0.00  0.00     0.000 OA
ATOM     64   S  ASG B   4       7.535  34.529  82.2810  0.00  0.00     0.000 S
ENDBRANCH 52 60
ATOM     65   O  ASG B   4      10.853  33.329  85.1490  0.00  0.00     0.000 O
ATOM     67  HD  ASG B   4      11.199  32.795  84.5620  0.00  0.00     0.000 HD
ATOM     67   O  ASG B   4      10.853  33.329  85.1490  0.00  0.00     0.000 O
ATOM     69  HD  ASG B   4      11.199  32.795  84.5620  0.00  0.00     0.000 HD
ENDBRANCH 48 51
ENDBRANCH 35 48
ENDBRANCH 34 38
ENDBRANCH 15 34
ENDBRANCH 14 17
ENDBRANCH 1 14
TORSDOF 12
ENDMDL
MODEL 79
REMARK VINA RESULT:      -7.1     23.680     27.083
ROOT
ATOM      1  C1  GAD B   1     -22.481  23.258  63.6130  0.00  0.00     0.000 C
ATOM      2  C2  GAD B   1     -22.222  24.334  64.6720  0.00  0.00     0.000 C
ATOM      3  C3  GAD B   1     -23.055  25.585  64.3660  0.00  0.00     0.000 C
ATOM      4  C4  GAD B   1     -23.295  25.840  62.8760  0.00  0.00     0.000 C
ATOM      5  C5  GAD B   1     -22.956  24.980  61.8940  0.00  0.00     0.000 C
ATOM      6  O5  GAD B   1     -22.284  23.767  62.2850  0.00  0.00     0.000 O
ATOM      7   O  GAD B   1     -22.449  23.814  66.0340  0.00  0.00     0.000 O
ATOM      9  HD  GAD B   1     -22.412  23.064  65.6020  0.00  0.00     0.000 HD
ATOM      9   O  GAD B   1     -22.427  26.780  64.8810  0.00  0.00     0.000 O
ATOM     11  HD  GAD B   1     -22.390  26.030  64.4490  0.00  0.00     0.000 HD
ENDROOT
BRANCH 5 11
ATOM     11   C  GAD B   1     -23.278  25.167  60.4600  0.00  0.00     0.000 C
ATOM     12   O  GAD B   1     -24.331  24.604  60.0290  0.00  0.00     0.000 OA
ATOM     13   O  GAD B   1     -22.466  25.807  59.6950  0.00  0.00     0.000 OA
ENDBRANCH 5 11
BRANCH 1 14
ATOM     14  O3  ASG B   2     -21.637  22.243  63.3510  0.00  0.00     0.000 O
BRANCH 14 17
ATOM     15  C1  ASG B   2     -19.830  20.470  60.5460  0.00  0.00     0.000 C
ATOM     16  C2  ASG B   2     -20.803  20.616  61.7240  0.00  0.00     0.000 C
ATOM     17  C3  ASG B   2     -20.741  22.053  62.2500  0.00  0.00     0.000 C
ATOM     18  C4  ASG B   2     -19.325  22.387  62.6800  0.00  0.00     0.000 C
ATOM     19  C5  ASG B   2     -18.373  22.110  61.5210  0.00  0.00     0.000 C
ATOM     20  O5  ASG B   2     -18.542  20.755  61.0580  0.00  0.00     0.000 O
ATOM     21   C  ASG B   2     -16.936  22.252  61.9060  0.00  0.00     0.000 C
ATOM     22   O  ASG B   2     -16.124  21.778  60.8600  0.00  0.00     0.000 O
ATOM     24  HD  ASG B   2     -15.509  21.526  60.3040  0.00  0.00     0.000 HD
BRANCH 16 26
ATOM     24   N  ASG B   2     -22.180  20.271  61.4550  0.00  0.00     0.000 N
ATOM     26  HD  ASG B   2     -21.526  19.976  60.9700  0.00  0.00     0.000 HD
ATOM     26   C  ASG B   2     -22.978  19.626  62.3260  0.00  0.00     0.000 C
ATOM     27   C  ASG B   2     -24.437  19.659  62.0260  0.00  0.00     0.000 C
ATOM     28   O  ASG B   2     -22.527  19.047  63.3060  0.00  0.00     0.000 OA
ENDBRANCH 16 26
BRANCH 18 29
ATOM     29   O  ASG B   2     -19.043  21.559  63.8610  0.00  0.00     0.000 O
ATOM     30   O  ASG B   2     -17.388  23.114  64.8050  0.00  0.00     0.000 OA
ATOM     31   O  ASG B   2     -19.592  22.935  65.8070  0.00  0.00     0.000 OA
ATOM     32   O  ASG B   2     -18.022  21.107  66.0040  0.00  0.00     0.000 OA
ATOM     33   S  ASG B   2     -18.479  22.242  65.2020  0.00  0.00     0.000 S
ENDBRANCH 18 29
BRANCH 15 34
ATOM     34  O4  ASG B   3     -19.814  19.187  59.9870  0.00  0.00     0.000 O
BRANCH 34 38
ATOM     35  C1  GCT B   3     -17.326  17.699  62.8080  0.00  0.00     0.000 C
ATOM     36  C2  GCT B   3     -16.870  17.443  61.3880  0.00  0.00     0.000 C
ATOM     37  C3  GCT B   3     -17.580  18.374  60.4150  0.00  0.00     0.000 C
ATOM     38  C4  GCT B   3     -19.093  18.144  60.5110  0.00  0.00     0.000 C
ATOM     39  C5  GCT B   3     -19.535  17.784  61.9480  0.00  0.00     0.000 C
ATOM     40  O5  GCT B   3     -18.584  18.366  62.8220  0.00  0.00     0.000 O
ATOM     41   O  GCT B   3     -15.470  17.682  61.3650  0.00  0.00     0.000 O
ATOM     43  HD  GCT B   3     -14.796  17.212  61.6420  0.00  0.00     0.000 HD
ATOM     43   O  GCT B   3     -17.059  18.137  59.0900  0.00  0.00     0.000 O
ATOM     45  HD  GCT B   3     -16.386  17.668  59.3660  0.00  0.00     0.000 HD
BRANCH 39 45
ATOM     45   C  GCT B   3     -19.710  16.323  62.3010  0.00  0.00     0.000 C
ATOM     46   O  GCT B   3     -19.403  15.430  61.4490  0.00  0.00     0.000 OA
ATOM     47   O  GCT B   3     -20.143  16.050  63.4320  0.00  0.00     0.000 OA
ENDBRANCH 39 45
BRANCH 35 48
ATOM     48  O3  ASG B   4     -16.906  16.722  63.5830  0.00  0.00     0.000 O
BRANCH 48 51
ATOM     49  C1  ASG B   4     -14.549  16.683  66.4350  0.00  0.00     0.000 C
ATOM     50  C2  ASG B   4     -15.147  16.383  65.0500  0.00  0.00     0.000 C
ATOM     51  C3  ASG B   4     -16.351  17.276  64.7640  0.00  0.00     0.000 C
ATOM     52  C4  ASG B   4     -17.342  17.249  65.9160  0.00  0.00     0.000 C
ATOM     53  C5  ASG B   4     -16.593  17.611  67.1950  0.00  0.00     0.000 C
ATOM     54  O5  ASG B   4     -15.559  16.634  67.4290  0.00  0.00     0.000 O
BRANCH 50 57
ATOM     55   N  ASG B   4     -14.055  16.588  64.1270  0.00  0.00     0.000 N
ATOM     57  HD  ASG B   4     -13.574  15.908  64.3650  0.00  0.00     0.000 HD
ATOM     57   O  ASG B   4     -13.466  14.429  64.0430  0.00  0.00     0.000 OA
ATOM     58   C  ASG B   4     -13.358  15.572  63.6090  0.00  0.00     0.000 C
ATOM     59   C  ASG B   4     -12.407  15.932  62.5090  0.00  0.00     0.000 C
ENDBRANCH 50 57
BRANCH 52 60
ATOM     60   O  ASG B   4     -17.876  15.863  65.8830  0.00  0.00     0.000 O
ATOM     61   O  ASG B   4     -20.031  16.530  66.9520  0.00  0.00     0.000 OA
ATOM     62   O  ASG B   4     -19.732  14.298  66.1800  0.00  0.00     0.000 OA
ATOM     63   O  ASG B   4     -18.380  15.099  67.9820  0.00  0.00     0.000 OA
ATOM     64   S  ASG B   4     -19.138  15.434  66.7730  0.00  0.00     0.000 S
ENDBRANCH 52 60
ATOM     65   O  ASG B   4     -16.775  18.346  69.4990  0.00  0.00     0.000 O
ATOM     67  HD  ASG B   4     -16.212  17.735  69.7420  0.00  0.00     0.000 HD
ATOM     67   O  ASG B   4     -16.775  18.346  69.4990  0.00  0.00     0.000 O
ATOM     69  HD  ASG B   4     -16.212  17.735  69.7420  0.00  0.00     0.000 HD
ENDBRANCH 48 51
ENDBRANCH 35 48
ENDBRANCH 34 38
ENDBRANCH 15 34
ENDBRANCH 14 17
ENDBRANCH 1 14
TORSDOF 12
ENDMDL
MODEL 80
REMARK VINA RESULT:      -7.1     30.509     34.933
ROOT
ATOM      1  C1  GAD B   1     -13.725  27.755  50.1880  0.00  0.00     0.000 C
ATOM      2  C2  GAD B   1     -12.571  28.026  51.1580  0.00  0.00     0.000 C
ATOM      3  C3  GAD B   1     -12.486  29.525  51.4700  0.00  0.00     0.000 C
ATOM      4  C4  GAD B   1     -12.917  30.439  50.3190  0.00  0.00     0.000 C
ATOM      5  C5  GAD B   1     -13.478  30.003  49.1740  0.00  0.00     0.000 C
ATOM      6  O5  GAD B   1     -13.634  28.580  49.0160  0.00  0.00     0.000 O
ATOM      7   O  GAD B   1     -12.683  27.195  52.3720  0.00  0.00     0.000 O
ATOM      9  HD  GAD B   1     -13.243  26.774  51.8630  0.00  0.00     0.000 HD
ATOM      9   O  GAD B   1     -11.139  29.921  51.8130  0.00  0.00     0.000 O
ATOM     11  HD  GAD B   1     -11.699  29.501  51.3030  0.00  0.00     0.000 HD
ENDROOT
BRANCH 5 11
ATOM     11   C  GAD B   1     -13.995  30.883  48.1000  0.00  0.00     0.000 C
ATOM     12   O  GAD B   1     -15.232  30.791  47.8260  0.00  0.00     0.000 OA
ATOM     13   O  GAD B   1     -13.190  31.636  47.4370  0.00  0.00     0.000 OA
ENDBRANCH 5 11
BRANCH 1 14
ATOM     14  O3  ASG B   2     -13.813  26.658  49.4130  0.00  0.00     0.000 O
BRANCH 14 17
ATOM     15  C1  ASG B   2     -11.967  24.222  47.1910  0.00  0.00     0.000 C
ATOM     16  C2  ASG B   2     -13.092  25.185  47.5970  0.00  0.00     0.000 C
ATOM     17  C3  ASG B   2     -12.791  25.749  48.9890  0.00  0.00     0.000 C
ATOM     18  C4  ASG B   2     -12.668  24.618  49.9910  0.00  0.00     0.000 C
ATOM     19  C5  ASG B   2     -11.630  23.618  49.4900  0.00  0.00     0.000 C
ATOM     20  O5  ASG B   2     -11.964  23.187  48.1570  0.00  0.00     0.000 O
ATOM     21   C  ASG B   2     -11.560  22.385  50.3320  0.00  0.00     0.000 C
ATOM     22   O  ASG B   2     -10.746  21.431  49.6940  0.00  0.00     0.000 O
ATOM     24  HD  ASG B   2     -10.274  20.758  49.4220  0.00  0.00     0.000 HD
BRANCH 16 26
ATOM     24   N  ASG B   2     -13.353  26.237  46.6430  0.00  0.00     0.000 N
ATOM     26  HD  ASG B   2     -13.003  25.480  46.4110  0.00  0.00     0.000 HD
ATOM     26   C  ASG B   2     -14.576  26.742  46.3940  0.00  0.00     0.000 C
ATOM     27   C  ASG B   2     -14.614  28.032  45.6500  0.00  0.00     0.000 C
ATOM     28   O  ASG B   2     -15.596  26.170  46.7610  0.00  0.00     0.000 OA
ENDBRANCH 16 26
BRANCH 18 29
ATOM     29   O  ASG B   2     -14.008  24.029  50.1230  0.00  0.00     0.000 O
ATOM     30   O  ASG B   2     -13.730  23.424  52.4890  0.00  0.00     0.000 OA
ATOM     31   O  ASG B   2     -15.142  25.301  51.8770  0.00  0.00     0.000 OA
ATOM     32   O  ASG B   2     -15.837  23.044  51.3570  0.00  0.00     0.000 OA
ATOM     33   S  ASG B   2     -14.713  23.958  51.5650  0.00  0.00     0.000 S
ENDBRANCH 18 29
BRANCH 15 34
ATOM     34  O4  ASG B   3     -12.144  23.653  45.9260  0.00  0.00     0.000 O
BRANCH 34 38
ATOM     35  C1  GCT B   3      -8.561  21.793  45.6670  0.00  0.00     0.000 C
ATOM     36  C2  GCT B   3      -8.639  23.090  44.8910  0.00  0.00     0.000 C
ATOM     37  C3  GCT B   3      -9.811  23.937  45.3680  0.00  0.00     0.000 C
ATOM     38  C4  GCT B   3     -11.113  23.150  45.1740  0.00  0.00     0.000 C
ATOM     39  C5  GCT B   3     -10.910  21.633  45.3870  0.00  0.00     0.000 C
ATOM     40  O5  GCT B   3      -9.813  21.491  46.2720  0.00  0.00     0.000 O
ATOM     41   O  GCT B   3      -7.414  23.772  45.1200  0.00  0.00     0.000 O
ATOM     43  HD  GCT B   3      -6.617  23.657  44.8020  0.00  0.00     0.000 HD
ATOM     43   O  GCT B   3      -9.798  25.187  44.6470  0.00  0.00     0.000 O
ATOM     45  HD  GCT B   3      -9.001  25.072  44.3290  0.00  0.00     0.000 HD
BRANCH 39 45
ATOM     45   C  GCT B   3     -10.689  20.759  44.1710  0.00  0.00     0.000 C
ATOM     46   O  GCT B   3     -10.652  21.289  43.0160  0.00  0.00     0.000 OA
ATOM     47   O  GCT B   3     -10.536  19.540  44.3560  0.00  0.00     0.000 OA
ENDBRANCH 39 45
BRANCH 35 48
ATOM     48  O3  ASG B   4      -7.719  20.978  45.0680  0.00  0.00     0.000 O
BRANCH 48 51
ATOM     49  C1  ASG B   4      -5.741  20.176  48.0900  0.00  0.00     0.000 C
ATOM     50  C2  ASG B   4      -6.575  20.983  47.0800  0.00  0.00     0.000 C
ATOM     51  C3  ASG B   4      -7.194  20.073  46.0240  0.00  0.00     0.000 C
ATOM     52  C4  ASG B   4      -6.153  19.151  45.4120  0.00  0.00     0.000 C
ATOM     53  C5  ASG B   4      -5.458  18.402  46.5450  0.00  0.00     0.000 C
ATOM     54  O5  ASG B   4      -4.807  19.353  47.4100  0.00  0.00     0.000 O
BRANCH 50 57
ATOM     55   N  ASG B   4      -5.358  21.744  47.2520  0.00  0.00     0.000 N
ATOM     57  HD  ASG B   4      -5.703  22.534  47.1630  0.00  0.00     0.000 HD
ATOM     57   O  ASG B   4      -6.385  23.576  48.0300  0.00  0.00     0.000 OA
ATOM     58   C  ASG B   4      -5.348  22.955  47.8170  0.00  0.00     0.000 C
ATOM     59   C  ASG B   4      -3.993  23.518  48.1170  0.00  0.00     0.000 C
ENDBRANCH 50 57
BRANCH 52 60
ATOM     60   O  ASG B   4      -5.273  20.077  44.6520  0.00  0.00     0.000 O
ATOM     61   O  ASG B   4      -4.715  18.348  42.9400  0.00  0.00     0.000 OA
ATOM     62   O  ASG B   4      -3.935  20.581  42.6670  0.00  0.00     0.000 OA
ATOM     63   O  ASG B   4      -3.130  19.282  44.5060  0.00  0.00     0.000 OA
ATOM     64   S  ASG B   4      -4.227  19.531  43.5660  0.00  0.00     0.000 S
ENDBRANCH 52 60
ATOM     65   O  ASG B   4      -4.071  16.509  47.1570  0.00  0.00     0.000 O
ATOM     67  HD  ASG B   4      -3.578  17.025  47.6480  0.00  0.00     0.000 HD
ATOM     67   O  ASG B   4      -4.071  16.509  47.1570  0.00  0.00     0.000 O
ATOM     69  HD  ASG B   4      -3.578  17.025  47.6480  0.00  0.00     0.000 HD
ENDBRANCH 48 51
ENDBRANCH 35 48
ENDBRANCH 34 38
ENDBRANCH 15 34
ENDBRANCH 14 17
ENDBRANCH 1 14
TORSDOF 12
ENDMDL
MODEL 81
REMARK VINA RESULT:      -7.1     21.797     26.478
ROOT
ATOM      1  C1  GAD B   1     -30.448  28.496  73.9760  0.00  0.00     0.000 C
ATOM      2  C2  GAD B   1     -29.691  27.364  73.2740  0.00  0.00     0.000 C
ATOM      3  C3  GAD B   1     -28.275  27.241  73.8490  0.00  0.00     0.000 C
ATOM      4  C4  GAD B   1     -27.664  28.564  74.3210  0.00  0.00     0.000 C
ATOM      5  C5  GAD B   1     -28.338  29.729  74.3890  0.00  0.00     0.000 C
ATOM      6  O5  GAD B   1     -29.707  29.725  73.9420  0.00  0.00     0.000 O
ATOM      7   O  GAD B   1     -30.444  26.096  73.3320  0.00  0.00     0.000 O
ATOM      9  HD  GAD B   1     -31.076  26.645  73.5530  0.00  0.00     0.000 HD
ATOM      9   O  GAD B   1     -27.352  26.698  72.8780  0.00  0.00     0.000 O
ATOM     11  HD  GAD B   1     -27.985  27.247  73.0990  0.00  0.00     0.000 HD
ENDROOT
BRANCH 5 11
ATOM     11   C  GAD B   1     -27.790  30.989  74.9430  0.00  0.00     0.000 C
ATOM     12   O  GAD B   1     -26.597  30.955  75.3780  0.00  0.00     0.000 OA
ATOM     13   O  GAD B   1     -28.537  32.031  75.0410  0.00  0.00     0.000 OA
ENDBRANCH 5 11
BRANCH 1 14
ATOM     14  O3  ASG B   2     -31.517  29.123  73.4510  0.00  0.00     0.000 O
BRANCH 14 17
ATOM     15  C1  ASG B   2     -32.654  32.721  73.2480  0.00  0.00     0.000 C
ATOM     16  C2  ASG B   2     -32.558  31.304  73.8330  0.00  0.00     0.000 C
ATOM     17  C3  ASG B   2     -31.643  30.456  72.9440  0.00  0.00     0.000 C
ATOM     18  C4  ASG B   2     -32.189  30.414  71.5300  0.00  0.00     0.000 C
ATOM     19  C5  ASG B   2     -32.388  31.842  71.0300  0.00  0.00     0.000 C
ATOM     20  O5  ASG B   2     -33.212  32.578  71.9550  0.00  0.00     0.000 O
ATOM     21   C  ASG B   2     -33.079  31.901  69.7050  0.00  0.00     0.000 C
ATOM     22   O  ASG B   2     -33.415  33.235  69.4140  0.00  0.00     0.000 O
ATOM     24  HD  ASG B   2     -33.679  34.000  69.1060  0.00  0.00     0.000 HD
BRANCH 16 26
ATOM     24   N  ASG B   2     -32.183  31.282  75.2280  0.00  0.00     0.000 N
ATOM     26  HD  ASG B   2     -32.611  31.947  74.8750  0.00  0.00     0.000 HD
ATOM     26   C  ASG B   2     -32.597  30.347  76.1030  0.00  0.00     0.000 C
ATOM     27   C  ASG B   2     -31.851  30.280  77.3920  0.00  0.00     0.000 C
ATOM     28   O  ASG B   2     -33.532  29.597  75.8510  0.00  0.00     0.000 OA
ENDBRANCH 16 26
BRANCH 18 29
ATOM     29   O  ASG B   2     -33.443  29.651  71.5890  0.00  0.00     0.000 O
ATOM     30   O  ASG B   2     -33.109  28.548  69.4170  0.00  0.00     0.000 OA
ATOM     31   O  ASG B   2     -32.812  27.291  71.4730  0.00  0.00     0.000 OA
ATOM     32   O  ASG B   2     -35.022  28.002  70.7990  0.00  0.00     0.000 OA
ATOM     33   S  ASG B   2     -33.586  28.281  70.7610  0.00  0.00     0.000 S
ENDBRANCH 18 29
BRANCH 15 34
ATOM     34  O4  ASG B   3     -33.467  33.582  73.9930  0.00  0.00     0.000 O
BRANCH 34 38
ATOM     35  C1  GCT B   3     -31.520  35.617  76.8970  0.00  0.00     0.000 C
ATOM     36  C2  GCT B   3     -32.905  36.147  76.5950  0.00  0.00     0.000 C
ATOM     37  C3  GCT B   3     -33.730  35.113  75.8430  0.00  0.00     0.000 C
ATOM     38  C4  GCT B   3     -33.023  34.764  74.5270  0.00  0.00     0.000 C
ATOM     39  C5  GCT B   3     -31.484  34.809  74.6670  0.00  0.00     0.000 C
ATOM     40  O5  GCT B   3     -31.193  34.539  76.0270  0.00  0.00     0.000 O
ATOM     41   O  GCT B   3     -33.506  36.440  77.8490  0.00  0.00     0.000 O
ATOM     43  HD  GCT B   3     -33.401  37.096  78.4040  0.00  0.00     0.000 HD
ATOM     43   O  GCT B   3     -35.058  35.641  75.6430  0.00  0.00     0.000 O
ATOM     45  HD  GCT B   3     -34.953  36.297  76.1980  0.00  0.00     0.000 HD
BRANCH 39 45
ATOM     45   C  GCT B   3     -30.759  36.067  74.2410  0.00  0.00     0.000 C
ATOM     46   O  GCT B   3     -31.428  37.069  73.8360  0.00  0.00     0.000 OA
ATOM     47   O  GCT B   3     -29.519  36.074  74.3180  0.00  0.00     0.000 OA
ENDBRANCH 39 45
BRANCH 35 48
ATOM     48  O3  ASG B   4     -30.754  36.606  77.3030  0.00  0.00     0.000 O
BRANCH 48 51
ATOM     49  C1  ASG B   4     -29.768  36.142  80.8390  0.00  0.00     0.000 C
ATOM     50  C2  ASG B   4     -30.655  36.379  79.6050  0.00  0.00     0.000 C
ATOM     51  C3  ASG B   4     -29.882  36.129  78.3130  0.00  0.00     0.000 C
ATOM     52  C4  ASG B   4     -28.558  36.876  78.3110  0.00  0.00     0.000 C
ATOM     53  C5  ASG B   4     -27.794  36.491  79.5750  0.00  0.00     0.000 C
ATOM     54  O5  ASG B   4     -28.563  36.883  80.7290  0.00  0.00     0.000 O
BRANCH 50 57
ATOM     55   N  ASG B   4     -31.075  37.687  80.0540  0.00  0.00     0.000 N
ATOM     57  HD  ASG B   4     -31.926  37.580  79.9390  0.00  0.00     0.000 HD
ATOM     57   O  ASG B   4     -33.112  37.023  80.7050  0.00  0.00     0.000 OA
ATOM     58   C  ASG B   4     -32.243  37.889  80.6700  0.00  0.00     0.000 C
ATOM     59   C  ASG B   4     -32.436  39.251  81.2620  0.00  0.00     0.000 C
ENDBRANCH 50 57
BRANCH 52 60
ATOM     60   O  ASG B   4     -28.964  38.304  78.2450  0.00  0.00     0.000 O
ATOM     61   O  ASG B   4     -27.142  38.882  76.6400  0.00  0.00     0.000 OA
ATOM     62   O  ASG B   4     -28.765  40.521  77.2310  0.00  0.00     0.000 OA
ATOM     63   O  ASG B   4     -27.274  39.698  78.9100  0.00  0.00     0.000 OA
ATOM     64   S  ASG B   4     -27.981  39.424  77.6560  0.00  0.00     0.000 S
ENDBRANCH 52 60
ATOM     65   O  ASG B   4     -25.646  36.456  80.6990  0.00  0.00     0.000 O
ATOM     67  HD  ASG B   4     -26.015  36.762  81.4200  0.00  0.00     0.000 HD
ATOM     67   O  ASG B   4     -25.646  36.456  80.6990  0.00  0.00     0.000 O
ATOM     69  HD  ASG B   4     -26.015  36.762  81.4200  0.00  0.00     0.000 HD
ENDBRANCH 48 51
ENDBRANCH 35 48
ENDBRANCH 34 38
ENDBRANCH 15 34
ENDBRANCH 14 17
ENDBRANCH 1 14
TORSDOF 12
ENDMDL
MODEL 82
REMARK VINA RESULT:      -7.1     26.903     31.463
ROOT
ATOM      1  C1  GAD B   1     -21.453  46.097  57.4170  0.00  0.00     0.000 C
ATOM      2  C2  GAD B   1     -20.948  46.521  58.7990  0.00  0.00     0.000 C
ATOM      3  C3  GAD B   1     -22.035  46.281  59.8540  0.00  0.00     0.000 C
ATOM      4  C4  GAD B   1     -23.467  46.446  59.3380  0.00  0.00     0.000 C
ATOM      5  C5  GAD B   1     -23.791  46.629  58.0430  0.00  0.00     0.000 C
ATOM      6  O5  GAD B   1     -22.707  46.720  57.0990  0.00  0.00     0.000 O
ATOM      7   O  GAD B   1     -19.672  45.859  59.1320  0.00  0.00     0.000 O
ATOM      9  HD  GAD B   1     -19.693  45.702  58.2810  0.00  0.00     0.000 HD
ATOM      9   O  GAD B   1     -21.904  47.190  60.9690  0.00  0.00     0.000 O
ATOM     11  HD  GAD B   1     -21.925  47.033  60.1180  0.00  0.00     0.000 HD
ENDROOT
BRANCH 5 11
ATOM     11   C  GAD B   1     -25.176  46.684  57.5190  0.00  0.00     0.000 C
ATOM     12   O  GAD B   1     -25.504  45.802  56.6660  0.00  0.00     0.000 OA
ATOM     13   O  GAD B   1     -25.962  47.640  57.8690  0.00  0.00     0.000 OA
ENDBRANCH 5 11
BRANCH 1 14
ATOM     14  O3  ASG B   2     -20.934  46.544  56.2580  0.00  0.00     0.000 O
BRANCH 14 17
ATOM     15  C1  ASG B   2     -17.858  46.938  54.0990  0.00  0.00     0.000 C
ATOM     16  C2  ASG B   2     -19.172  47.362  54.7700  0.00  0.00     0.000 C
ATOM     17  C3  ASG B   2     -19.707  46.196  55.6060  0.00  0.00     0.000 C
ATOM     18  C4  ASG B   2     -19.925  44.982  54.7240  0.00  0.00     0.000 C
ATOM     19  C5  ASG B   2     -18.631  44.668  53.9790  0.00  0.00     0.000 C
ATOM     20  O5  ASG B   2     -18.175  45.836  53.2680  0.00  0.00     0.000 O
ATOM     21   C  ASG B   2     -18.797  43.587  52.9600  0.00  0.00     0.000 C
ATOM     22   O  ASG B   2     -17.632  43.503  52.1760  0.00  0.00     0.000 O
ATOM     24  HD  ASG B   2     -16.986  43.339  51.6230  0.00  0.00     0.000 HD
BRANCH 16 26
ATOM     24   N  ASG B   2     -20.044  48.512  54.7150  0.00  0.00     0.000 N
ATOM     26  HD  ASG B   2     -20.349  47.702  54.7340  0.00  0.00     0.000 HD
ATOM     26   C  ASG B   2     -20.078  49.476  55.6540  0.00  0.00     0.000 C
ATOM     27   C  ASG B   2     -20.773  50.738  55.2720  0.00  0.00     0.000 C
ATOM     28   O  ASG B   2     -19.567  49.321  56.7560  0.00  0.00     0.000 OA
ENDBRANCH 16 26
BRANCH 18 29
ATOM     29   O  ASG B   2     -21.035  45.316  53.8210  0.00  0.00     0.000 O
ATOM     30   O  ASG B   2     -21.747  42.985  53.5050  0.00  0.00     0.000 OA
ATOM     31   O  ASG B   2     -23.065  44.476  54.8940  0.00  0.00     0.000 OA
ATOM     32   O  ASG B   2     -22.992  44.803  52.5000  0.00  0.00     0.000 OA
ATOM     33   S  ASG B   2     -22.288  44.318  53.6880  0.00  0.00     0.000 S
ENDBRANCH 18 29
BRANCH 15 34
ATOM     34  O4  ASG B   3     -17.281  47.939  53.3110  0.00  0.00     0.000 O
BRANCH 34 38
ATOM     35  C1  GCT B   3     -14.061  49.327  51.2940  0.00  0.00     0.000 C
ATOM     36  C2  GCT B   3     -13.926  47.893  51.7570  0.00  0.00     0.000 C
ATOM     37  C3  GCT B   3     -15.287  47.305  52.1040  0.00  0.00     0.000 C
ATOM     38  C4  GCT B   3     -15.927  48.141  53.2190  0.00  0.00     0.000 C
ATOM     39  C5  GCT B   3     -15.558  49.637  53.1070  0.00  0.00     0.000 C
ATOM     40  O5  GCT B   3     -15.292  49.887  51.7380  0.00  0.00     0.000 O
ATOM     41   O  GCT B   3     -13.339  47.175  50.6810  0.00  0.00     0.000 O
ATOM     43  HD  GCT B   3     -12.526  47.132  50.3860  0.00  0.00     0.000 HD
ATOM     43   O  GCT B   3     -15.110  45.921  52.4710  0.00  0.00     0.000 O
ATOM     45  HD  GCT B   3     -14.297  45.878  52.1760  0.00  0.00     0.000 HD
BRANCH 39 45
ATOM     45   C  GCT B   3     -14.411  50.160  53.9430  0.00  0.00     0.000 C
ATOM     46   O  GCT B   3     -13.748  49.356  54.6710  0.00  0.00     0.000 OA
ATOM     47   O  GCT B   3     -14.150  51.373  53.8740  0.00  0.00     0.000 OA
ENDBRANCH 39 45
BRANCH 35 48
ATOM     48  O3  ASG B   4     -12.870  49.886  51.2560  0.00  0.00     0.000 O
BRANCH 48 51
ATOM     49  C1  ASG B   4     -10.834  50.845  48.3200  0.00  0.00     0.000 C
ATOM     50  C2  ASG B   4     -11.303  50.070  49.5620  0.00  0.00     0.000 C
ATOM     51  C3  ASG B   4     -12.696  50.515  49.9990  0.00  0.00     0.000 C
ATOM     52  C4  ASG B   4     -12.780  52.028  50.1110  0.00  0.00     0.000 C
ATOM     53  C5  ASG B   4     -12.324  52.629  48.7840  0.00  0.00     0.000 C
ATOM     54  O5  ASG B   4     -10.958  52.242  48.5350  0.00  0.00     0.000 O
BRANCH 50 57
ATOM     55   N  ASG B   4     -11.005  48.870  48.8140  0.00  0.00     0.000 N
ATOM     57  HD  ASG B   4     -10.154  48.845  48.9710  0.00  0.00     0.000 HD
ATOM     57   O  ASG B   4      -9.215  48.317  50.0400  0.00  0.00     0.000 OA
ATOM     58   C  ASG B   4     -10.037  48.024  49.1780  0.00  0.00     0.000 C
ATOM     59   C  ASG B   4      -9.995  46.727  48.4300  0.00  0.00     0.000 C
ENDBRANCH 50 57
BRANCH 52 60
ATOM     60   O  ASG B   4     -11.898  52.341  51.2660  0.00  0.00     0.000 O
ATOM     61   O  ASG B   4     -13.428  54.120  52.1180  0.00  0.00     0.000 OA
ATOM     62   O  ASG B   4     -11.509  53.501  53.3840  0.00  0.00     0.000 OA
ATOM     63   O  ASG B   4     -11.213  54.526  51.2440  0.00  0.00     0.000 OA
ATOM     64   S  ASG B   4     -12.067  53.699  52.1010  0.00  0.00     0.000 S
ENDBRANCH 52 60
ATOM     65   O  ASG B   4     -12.294  54.596  47.3660  0.00  0.00     0.000 O
ATOM     67  HD  ASG B   4     -11.448  54.481  47.2190  0.00  0.00     0.000 HD
ATOM     67   O  ASG B   4     -12.294  54.596  47.3660  0.00  0.00     0.000 O
ATOM     69  HD  ASG B   4     -11.448  54.481  47.2190  0.00  0.00     0.000 HD
ENDBRANCH 48 51
ENDBRANCH 35 48
ENDBRANCH 34 38
ENDBRANCH 15 34
ENDBRANCH 14 17
ENDBRANCH 1 14
TORSDOF 12
ENDMDL
MODEL 83
REMARK VINA RESULT:      -7.0     31.041     34.702
ROOT
ATOM      1  C1  GAD B   1      -5.798  20.482  44.6370  0.00  0.00     0.000 C
ATOM      2  C2  GAD B   1      -4.296  20.757  44.7580  0.00  0.00     0.000 C
ATOM      3  C3  GAD B   1      -3.669  20.876  43.3640  0.00  0.00     0.000 C
ATOM      4  C4  GAD B   1      -4.333  20.007  42.2920  0.00  0.00     0.000 C
ATOM      5  C5  GAD B   1      -5.469  19.307  42.4800  0.00  0.00     0.000 C
ATOM      6  O5  GAD B   1      -6.061  19.351  43.7920  0.00  0.00     0.000 O
ATOM      7   O  GAD B   1      -4.032  21.935  45.6070  0.00  0.00     0.000 O
ATOM      9  HD  GAD B   1      -4.858  21.789  45.8220  0.00  0.00     0.000 HD
ATOM      9   O  GAD B   1      -2.273  20.501  43.3760  0.00  0.00     0.000 O
ATOM     11  HD  GAD B   1      -3.099  20.355  43.5910  0.00  0.00     0.000 HD
ENDROOT
BRANCH 5 11
ATOM     11   C  GAD B   1      -6.177  18.549  41.4220  0.00  0.00     0.000 C
ATOM     12   O  GAD B   1      -5.494  18.200  40.4090  0.00  0.00     0.000 OA
ATOM     13   O  GAD B   1      -7.443  18.341  41.5130  0.00  0.00     0.000 OA
ENDBRANCH 5 11
BRANCH 1 14
ATOM     14  O3  ASG B   2      -6.542  19.929  45.6130  0.00  0.00     0.000 O
BRANCH 14 17
ATOM     15  C1  ASG B   2      -9.966  20.620  47.0540  0.00  0.00     0.000 C
ATOM     16  C2  ASG B   2      -8.438  20.718  46.9440  0.00  0.00     0.000 C
ATOM     17  C3  ASG B   2      -7.965  19.867  45.7610  0.00  0.00     0.000 C
ATOM     18  C4  ASG B   2      -8.396  18.426  45.9530  0.00  0.00     0.000 C
ATOM     19  C5  ASG B   2      -9.903  18.383  46.1840  0.00  0.00     0.000 C
ATOM     20  O5  ASG B   2     -10.260  19.253  47.2760  0.00  0.00     0.000 O
ATOM     21   C  ASG B   2     -10.395  17.019  46.5480  0.00  0.00     0.000 C
ATOM     22   O  ASG B   2     -11.740  17.100  46.9500  0.00  0.00     0.000 O
ATOM     24  HD  ASG B   2     -12.559  17.001  47.2160  0.00  0.00     0.000 HD
BRANCH 16 26
ATOM     24   N  ASG B   2      -8.004  22.092  47.0460  0.00  0.00     0.000 N
ATOM     26  HD  ASG B   2      -8.655  21.776  47.5210  0.00  0.00     0.000 HD
ATOM     26   C  ASG B   2      -6.762  22.464  47.4080  0.00  0.00     0.000 C
ATOM     27   C  ASG B   2      -6.396  23.881  47.1300  0.00  0.00     0.000 C
ATOM     28   O  ASG B   2      -5.983  21.680  47.9350  0.00  0.00     0.000 OA
ENDBRANCH 16 26
BRANCH 18 29
ATOM     29   O  ASG B   2      -7.630  17.911  47.0960  0.00  0.00     0.000 O
ATOM     30   O  ASG B   2      -7.403  15.641  46.1800  0.00  0.00     0.000 OA
ATOM     31   O  ASG B   2      -5.493  17.138  46.1930  0.00  0.00     0.000 OA
ATOM     32   O  ASG B   2      -6.340  16.240  48.2720  0.00  0.00     0.000 OA
ATOM     33   S  ASG B   2      -6.652  16.650  46.9030  0.00  0.00     0.000 S
ENDBRANCH 18 29
BRANCH 15 34
ATOM     34  O4  ASG B   3     -10.503  21.369  48.1060  0.00  0.00     0.000 O
BRANCH 34 38
ATOM     35  C1  GCT B   3     -12.496  24.746  49.0980  0.00  0.00     0.000 C
ATOM     36  C2  GCT B   3     -13.334  23.489  49.1830  0.00  0.00     0.000 C
ATOM     37  C3  GCT B   3     -12.450  22.251  49.2310  0.00  0.00     0.000 C
ATOM     38  C4  GCT B   3     -11.585  22.200  47.9650  0.00  0.00     0.000 C
ATOM     39  C5  GCT B   3     -11.188  23.611  47.4770  0.00  0.00     0.000 C
ATOM     40  O5  GCT B   3     -11.189  24.450  48.6190  0.00  0.00     0.000 O
ATOM     41   O  GCT B   3     -14.100  23.595  50.3750  0.00  0.00     0.000 O
ATOM     43  HD  GCT B   3     -14.808  24.052  50.5710  0.00  0.00     0.000 HD
ATOM     43   O  GCT B   3     -13.294  21.090  49.3810  0.00  0.00     0.000 O
ATOM     45  HD  GCT B   3     -14.002  21.547  49.5780  0.00  0.00     0.000 HD
BRANCH 39 45
ATOM     45   C  GCT B   3     -12.014  24.254  46.3840  0.00  0.00     0.000 C
ATOM     46   O  GCT B   3     -13.032  23.644  45.9270  0.00  0.00     0.000 OA
ATOM     47   O  GCT B   3     -11.667  25.376  45.9810  0.00  0.00     0.000 OA
ENDBRANCH 39 45
BRANCH 35 48
ATOM     48  O3  ASG B   4     -13.271  25.766  48.7940  0.00  0.00     0.000 O
BRANCH 48 51
ATOM     49  C1  ASG B   4     -12.466  28.141  51.5140  0.00  0.00     0.000 C
ATOM     50  C2  ASG B   4     -12.835  26.828  50.8050  0.00  0.00     0.000 C
ATOM     51  C3  ASG B   4     -12.683  26.956  49.2910  0.00  0.00     0.000 C
ATOM     52  C4  ASG B   4     -13.394  28.194  48.7700  0.00  0.00     0.000 C
ATOM     53  C5  ASG B   4     -12.879  29.400  49.5490  0.00  0.00     0.000 C
ATOM     54  O5  ASG B   4     -13.184  29.225  50.9470  0.00  0.00     0.000 O
BRANCH 50 57
ATOM     55   N  ASG B   4     -11.930  26.400  51.8470  0.00  0.00     0.000 N
ATOM     57  HD  ASG B   4     -12.523  26.251  52.4600  0.00  0.00     0.000 HD
ATOM     57   O  ASG B   4     -13.439  25.123  52.9000  0.00  0.00     0.000 OA
ATOM     58   C  ASG B   4     -12.276  25.490  52.7630  0.00  0.00     0.000 C
ATOM     59   C  ASG B   4     -11.164  24.997  53.6370  0.00  0.00     0.000 C
ENDBRANCH 50 57
BRANCH 52 60
ATOM     60   O  ASG B   4     -14.832  27.887  48.9870  0.00  0.00     0.000 O
ATOM     61   O  ASG B   4     -15.303  27.745  46.5390  0.00  0.00     0.000 OA
ATOM     62   O  ASG B   4     -17.010  27.204  48.1080  0.00  0.00     0.000 OA
ATOM     63   O  ASG B   4     -16.190  29.448  48.0050  0.00  0.00     0.000 OA
ATOM     64   S  ASG B   4     -15.902  28.025  47.8010  0.00  0.00     0.000 S
ENDBRANCH 52 60
ATOM     65   O  ASG B   4     -12.689  31.817  49.6300  0.00  0.00     0.000 O
ATOM     67  HD  ASG B   4     -12.938  31.812  50.4600  0.00  0.00     0.000 HD
ATOM     67   O  ASG B   4     -12.689  31.817  49.6300  0.00  0.00     0.000 O
ATOM     69  HD  ASG B   4     -12.938  31.812  50.4600  0.00  0.00     0.000 HD
ENDBRANCH 48 51
ENDBRANCH 35 48
ENDBRANCH 34 38
ENDBRANCH 15 34
ENDBRANCH 14 17
ENDBRANCH 1 14
TORSDOF 12
ENDMDL
MODEL 84
REMARK VINA RESULT:      -7.0     14.476     18.515
ROOT
ATOM      1  C1  GAD B   1       9.890  47.014  86.0010  0.00  0.00     0.000 C
ATOM      2  C2  GAD B   1      10.895  47.272  87.1280  0.00  0.00     0.000 C
ATOM      3  C3  GAD B   1      10.296  48.238  88.1570  0.00  0.00     0.000 C
ATOM      4  C4  GAD B   1       9.330  49.271  87.5710  0.00  0.00     0.000 C
ATOM      5  C5  GAD B   1       8.895  49.265  86.2950  0.00  0.00     0.000 C
ATOM      6  O5  GAD B   1       9.417  48.242  85.4260  0.00  0.00     0.000 O
ATOM      7   O  GAD B   1      11.360  46.009  87.7330  0.00  0.00     0.000 O
ATOM      9  HD  GAD B   1      11.005  45.694  87.0080  0.00  0.00     0.000 HD
ATOM      9   O  GAD B   1      11.323  48.992  88.8390  0.00  0.00     0.000 O
ATOM     11  HD  GAD B   1      10.968  48.678  88.1140  0.00  0.00     0.000 HD
ENDROOT
BRANCH 5 11
ATOM     11   C  GAD B   1       7.879  50.194  85.7460  0.00  0.00     0.000 C
ATOM     12   O  GAD B   1       7.915  51.394  86.1600  0.00  0.00     0.000 OA
ATOM     13   O  GAD B   1       6.966  49.757  84.9520  0.00  0.00     0.000 OA
ENDBRANCH 5 11
BRANCH 1 14
ATOM     14  O3  ASG B   2      10.232  46.570  84.7770  0.00  0.00     0.000 O
BRANCH 14 17
ATOM     15  C1  ASG B   2       9.519  43.640  82.5000  0.00  0.00     0.000 C
ATOM     16  C2  ASG B   2      10.339  44.507  83.4650  0.00  0.00     0.000 C
ATOM     17  C3  ASG B   2       9.509  45.728  83.8710  0.00  0.00     0.000 C
ATOM     18  C4  ASG B   2       9.119  46.522  82.6390  0.00  0.00     0.000 C
ATOM     19  C5  ASG B   2       8.416  45.596  81.6510  0.00  0.00     0.000 C
ATOM     20  O5  ASG B   2       9.246  44.451  81.3730  0.00  0.00     0.000 O
ATOM     21   C  ASG B   2       8.142  46.253  80.3370  0.00  0.00     0.000 C
ATOM     22   O  ASG B   2       7.694  45.287  79.4180  0.00  0.00     0.000 O
ATOM     24  HD  ASG B   2       7.408  44.808  78.7560  0.00  0.00     0.000 HD
BRANCH 16 26
ATOM     24   N  ASG B   2      11.677  44.573  84.0070  0.00  0.00     0.000 N
ATOM     26  HD  ASG B   2      11.220  45.283  83.8140  0.00  0.00     0.000 HD
ATOM     26   C  ASG B   2      12.032  44.064  85.2010  0.00  0.00     0.000 C
ATOM     27   C  ASG B   2      13.495  43.918  85.4420  0.00  0.00     0.000 C
ATOM     28   O  ASG B   2      11.198  43.741  86.0370  0.00  0.00     0.000 OA
ENDBRANCH 16 26
BRANCH 18 29
ATOM     29   O  ASG B   2      10.361  47.093  82.1010  0.00  0.00     0.000 O
ATOM     30   O  ASG B   2       9.254  49.012  81.0350  0.00  0.00     0.000 OA
ATOM     31   O  ASG B   2      10.554  49.334  83.0600  0.00  0.00     0.000 OA
ATOM     32   O  ASG B   2      11.665  48.792  80.9830  0.00  0.00     0.000 OA
ATOM     33   S  ASG B   2      10.448  48.667  81.7840  0.00  0.00     0.000 S
ENDBRANCH 18 29
BRANCH 15 34
ATOM     34  O4  ASG B   3      10.188  42.489  82.0710  0.00  0.00     0.000 O
BRANCH 34 38
ATOM     35  C1  GCT B   3       9.793  38.495  81.5660  0.00  0.00     0.000 C
ATOM     36  C2  GCT B   3       9.882  39.273  80.2720  0.00  0.00     0.000 C
ATOM     37  C3  GCT B   3      10.456  40.662  80.5130  0.00  0.00     0.000 C
ATOM     38  C4  GCT B   3       9.554  41.416  81.4980  0.00  0.00     0.000 C
ATOM     39  C5  GCT B   3       8.924  40.472  82.5470  0.00  0.00     0.000 C
ATOM     40  O5  GCT B   3       9.808  39.374  82.6860  0.00  0.00     0.000 O
ATOM     41   O  GCT B   3      10.735  38.530  79.4120  0.00  0.00     0.000 O
ATOM     43  HD  GCT B   3      10.606  37.813  78.9450  0.00  0.00     0.000 HD
ATOM     43   O  GCT B   3      10.584  41.334  79.2420  0.00  0.00     0.000 O
ATOM     45  HD  GCT B   3      10.455  40.616  78.7750  0.00  0.00     0.000 HD
BRANCH 39 45
ATOM     45   C  GCT B   3       7.522  39.957  82.3010  0.00  0.00     0.000 C
ATOM     46   O  GCT B   3       6.984  39.176  83.1480  0.00  0.00     0.000 OA
ATOM     47   O  GCT B   3       6.939  40.336  81.2720  0.00  0.00     0.000 OA
ENDBRANCH 39 45
BRANCH 35 48
ATOM     48  O3  ASG B   4       9.061  37.418  81.3770  0.00  0.00     0.000 O
BRANCH 48 51
ATOM     49  C1  ASG B   4      10.779  34.440  82.7430  0.00  0.00     0.000 C
ATOM     50  C2  ASG B   4      10.493  35.664  81.8570  0.00  0.00     0.000 C
ATOM     51  C3  ASG B   4       9.334  36.487  82.4100  0.00  0.00     0.000 C
ATOM     52  C4  ASG B   4       8.129  35.610  82.7090  0.00  0.00     0.000 C
ATOM     53  C5  ASG B   4       8.581  34.480  83.6300  0.00  0.00     0.000 C
ATOM     54  O5  ASG B   4       9.589  33.699  82.9580  0.00  0.00     0.000 O
BRANCH 50 57
ATOM     55   N  ASG B   4      11.881  36.043  81.9910  0.00  0.00     0.000 N
ATOM     57  HD  ASG B   4      12.205  35.507  81.3920  0.00  0.00     0.000 HD
ATOM     57   O  ASG B   4      12.435  35.490  79.8920  0.00  0.00     0.000 OA
ATOM     58   C  ASG B   4      12.729  36.024  80.9580  0.00  0.00     0.000 C
ATOM     59   C  ASG B   4      14.068  36.647  81.2070  0.00  0.00     0.000 C
ENDBRANCH 50 57
BRANCH 52 60
ATOM     60   O  ASG B   4       7.678  35.169  81.3640  0.00  0.00     0.000 O
ATOM     61   O  ASG B   4       5.796  36.808  81.3150  0.00  0.00     0.000 OA
ATOM     62   O  ASG B   4       6.261  35.479  79.3950  0.00  0.00     0.000 OA
ATOM     63   O  ASG B   4       5.518  34.410  81.4000  0.00  0.00     0.000 OA
ATOM     64   S  ASG B   4       6.224  35.548  80.8060  0.00  0.00     0.000 S
ENDBRANCH 52 60
ATOM     65   O  ASG B   4       7.894  32.740  85.1720  0.00  0.00     0.000 O
ATOM     67  HD  ASG B   4       8.423  32.178  84.7790  0.00  0.00     0.000 HD
ATOM     67   O  ASG B   4       7.894  32.740  85.1720  0.00  0.00     0.000 O
ATOM     69  HD  ASG B   4       8.423  32.178  84.7790  0.00  0.00     0.000 HD
ENDBRANCH 48 51
ENDBRANCH 35 48
ENDBRANCH 34 38
ENDBRANCH 15 34
ENDBRANCH 14 17
ENDBRANCH 1 14
TORSDOF 12
ENDMDL
MODEL 85
REMARK VINA RESULT:      -6.9     16.725     20.391
ROOT
ATOM      1  C1  GAD B   1       8.764  49.317  86.3870  0.00  0.00     0.000 C
ATOM      2  C2  GAD B   1       8.510  48.714  87.7720  0.00  0.00     0.000 C
ATOM      3  C3  GAD B   1       8.158  49.821  88.7720  0.00  0.00     0.000 C
ATOM      4  C4  GAD B   1       8.836  51.166  88.4960  0.00  0.00     0.000 C
ATOM      5  C5  GAD B   1       9.560  51.438  87.3920  0.00  0.00     0.000 C
ATOM      6  O5  GAD B   1       9.737  50.371  86.4410  0.00  0.00     0.000 O
ATOM      7   O  GAD B   1       7.491  47.648  87.7160  0.00  0.00     0.000 O
ATOM      9  HD  GAD B   1       7.672  47.713  86.8720  0.00  0.00     0.000 HD
ATOM      9   O  GAD B   1       8.528  49.456  90.1210  0.00  0.00     0.000 O
ATOM     11  HD  GAD B   1       8.709  49.521  89.2770  0.00  0.00     0.000 HD
ENDROOT
BRANCH 5 11
ATOM     11   C  GAD B   1      10.131  52.766  87.0640  0.00  0.00     0.000 C
ATOM     12   O  GAD B   1      10.893  53.294  87.9310  0.00  0.00     0.000 OA
ATOM     13   O  GAD B   1       9.786  53.367  85.9800  0.00  0.00     0.000 OA
ENDBRANCH 5 11
BRANCH 1 14
ATOM     14  O3  ASG B   2       9.474  48.707  85.4200  0.00  0.00     0.000 O
BRANCH 14 17
ATOM     15  C1  ASG B   2       9.514  45.539  83.3610  0.00  0.00     0.000 C
ATOM     16  C2  ASG B   2      10.005  46.539  84.4170  0.00  0.00     0.000 C
ATOM     17  C3  ASG B   2       9.059  47.743  84.4450  0.00  0.00     0.000 C
ATOM     18  C4  ASG B   2       9.008  48.394  83.0760  0.00  0.00     0.000 C
ATOM     19  C5  ASG B   2       8.638  47.340  82.0370  0.00  0.00     0.000 C
ATOM     20  O5  ASG B   2       9.545  46.223  82.1220  0.00  0.00     0.000 O
ATOM     21   C  ASG B   2       8.725  47.853  80.6350  0.00  0.00     0.000 C
ATOM     22   O  ASG B   2       8.581  46.780  79.7370  0.00  0.00     0.000 O
ATOM     24  HD  ASG B   2       8.506  46.225  79.0760  0.00  0.00     0.000 HD
BRANCH 16 26
ATOM     24   N  ASG B   2      11.142  46.715  85.2910  0.00  0.00     0.000 N
ATOM     26  HD  ASG B   2      10.754  47.381  84.8970  0.00  0.00     0.000 HD
ATOM     26   C  ASG B   2      11.155  46.360  86.5890  0.00  0.00     0.000 C
ATOM     27   C  ASG B   2      12.495  46.295  87.2370  0.00  0.00     0.000 C
ATOM     28   O  ASG B   2      10.123  46.105  87.1980  0.00  0.00     0.000 OA
ENDBRANCH 16 26
BRANCH 18 29
ATOM     29   O  ASG B   2      10.334  48.982  82.8440  0.00  0.00     0.000 O
ATOM     30   O  ASG B   2       9.516  50.728  81.3190  0.00  0.00     0.000 OA
ATOM     31   O  ASG B   2      10.186  51.310  83.5780  0.00  0.00     0.000 OA
ATOM     32   O  ASG B   2      11.850  50.641  81.9560  0.00  0.00     0.000 OA
ATOM     33   S  ASG B   2      10.461  50.521  82.4000  0.00  0.00     0.000 S
ENDBRANCH 18 29
BRANCH 15 34
ATOM     34  O4  ASG B   3      10.310  44.393  83.2580  0.00  0.00     0.000 O
BRANCH 34 38
ATOM     35  C1  GCT B   3      10.925  40.630  81.9080  0.00  0.00     0.000 C
ATOM     36  C2  GCT B   3       9.892  41.406  81.1200  0.00  0.00     0.000 C
ATOM     37  C3  GCT B   3      10.020  42.900  81.3820  0.00  0.00     0.000 C
ATOM     38  C4  GCT B   3       9.824  43.168  82.8790  0.00  0.00     0.000 C
ATOM     39  C5  GCT B   3      10.375  42.017  83.7510  0.00  0.00     0.000 C
ATOM     40  O5  GCT B   3      11.408  41.401  83.0030  0.00  0.00     0.000 O
ATOM     41   O  GCT B   3      10.133  41.123  79.7490  0.00  0.00     0.000 O
ATOM     43  HD  GCT B   3       9.955  40.432  79.2590  0.00  0.00     0.000 HD
ATOM     43   O  GCT B   3       9.061  43.595  80.5570  0.00  0.00     0.000 O
ATOM     45  HD  GCT B   3       8.883  42.904  80.0660  0.00  0.00     0.000 HD
BRANCH 39 45
ATOM     45   C  GCT B   3       9.410  40.958  84.2390  0.00  0.00     0.000 C
ATOM     46   O  GCT B   3       9.837  40.010  84.9700  0.00  0.00     0.000 OA
ATOM     47   O  GCT B   3       8.218  41.067  83.9100  0.00  0.00     0.000 OA
ENDBRANCH 39 45
BRANCH 35 48
ATOM     48  O3  ASG B   4      10.628  39.349  81.8720  0.00  0.00     0.000 O
BRANCH 48 51
ATOM     49  C1  ASG B   4      13.432  37.377  80.4810  0.00  0.00     0.000 C
ATOM     50  C2  ASG B   4      12.273  38.384  80.5600  0.00  0.00     0.000 C
ATOM     51  C3  ASG B   4      11.820  38.594  82.0020  0.00  0.00     0.000 C
ATOM     52  C4  ASG B   4      11.573  37.267  82.7000  0.00  0.00     0.000 C
ATOM     53  C5  ASG B   4      12.833  36.417  82.5630  0.00  0.00     0.000 C
ATOM     54  O5  ASG B   4      13.094  36.182  81.1660  0.00  0.00     0.000 O
BRANCH 50 57
ATOM     55   N  ASG B   4      13.187  39.179  79.7720  0.00  0.00     0.000 N
ATOM     57  HD  ASG B   4      12.962  38.874  78.9930  0.00  0.00     0.000 HD
ATOM     57   O  ASG B   4      11.921  39.153  77.9240  0.00  0.00     0.000 OA
ATOM     58   C  ASG B   4      12.890  39.593  78.5360  0.00  0.00     0.000 C
ATOM     59   C  ASG B   4      13.842  40.582  77.9380  0.00  0.00     0.000 C
ENDBRANCH 50 57
BRANCH 52 60
ATOM     60   O  ASG B   4      10.381  36.723  82.0000  0.00  0.00     0.000 O
ATOM     61   O  ASG B   4       8.943  36.910  84.0320  0.00  0.00     0.000 OA
ATOM     62   O  ASG B   4       7.984  36.238  81.9590  0.00  0.00     0.000 OA
ATOM     63   O  ASG B   4       9.599  34.822  83.0100  0.00  0.00     0.000 OA
ATOM     64   S  ASG B   4       9.107  36.189  82.8150  0.00  0.00     0.000 S
ENDBRANCH 52 60
ATOM     65   O  ASG B   4      14.066  34.496  83.3800  0.00  0.00     0.000 O
ATOM     67  HD  ASG B   4      14.210  34.238  82.5660  0.00  0.00     0.000 HD
ATOM     67   O  ASG B   4      14.066  34.496  83.3800  0.00  0.00     0.000 O
ATOM     69  HD  ASG B   4      14.210  34.238  82.5660  0.00  0.00     0.000 HD
ENDBRANCH 48 51
ENDBRANCH 35 48
ENDBRANCH 34 38
ENDBRANCH 15 34
ENDBRANCH 14 17
ENDBRANCH 1 14
TORSDOF 12
ENDMDL
MODEL 86
REMARK VINA RESULT:      -6.9     30.254     33.997
ROOT
ATOM      1  C1  GAD B   1     -12.523  27.777  50.5630  0.00  0.00     0.000 C
ATOM      2  C2  GAD B   1     -11.111  27.323  50.9440  0.00  0.00     0.000 C
ATOM      3  C3  GAD B   1     -10.268  28.529  51.3750  0.00  0.00     0.000 C
ATOM      4  C4  GAD B   1     -10.622  29.838  50.6640  0.00  0.00     0.000 C
ATOM      5  C5  GAD B   1     -11.679  29.993  49.8420  0.00  0.00     0.000 C
ATOM      6  O5  GAD B   1     -12.493  28.832  49.5900  0.00  0.00     0.000 O
ATOM      7   O  GAD B   1     -11.145  26.256  51.9630  0.00  0.00     0.000 O
ATOM      9  HD  GAD B   1     -11.972  26.232  51.7070  0.00  0.00     0.000 HD
ATOM      9   O  GAD B   1      -8.861  28.308  51.1300  0.00  0.00     0.000 O
ATOM     11  HD  GAD B   1      -9.688  28.284  50.8740  0.00  0.00     0.000 HD
ENDROOT
BRANCH 5 11
ATOM     11   C  GAD B   1     -12.093  31.280  49.2340  0.00  0.00     0.000 C
ATOM     12   O  GAD B   1     -12.948  31.224  48.2960  0.00  0.00     0.000 OA
ATOM     13   O  GAD B   1     -11.533  32.378  49.6010  0.00  0.00     0.000 OA
ENDBRANCH 5 11
BRANCH 1 14
ATOM     14  O3  ASG B   2     -13.353  27.070  49.7750  0.00  0.00     0.000 O
BRANCH 14 17
ATOM     15  C1  ASG B   2     -15.575  27.566  46.7590  0.00  0.00     0.000 C
ATOM     16  C2  ASG B   2     -15.240  27.339  48.2400  0.00  0.00     0.000 C
ATOM     17  C3  ASG B   2     -13.719  27.277  48.4050  0.00  0.00     0.000 C
ATOM     18  C4  ASG B   2     -13.149  26.161  47.5510  0.00  0.00     0.000 C
ATOM     19  C5  ASG B   2     -13.608  26.353  46.1090  0.00  0.00     0.000 C
ATOM     20  O5  ASG B   2     -15.044  26.456  46.0580  0.00  0.00     0.000 O
ATOM     21   C  ASG B   2     -13.232  25.209  45.2240  0.00  0.00     0.000 C
ATOM     22   O  ASG B   2     -13.866  25.356  43.9770  0.00  0.00     0.000 O
ATOM     24  HD  ASG B   2     -14.185  25.318  43.1730  0.00  0.00     0.000 HD
BRANCH 16 26
ATOM     24   N  ASG B   2     -15.982  27.070  49.4500  0.00  0.00     0.000 N
ATOM     26  HD  ASG B   2     -15.236  26.669  49.2660  0.00  0.00     0.000 HD
ATOM     26   C  ASG B   2     -16.263  27.999  50.3830  0.00  0.00     0.000 C
ATOM     27   C  ASG B   2     -17.312  27.633  51.3760  0.00  0.00     0.000 C
ATOM     28   O  ASG B   2     -15.688  29.080  50.4090  0.00  0.00     0.000 OA
ENDBRANCH 16 26
BRANCH 18 29
ATOM     29   O  ASG B   2     -13.627  24.902  48.1380  0.00  0.00     0.000 O
ATOM     30   O  ASG B   2     -11.603  23.631  47.5620  0.00  0.00     0.000 OA
ATOM     31   O  ASG B   2     -12.003  24.293  49.8620  0.00  0.00     0.000 OA
ATOM     32   O  ASG B   2     -13.388  22.600  48.8320  0.00  0.00     0.000 OA
ATOM     33   S  ASG B   2     -12.570  23.796  48.6310  0.00  0.00     0.000 S
ENDBRANCH 18 29
BRANCH 15 34
ATOM     34  O4  ASG B   3     -16.948  27.643  46.4990  0.00  0.00     0.000 O
BRANCH 34 38
ATOM     35  C1  GCT B   3     -18.356  31.354  45.7200  0.00  0.00     0.000 C
ATOM     36  C2  GCT B   3     -19.306  30.242  45.3340  0.00  0.00     0.000 C
ATOM     37  C3  GCT B   3     -18.930  28.942  46.0310  0.00  0.00     0.000 C
ATOM     38  C4  GCT B   3     -17.502  28.551  45.6330  0.00  0.00     0.000 C
ATOM     39  C5  GCT B   3     -16.601  29.788  45.4170  0.00  0.00     0.000 C
ATOM     40  O5  GCT B   3     -17.135  30.823  46.2230  0.00  0.00     0.000 O
ATOM     41   O  GCT B   3     -20.602  30.660  45.7370  0.00  0.00     0.000 O
ATOM     43  HD  GCT B   3     -21.162  31.226  45.3950  0.00  0.00     0.000 HD
ATOM     43   O  GCT B   3     -19.905  27.936  45.6840  0.00  0.00     0.000 O
ATOM     45  HD  GCT B   3     -20.465  28.501  45.3430  0.00  0.00     0.000 HD
BRANCH 39 45
ATOM     45   C  GCT B   3     -16.409  30.301  44.0060  0.00  0.00     0.000 C
ATOM     46   O  GCT B   3     -15.686  31.327  43.8050  0.00  0.00     0.000 OA
ATOM     47   O  GCT B   3     -16.965  29.680  43.0850  0.00  0.00     0.000 OA
ENDBRANCH 39 45
BRANCH 35 48
ATOM     48  O3  ASG B   4     -18.536  32.379  44.9150  0.00  0.00     0.000 O
BRANCH 48 51
ATOM     49  C1  ASG B   4     -19.306  35.460  46.8140  0.00  0.00     0.000 C
ATOM     50  C2  ASG B   4     -19.461  34.046  46.2290  0.00  0.00     0.000 C
ATOM     51  C3  ASG B   4     -18.160  33.568  45.5900  0.00  0.00     0.000 C
ATOM     52  C4  ASG B   4     -17.603  34.607  44.6310  0.00  0.00     0.000 C
ATOM     53  C5  ASG B   4     -17.475  35.928  45.3850  0.00  0.00     0.000 C
ATOM     54  O5  ASG B   4     -18.779  36.342  45.8370  0.00  0.00     0.000 O
BRANCH 50 57
ATOM     55   N  ASG B   4     -19.971  33.787  47.5560  0.00  0.00     0.000 N
ATOM     57  HD  ASG B   4     -20.795  34.012  47.4080  0.00  0.00     0.000 HD
ATOM     57   O  ASG B   4     -22.066  33.373  46.8790  0.00  0.00     0.000 OA
ATOM     58   C  ASG B   4     -21.221  33.365  47.7700  0.00  0.00     0.000 C
ATOM     59   C  ASG B   4     -21.529  32.936  49.1720  0.00  0.00     0.000 C
ENDBRANCH 50 57
BRANCH 52 60
ATOM     60   O  ASG B   4     -18.592  34.622  43.5220  0.00  0.00     0.000 O
ATOM     61   O  ASG B   4     -16.938  33.760  41.8630  0.00  0.00     0.000 OA
ATOM     62   O  ASG B   4     -19.215  34.046  41.2280  0.00  0.00     0.000 OA
ATOM     63   O  ASG B   4     -17.914  35.969  41.7990  0.00  0.00     0.000 OA
ATOM     64   S  ASG B   4     -18.129  34.532  41.9910  0.00  0.00     0.000 S
ENDBRANCH 52 60
ATOM     65   O  ASG B   4     -16.476  38.137  45.4240  0.00  0.00     0.000 O
ATOM     67  HD  ASG B   4     -17.243  38.484  45.6270  0.00  0.00     0.000 HD
ATOM     67   O  ASG B   4     -16.476  38.137  45.4240  0.00  0.00     0.000 O
ATOM     69  HD  ASG B   4     -17.243  38.484  45.6270  0.00  0.00     0.000 HD
ENDBRANCH 48 51
ENDBRANCH 35 48
ENDBRANCH 34 38
ENDBRANCH 15 34
ENDBRANCH 14 17
ENDBRANCH 1 14
TORSDOF 12
ENDMDL
MODEL 87
REMARK VINA RESULT:      -6.9     32.029     35.611
ROOT
ATOM      1  C1  GAD B   1     -10.238  25.413  41.0860  0.00  0.00     0.000 C
ATOM      2  C2  GAD B   1      -9.720  26.796  40.6800  0.00  0.00     0.000 C
ATOM      3  C3  GAD B   1      -8.241  26.937  41.0580  0.00  0.00     0.000 C
ATOM      4  C4  GAD B   1      -7.831  26.165  42.3150  0.00  0.00     0.000 C
ATOM      5  C5  GAD B   1      -8.631  25.300  42.9700  0.00  0.00     0.000 C
ATOM      6  O5  GAD B   1      -9.971  25.136  42.4690  0.00  0.00     0.000 O
ATOM      7   O  GAD B   1      -9.974  27.067  39.2510  0.00  0.00     0.000 O
ATOM      9  HD  GAD B   1     -10.503  26.390  39.3620  0.00  0.00     0.000 HD
ATOM      9   O  GAD B   1      -7.884  28.316  41.3000  0.00  0.00     0.000 O
ATOM     11  HD  GAD B   1      -8.413  27.639  41.4100  0.00  0.00     0.000 HD
ENDROOT
BRANCH 5 11
ATOM     11   C  GAD B   1      -8.210  24.469  44.1220  0.00  0.00     0.000 C
ATOM     12   O  GAD B   1      -8.039  25.067  45.2300  0.00  0.00     0.000 OA
ATOM     13   O  GAD B   1      -7.958  23.219  43.9600  0.00  0.00     0.000 OA
ENDBRANCH 5 11
BRANCH 1 14
ATOM     14  O3  ASG B   2     -11.538  25.123  41.2760  0.00  0.00     0.000 O
BRANCH 14 17
ATOM     15  C1  ASG B   2     -14.641  25.987  43.2510  0.00  0.00     0.000 C
ATOM     16  C2  ASG B   2     -13.543  25.080  42.6780  0.00  0.00     0.000 C
ATOM     17  C3  ASG B   2     -12.586  25.925  41.8320  0.00  0.00     0.000 C
ATOM     18  C4  ASG B   2     -13.350  26.612  40.7160  0.00  0.00     0.000 C
ATOM     19  C5  ASG B   2     -14.508  27.403  41.3170  0.00  0.00     0.000 C
ATOM     20  O5  ASG B   2     -15.319  26.540  42.1390  0.00  0.00     0.000 O
ATOM     21   C  ASG B   2     -15.416  27.979  40.2790  0.00  0.00     0.000 C
ATOM     22   O  ASG B   2     -16.563  28.504  40.9020  0.00  0.00     0.000 O
ATOM     24  HD  ASG B   2     -17.310  28.866  41.1460  0.00  0.00     0.000 HD
BRANCH 16 26
ATOM     24   N  ASG B   2     -12.864  24.288  43.6770  0.00  0.00     0.000 N
ATOM     26  HD  ASG B   2     -13.682  24.554  43.7760  0.00  0.00     0.000 HD
ATOM     26   C  ASG B   2     -12.370  23.056  43.4520  0.00  0.00     0.000 C
ATOM     27   C  ASG B   2     -11.415  22.538  44.4720  0.00  0.00     0.000 C
ATOM     28   O  ASG B   2     -12.689  22.404  42.4660  0.00  0.00     0.000 OA
ENDBRANCH 16 26
BRANCH 18 29
ATOM     29   O  ASG B   2     -13.797  25.551  39.8030  0.00  0.00     0.000 O
ATOM     30   O  ASG B   2     -13.642  26.945  37.7840  0.00  0.00     0.000 OA
ATOM     31   O  ASG B   2     -11.982  25.223  38.1970  0.00  0.00     0.000 OA
ATOM     32   O  ASG B   2     -14.249  24.606  37.6260  0.00  0.00     0.000 OA
ATOM     33   S  ASG B   2     -13.376  25.598  38.2530  0.00  0.00     0.000 S
ENDBRANCH 18 29
BRANCH 15 34
ATOM     34  O4  ASG B   3     -15.570  25.310  44.0490  0.00  0.00     0.000 O
BRANCH 34 38
ATOM     35  C1  GCT B   3     -14.044  25.837  47.7580  0.00  0.00     0.000 C
ATOM     36  C2  GCT B   3     -15.167  24.825  47.6920  0.00  0.00     0.000 C
ATOM     37  C3  GCT B   3     -15.392  24.357  46.2610  0.00  0.00     0.000 C
ATOM     38  C4  GCT B   3     -15.745  25.565  45.3850  0.00  0.00     0.000 C
ATOM     39  C5  GCT B   3     -15.014  26.847  45.8430  0.00  0.00     0.000 C
ATOM     40  O5  GCT B   3     -13.821  26.426  46.4820  0.00  0.00     0.000 O
ATOM     41   O  GCT B   3     -14.775  23.734  48.5120  0.00  0.00     0.000 O
ATOM     43  HD  GCT B   3     -14.761  23.628  49.3720  0.00  0.00     0.000 HD
ATOM     43   O  GCT B   3     -16.421  23.346  46.2650  0.00  0.00     0.000 O
ATOM     45  HD  GCT B   3     -16.408  23.241  47.1240  0.00  0.00     0.000 HD
BRANCH 39 45
ATOM     45   C  GCT B   3     -15.751  27.812  46.7460  0.00  0.00     0.000 C
ATOM     46   O  GCT B   3     -16.913  27.515  47.1670  0.00  0.00     0.000 OA
ATOM     47   O  GCT B   3     -15.175  28.868  47.0570  0.00  0.00     0.000 OA
ENDBRANCH 39 45
BRANCH 35 48
ATOM     48  O3  ASG B   4     -14.047  26.414  48.9400  0.00  0.00     0.000 O
BRANCH 48 51
ATOM     49  C1  ASG B   4     -10.887  26.752  50.8350  0.00  0.00     0.000 C
ATOM     50  C2  ASG B   4     -12.178  26.130  50.2780  0.00  0.00     0.000 C
ATOM     51  C3  ASG B   4     -12.776  26.997  49.1720  0.00  0.00     0.000 C
ATOM     52  C4  ASG B   4     -12.894  28.447  49.6130  0.00  0.00     0.000 C
ATOM     53  C5  ASG B   4     -11.521  28.911  50.0910  0.00  0.00     0.000 C
ATOM     54  O5  ASG B   4     -11.113  28.101  51.2110  0.00  0.00     0.000 O
BRANCH 50 57
ATOM     55   N  ASG B   4     -11.679  24.837  49.8720  0.00  0.00     0.000 N
ATOM     57  HD  ASG B   4     -11.577  24.500  50.6630  0.00  0.00     0.000 HD
ATOM     57   O  ASG B   4     -12.409  23.767  51.6990  0.00  0.00     0.000 OA
ATOM     58   C  ASG B   4     -11.926  23.725  50.5720  0.00  0.00     0.000 C
ATOM     59   C  ASG B   4     -11.527  22.442  49.9110  0.00  0.00     0.000 C
ENDBRANCH 50 57
BRANCH 52 60
ATOM     60   O  ASG B   4     -13.935  28.405  50.6720  0.00  0.00     0.000 O
ATOM     61   O  ASG B   4     -14.860  30.633  50.0310  0.00  0.00     0.000 OA
ATOM     62   O  ASG B   4     -15.946  29.336  51.7070  0.00  0.00     0.000 OA
ATOM     63   O  ASG B   4     -13.742  30.167  52.1210  0.00  0.00     0.000 OA
ATOM     64   S  ASG B   4     -14.721  29.727  51.1220  0.00  0.00     0.000 S
ENDBRANCH 52 60
ATOM     65   O  ASG B   4     -10.105  30.808  50.6160  0.00  0.00     0.000 O
ATOM     67  HD  ASG B   4      -9.859  30.424  51.3520  0.00  0.00     0.000 HD
ATOM     67   O  ASG B   4     -10.105  30.808  50.6160  0.00  0.00     0.000 O
ATOM     69  HD  ASG B   4      -9.859  30.424  51.3520  0.00  0.00     0.000 HD
ENDBRANCH 48 51
ENDBRANCH 35 48
ENDBRANCH 34 38
ENDBRANCH 15 34
ENDBRANCH 14 17
ENDBRANCH 1 14
TORSDOF 12
ENDMDL
MODEL 88
REMARK VINA RESULT:      -6.9     15.572     19.875
ROOT
ATOM      1  C1  GAD B   1       8.552  49.294  86.1220  0.00  0.00     0.000 C
ATOM      2  C2  GAD B   1       8.154  48.809  87.5190  0.00  0.00     0.000 C
ATOM      3  C3  GAD B   1       7.698  49.994  88.3790  0.00  0.00     0.000 C
ATOM      4  C4  GAD B   1       8.402  51.316  88.0610  0.00  0.00     0.000 C
ATOM      5  C5  GAD B   1       9.239  51.500  87.0200  0.00  0.00     0.000 C
ATOM      6  O5  GAD B   1       9.515  50.357  86.1880  0.00  0.00     0.000 O
ATOM      7   O  GAD B   1       7.146  47.733  87.4480  0.00  0.00     0.000 O
ATOM      9  HD  GAD B   1       7.415  47.728  86.6250  0.00  0.00     0.000 HD
ATOM      9   O  GAD B   1       7.923  49.748  89.7850  0.00  0.00     0.000 O
ATOM     11  HD  GAD B   1       8.193  49.742  88.9620  0.00  0.00     0.000 HD
ENDROOT
BRANCH 5 11
ATOM     11   C  GAD B   1       9.841  52.799  86.6420  0.00  0.00     0.000 C
ATOM     12   O  GAD B   1       9.697  53.171  85.4360  0.00  0.00     0.000 OA
ATOM     13   O  GAD B   1      10.543  53.459  87.4950  0.00  0.00     0.000 OA
ENDBRANCH 5 11
BRANCH 1 14
ATOM     14  O3  ASG B   2       9.361  48.610  85.2910  0.00  0.00     0.000 O
BRANCH 14 17
ATOM     15  C1  ASG B   2       9.840  45.132  83.8940  0.00  0.00     0.000 C
ATOM     16  C2  ASG B   2      10.171  46.367  84.7440  0.00  0.00     0.000 C
ATOM     17  C3  ASG B   2       9.098  47.435  84.5150  0.00  0.00     0.000 C
ATOM     18  C4  ASG B   2       9.036  47.800  83.0440  0.00  0.00     0.000 C
ATOM     19  C5  ASG B   2       8.830  46.530  82.2240  0.00  0.00     0.000 C
ATOM     20  O5  ASG B   2       9.850  45.565  82.5460  0.00  0.00     0.000 O
ATOM     21   C  ASG B   2       8.922  46.771  80.7510  0.00  0.00     0.000 C
ATOM     22   O  ASG B   2       8.937  45.536  80.0770  0.00  0.00     0.000 O
ATOM     24  HD  ASG B   2       8.952  44.860  79.5370  0.00  0.00     0.000 HD
BRANCH 16 26
ATOM     24   N  ASG B   2      10.267  46.198  86.1760  0.00  0.00     0.000 N
ATOM     26  HD  ASG B   2      10.296  45.528  85.6280  0.00  0.00     0.000 HD
ATOM     26   C  ASG B   2      11.236  46.744  86.9340  0.00  0.00     0.000 C
ATOM     27   C  ASG B   2      10.990  46.755  88.4040  0.00  0.00     0.000 C
ATOM     28   O  ASG B   2      12.259  47.204  86.4400  0.00  0.00     0.000 OA
ENDBRANCH 16 26
BRANCH 18 29
ATOM     29   O  ASG B   2      10.298  48.483  82.7300  0.00  0.00     0.000 O
ATOM     30   O  ASG B   2       9.362  49.790  80.8690  0.00  0.00     0.000 OA
ATOM     31   O  ASG B   2       9.860  50.876  82.9820  0.00  0.00     0.000 OA
ATOM     32   O  ASG B   2      11.660  50.104  81.5650  0.00  0.00     0.000 OA
ATOM     33   S  ASG B   2      10.274  49.911  81.9910  0.00  0.00     0.000 S
ENDBRANCH 18 29
BRANCH 15 34
ATOM     34  O4  ASG B   3      10.761  44.089  84.0350  0.00  0.00     0.000 O
BRANCH 34 38
ATOM     35  C1  GCT B   3      10.646  40.054  83.7670  0.00  0.00     0.000 C
ATOM     36  C2  GCT B   3      11.742  40.695  82.9440  0.00  0.00     0.000 C
ATOM     37  C3  GCT B   3      12.011  42.117  83.4140  0.00  0.00     0.000 C
ATOM     38  C4  GCT B   3      10.727  42.944  83.2800  0.00  0.00     0.000 C
ATOM     39  C5  GCT B   3       9.462  42.098  83.5460  0.00  0.00     0.000 C
ATOM     40  O5  GCT B   3       9.853  41.046  84.4110  0.00  0.00     0.000 O
ATOM     41   O  GCT B   3      12.900  39.891  83.1190  0.00  0.00     0.000 O
ATOM     43  HD  GCT B   3      13.131  39.125  82.7870  0.00  0.00     0.000 HD
ATOM     43   O  GCT B   3      13.108  42.656  82.6460  0.00  0.00     0.000 O
ATOM     45  HD  GCT B   3      13.339  41.890  82.3140  0.00  0.00     0.000 HD
BRANCH 39 45
ATOM     45   C  GCT B   3       8.720  41.520  82.3600  0.00  0.00     0.000 C
ATOM     46   O  GCT B   3       9.081  41.832  81.1820  0.00  0.00     0.000 OA
ATOM     47   O  GCT B   3       7.780  40.741  82.5900  0.00  0.00     0.000 OA
ENDBRANCH 39 45
BRANCH 35 48
ATOM     48  O3  ASG B   4      10.255  38.943  83.1800  0.00  0.00     0.000 O
BRANCH 48 51
ATOM     49  C1  ASG B   4      10.877  35.834  85.0880  0.00  0.00     0.000 C
ATOM     50  C2  ASG B   4      11.146  37.081  84.2280  0.00  0.00     0.000 C
ATOM     51  C3  ASG B   4       9.921  37.990  84.1740  0.00  0.00     0.000 C
ATOM     52  C4  ASG B   4       8.671  37.208  83.8060  0.00  0.00     0.000 C
ATOM     53  C5  ASG B   4       8.536  36.042  84.7810  0.00  0.00     0.000 C
ATOM     54  O5  ASG B   4       9.690  35.187  84.6590  0.00  0.00     0.000 O
BRANCH 50 57
ATOM     55   N  ASG B   4      12.289  37.020  85.1100  0.00  0.00     0.000 N
ATOM     57  HD  ASG B   4      12.803  36.546  84.5990  0.00  0.00     0.000 HD
ATOM     57   O  ASG B   4      13.787  36.766  83.4650  0.00  0.00     0.000 OA
ATOM     58   C  ASG B   4      13.543  36.972  84.6500  0.00  0.00     0.000 C
ATOM     59   C  ASG B   4      14.618  37.130  85.6800  0.00  0.00     0.000 C
ENDBRANCH 50 57
BRANCH 52 60
ATOM     60   O  ASG B   4       8.914  36.808  82.3960  0.00  0.00     0.000 O
ATOM     61   O  ASG B   4       6.707  37.688  81.6310  0.00  0.00     0.000 OA
ATOM     62   O  ASG B   4       8.266  36.851  80.0370  0.00  0.00     0.000 OA
ATOM     63   O  ASG B   4       7.318  35.351  81.6400  0.00  0.00     0.000 OA
ATOM     64   S  ASG B   4       7.716  36.728  81.3330  0.00  0.00     0.000 S
ENDBRANCH 52 60
ATOM     65   O  ASG B   4       7.066  34.353  85.7130  0.00  0.00     0.000 O
ATOM     67  HD  ASG B   4       7.681  33.754  85.6070  0.00  0.00     0.000 HD
ATOM     67   O  ASG B   4       7.066  34.353  85.7130  0.00  0.00     0.000 O
ATOM     69  HD  ASG B   4       7.681  33.754  85.6070  0.00  0.00     0.000 HD
ENDBRANCH 48 51
ENDBRANCH 35 48
ENDBRANCH 34 38
ENDBRANCH 15 34
ENDBRANCH 14 17
ENDBRANCH 1 14
TORSDOF 12
ENDMDL
MODEL 89
REMARK VINA RESULT:      -6.9     17.520     24.870
ROOT
ATOM      1  C1  GAD B   1       8.616  46.756  79.3750  0.00  0.00     0.000 C
ATOM      2  C2  GAD B   1       7.602  45.986  78.5240  0.00  0.00     0.000 C
ATOM      3  C3  GAD B   1       6.608  45.248  79.4280  0.00  0.00     0.000 C
ATOM      4  C4  GAD B   1       7.193  44.777  80.7630  0.00  0.00     0.000 C
ATOM      5  C5  GAD B   1       8.423  45.101  81.2090  0.00  0.00     0.000 C
ATOM      6  O5  GAD B   1       9.247  45.905  80.3430  0.00  0.00     0.000 O
ATOM      7   O  GAD B   1       6.938  46.870  77.5460  0.00  0.00     0.000 O
ATOM      9  HD  GAD B   1       7.603  47.379  77.7670  0.00  0.00     0.000 HD
ATOM      9   O  GAD B   1       6.079  44.067  78.7840  0.00  0.00     0.000 O
ATOM     11  HD  GAD B   1       6.744  44.577  79.0050  0.00  0.00     0.000 HD
ENDROOT
BRANCH 5 11
ATOM     11   C  GAD B   1       8.958  44.740  82.5430  0.00  0.00     0.000 C
ATOM     12   O  GAD B   1       8.791  43.540  82.9240  0.00  0.00     0.000 OA
ATOM     13   O  GAD B   1       9.488  45.642  83.2920  0.00  0.00     0.000 OA
ENDBRANCH 5 11
BRANCH 1 14
ATOM     14  O3  ASG B   2       9.824  47.150  78.9310  0.00  0.00     0.000 O
BRANCH 14 17
ATOM     15  C1  ASG B   2      11.959  47.767  75.8750  0.00  0.00     0.000 C
ATOM     16  C2  ASG B   2      11.601  47.182  77.2480  0.00  0.00     0.000 C
ATOM     17  C3  ASG B   2      10.208  47.673  77.6540  0.00  0.00     0.000 C
ATOM     18  C4  ASG B   2      10.184  49.189  77.6950  0.00  0.00     0.000 C
ATOM     19  C5  ASG B   2      10.666  49.732  76.3540  0.00  0.00     0.000 C
ATOM     20  O5  ASG B   2      11.955  49.174  76.0300  0.00  0.00     0.000 O
ATOM     21   C  ASG B   2      10.834  51.218  76.3570  0.00  0.00     0.000 C
ATOM     22   O  ASG B   2      11.478  51.617  75.1720  0.00  0.00     0.000 O
ATOM     24  HD  ASG B   2      11.859  52.002  74.4970  0.00  0.00     0.000 HD
BRANCH 16 26
ATOM     24   N  ASG B   2      11.708  45.744  77.3290  0.00  0.00     0.000 N
ATOM     26  HD  ASG B   2      12.170  46.211  76.7650  0.00  0.00     0.000 HD
ATOM     26   C  ASG B   2      12.096  45.079  78.4330  0.00  0.00     0.000 C
ATOM     27   C  ASG B   2      11.822  43.615  78.4470  0.00  0.00     0.000 C
ATOM     28   O  ASG B   2      12.643  45.649  79.3700  0.00  0.00     0.000 OA
ENDBRANCH 16 26
BRANCH 18 29
ATOM     29   O  ASG B   2      11.047  49.589  78.8150  0.00  0.00     0.000 O
ATOM     30   O  ASG B   2       9.792  51.642  79.3140  0.00  0.00     0.000 OA
ATOM     31   O  ASG B   2       9.599  49.718  80.7810  0.00  0.00     0.000 OA
ATOM     32   O  ASG B   2      11.663  50.973  80.6970  0.00  0.00     0.000 OA
ATOM     33   S  ASG B   2      10.468  50.541  79.9730  0.00  0.00     0.000 S
ENDBRANCH 18 29
BRANCH 15 34
ATOM     34  O4  ASG B   3      13.218  47.374  75.4080  0.00  0.00     0.000 O
BRANCH 34 38
ATOM     35  C1  GCT B   3      16.060  48.338  72.6950  0.00  0.00     0.000 C
ATOM     36  C2  GCT B   3      16.501  48.501  74.1340  0.00  0.00     0.000 C
ATOM     37  C3  GCT B   3      15.584  47.730  75.0720  0.00  0.00     0.000 C
ATOM     38  C4  GCT B   3      14.150  48.253  74.9190  0.00  0.00     0.000 C
ATOM     39  C5  GCT B   3      13.846  48.692  73.4680  0.00  0.00     0.000 C
ATOM     40  O5  GCT B   3      14.697  47.933  72.6280  0.00  0.00     0.000 O
ATOM     41   O  GCT B   3      17.825  47.991  74.2100  0.00  0.00     0.000 O
ATOM     43  HD  GCT B   3      18.588  48.318  73.9640  0.00  0.00     0.000 HD
ATOM     43   O  GCT B   3      16.087  47.861  76.4180  0.00  0.00     0.000 O
ATOM     45  HD  GCT B   3      16.851  48.188  76.1720  0.00  0.00     0.000 HD
BRANCH 39 45
ATOM     45   C  GCT B   3      13.976  50.158  73.1180  0.00  0.00     0.000 C
ATOM     46   O  GCT B   3      14.253  50.999  74.0310  0.00  0.00     0.000 OA
ATOM     47   O  GCT B   3      13.817  50.485  71.9310  0.00  0.00     0.000 OA
ENDBRANCH 39 45
BRANCH 35 48
ATOM     48  O3  ASG B   4      16.696  49.212  71.9440  0.00  0.00     0.000 O
BRANCH 48 51
ATOM     49  C1  ASG B   4      18.412  47.391  69.2190  0.00  0.00     0.000 C
ATOM     50  C2  ASG B   4      18.024  47.837  70.6390  0.00  0.00     0.000 C
ATOM     51  C3  ASG B   4      16.774  48.712  70.6210  0.00  0.00     0.000 C
ATOM     52  C4  ASG B   4      16.901  49.833  69.6030  0.00  0.00     0.000 C
ATOM     53  C5  ASG B   4      17.242  49.211  68.2520  0.00  0.00     0.000 C
ATOM     54  O5  ASG B   4      18.499  48.514  68.3570  0.00  0.00     0.000 O
BRANCH 50 57
ATOM     55   N  ASG B   4      18.188  46.413  70.8190  0.00  0.00     0.000 N
ATOM     57  HD  ASG B   4      19.033  46.418  71.0110  0.00  0.00     0.000 HD
ATOM     57   O  ASG B   4      19.916  46.596  72.2320  0.00  0.00     0.000 OA
ATOM     58   C  ASG B   4      19.062  45.900  71.6910  0.00  0.00     0.000 C
ATOM     59   C  ASG B   4      18.961  44.423  71.9160  0.00  0.00     0.000 C
ENDBRANCH 50 57
BRANCH 52 60
ATOM     60   O  ASG B   4      17.966  50.699  70.1710  0.00  0.00     0.000 O
ATOM     61   O  ASG B   4      16.360  52.526  70.7320  0.00  0.00     0.000 OA
ATOM     62   O  ASG B   4      18.638  52.703  71.4030  0.00  0.00     0.000 OA
ATOM     63   O  ASG B   4      18.106  52.704  69.0720  0.00  0.00     0.000 OA
ATOM     64   S  ASG B   4      17.725  52.265  70.4180  0.00  0.00     0.000 S
ENDBRANCH 52 60
ATOM     65   O  ASG B   4      17.328  49.531  65.8490  0.00  0.00     0.000 O
ATOM     67  HD  ASG B   4      18.123  49.189  65.8290  0.00  0.00     0.000 HD
ATOM     67   O  ASG B   4      17.328  49.531  65.8490  0.00  0.00     0.000 O
ATOM     69  HD  ASG B   4      18.123  49.189  65.8290  0.00  0.00     0.000 HD
ENDBRANCH 48 51
ENDBRANCH 35 48
ENDBRANCH 34 38
ENDBRANCH 15 34
ENDBRANCH 14 17
ENDBRANCH 1 14
TORSDOF 12
ENDMDL
MODEL 90
REMARK VINA RESULT:      -6.9     26.179     30.916
ROOT
ATOM      1  C1  GAD B   1     -24.393  44.034  55.9860  0.00  0.00     0.000 C
ATOM      2  C2  GAD B   1     -25.867  44.394  56.2010  0.00  0.00     0.000 C
ATOM      3  C3  GAD B   1     -26.767  43.306  55.6040  0.00  0.00     0.000 C
ATOM      4  C4  GAD B   1     -26.190  42.613  54.3670  0.00  0.00     0.000 C
ATOM      5  C5  GAD B   1     -24.938  42.801  53.9060  0.00  0.00     0.000 C
ATOM      6  O5  GAD B   1     -24.115  43.755  54.6050  0.00  0.00     0.000 O
ATOM      7   O  GAD B   1     -26.153  44.656  57.6250  0.00  0.00     0.000 O
ATOM      9  HD  GAD B   1     -25.289  44.698  57.6460  0.00  0.00     0.000 HD
ATOM      9   O  GAD B   1     -28.049  43.839  55.2030  0.00  0.00     0.000 O
ATOM     11  HD  GAD B   1     -27.185  43.880  55.2250  0.00  0.00     0.000 HD
ENDROOT
BRANCH 5 11
ATOM     11   C  GAD B   1     -24.334  42.058  52.7750  0.00  0.00     0.000 C
ATOM     12   O  GAD B   1     -24.310  42.645  51.6490  0.00  0.00     0.000 OA
ATOM     13   O  GAD B   1     -23.938  40.845  52.9370  0.00  0.00     0.000 OA
ENDBRANCH 5 11
BRANCH 1 14
ATOM     14  O3  ASG B   2     -23.390  44.931  56.0090  0.00  0.00     0.000 O
BRANCH 14 17
ATOM     15  C1  ASG B   2     -22.149  48.315  54.8720  0.00  0.00     0.000 C
ATOM     16  C2  ASG B   2     -22.074  46.806  55.1490  0.00  0.00     0.000 C
ATOM     17  C3  ASG B   2     -23.408  46.337  55.7360  0.00  0.00     0.000 C
ATOM     18  C4  ASG B   2     -23.710  47.100  57.0120  0.00  0.00     0.000 C
ATOM     19  C5  ASG B   2     -23.652  48.597  56.7230  0.00  0.00     0.000 C
ATOM     20  O5  ASG B   2     -22.386  48.935  56.1220  0.00  0.00     0.000 O
ATOM     21   C  ASG B   2     -23.773  49.430  57.9580  0.00  0.00     0.000 C
ATOM     22   O  ASG B   2     -23.500  50.773  57.6430  0.00  0.00     0.000 O
ATOM     24  HD  ASG B   2     -23.359  51.626  57.5940  0.00  0.00     0.000 HD
BRANCH 16 26
ATOM     24   N  ASG B   2     -21.800  45.922  54.0390  0.00  0.00     0.000 N
ATOM     26  HD  ASG B   2     -21.653  46.775  53.9980  0.00  0.00     0.000 HD
ATOM     26   C  ASG B   2     -20.935  44.893  54.0930  0.00  0.00     0.000 C
ATOM     27   C  ASG B   2     -21.032  43.896  52.9900  0.00  0.00     0.000 C
ATOM     28   O  ASG B   2     -20.117  44.785  54.9990  0.00  0.00     0.000 OA
ENDBRANCH 16 26
BRANCH 18 29
ATOM     29   O  ASG B   2     -22.711  46.672  58.0000  0.00  0.00     0.000 O
ATOM     30   O  ASG B   2     -24.209  46.940  59.9300  0.00  0.00     0.000 OA
ATOM     31   O  ASG B   2     -23.657  44.717  59.1250  0.00  0.00     0.000 OA
ATOM     32   O  ASG B   2     -21.971  46.061  60.2180  0.00  0.00     0.000 OA
ATOM     33   S  ASG B   2     -23.187  46.054  59.4050  0.00  0.00     0.000 S
ENDBRANCH 18 29
BRANCH 15 34
ATOM     34  O4  ASG B   3     -20.975  48.845  54.3260  0.00  0.00     0.000 O
BRANCH 34 38
ATOM     35  C1  GCT B   3     -17.199  50.266  54.6140  0.00  0.00     0.000 C
ATOM     36  C2  GCT B   3     -17.473  49.065  55.4930  0.00  0.00     0.000 C
ATOM     37  C3  GCT B   3     -18.722  48.329  55.0290  0.00  0.00     0.000 C
ATOM     38  C4  GCT B   3     -19.921  49.284  55.0860  0.00  0.00     0.000 C
ATOM     39  C5  GCT B   3     -19.519  50.739  54.7550  0.00  0.00     0.000 C
ATOM     40  O5  GCT B   3     -18.376  50.663  53.9200  0.00  0.00     0.000 O
ATOM     41   O  GCT B   3     -16.336  48.220  55.3880  0.00  0.00     0.000 O
ATOM     43  HD  GCT B   3     -15.545  48.265  55.7370  0.00  0.00     0.000 HD
ATOM     43   O  GCT B   3     -18.899  47.158  55.8540  0.00  0.00     0.000 O
ATOM     45  HD  GCT B   3     -18.107  47.203  56.2030  0.00  0.00     0.000 HD
BRANCH 39 45
ATOM     45   C  GCT B   3     -19.238  51.687  55.9010  0.00  0.00     0.000 C
ATOM     46   O  GCT B   3     -19.332  51.269  57.0980  0.00  0.00     0.000 OA
ATOM     47   O  GCT B   3     -18.909  52.851  55.6210  0.00  0.00     0.000 OA
ENDBRANCH 39 45
BRANCH 35 48
ATOM     48  O3  ASG B   4     -16.286  51.023  55.1850  0.00  0.00     0.000 O
BRANCH 48 51
ATOM     49  C1  ASG B   4     -12.888  51.352  53.7580  0.00  0.00     0.000 C
ATOM     50  C2  ASG B   4     -14.062  50.796  54.5810  0.00  0.00     0.000 C
ATOM     51  C3  ASG B   4     -15.375  51.472  54.1960  0.00  0.00     0.000 C
ATOM     52  C4  ASG B   4     -15.239  52.986  54.2050  0.00  0.00     0.000 C
ATOM     53  C5  ASG B   4     -14.062  53.361  53.3080  0.00  0.00     0.000 C
ATOM     54  O5  ASG B   4     -12.859  52.768  53.8360  0.00  0.00     0.000 O
BRANCH 50 57
ATOM     55   N  ASG B   4     -14.183  50.660  56.0150  0.00  0.00     0.000 N
ATOM     57  HD  ASG B   4     -14.047  49.806  56.0610  0.00  0.00     0.000 HD
ATOM     57   O  ASG B   4     -12.873  48.848  56.1460  0.00  0.00     0.000 OA
ATOM     58   C  ASG B   4     -13.489  49.750  56.7060  0.00  0.00     0.000 C
ATOM     59   C  ASG B   4     -13.559  49.877  58.1960  0.00  0.00     0.000 C
ENDBRANCH 50 57
BRANCH 52 60
ATOM     60   O  ASG B   4     -15.048  53.309  55.6420  0.00  0.00     0.000 O
ATOM     61   O  ASG B   4     -16.566  55.288  55.5300  0.00  0.00     0.000 OA
ATOM     62   O  ASG B   4     -15.667  54.601  57.6250  0.00  0.00     0.000 OA
ATOM     63   O  ASG B   4     -14.187  55.412  55.9310  0.00  0.00     0.000 OA
ATOM     64   S  ASG B   4     -15.455  54.742  56.2350  0.00  0.00     0.000 S
ENDBRANCH 52 60
ATOM     65   O  ASG B   4     -12.954  55.127  52.0700  0.00  0.00     0.000 O
ATOM     67  HD  ASG B   4     -12.191  54.883  52.3990  0.00  0.00     0.000 HD
ATOM     67   O  ASG B   4     -12.954  55.127  52.0700  0.00  0.00     0.000 O
ATOM     69  HD  ASG B   4     -12.191  54.883  52.3990  0.00  0.00     0.000 HD
ENDBRANCH 48 51
ENDBRANCH 35 48
ENDBRANCH 34 38
ENDBRANCH 15 34
ENDBRANCH 14 17
ENDBRANCH 1 14
TORSDOF 12
ENDMDL
MODEL 91
REMARK VINA RESULT:      -6.9     20.425     25.046
ROOT
ATOM      1  C1  GAD B   1       7.253  55.464  75.5480  0.00  0.00     0.000 C
ATOM      2  C2  GAD B   1       6.094  56.355  76.0070  0.00  0.00     0.000 C
ATOM      3  C3  GAD B   1       6.492  57.126  77.2720  0.00  0.00     0.000 C
ATOM      4  C4  GAD B   1       7.462  56.380  78.1920  0.00  0.00     0.000 C
ATOM      5  C5  GAD B   1       8.061  55.214  77.8770  0.00  0.00     0.000 C
ATOM      6  O5  GAD B   1       7.722  54.620  76.6100  0.00  0.00     0.000 O
ATOM      7   O  GAD B   1       5.632  57.239  74.9200  0.00  0.00     0.000 O
ATOM      9  HD  GAD B   1       6.098  56.677  74.4550  0.00  0.00     0.000 HD
ATOM      9   O  GAD B   1       5.339  57.447  78.0820  0.00  0.00     0.000 O
ATOM     11  HD  GAD B   1       5.805  56.885  77.6160  0.00  0.00     0.000 HD
ENDROOT
BRANCH 5 11
ATOM     11   C  GAD B   1       9.081  54.538  78.7130  0.00  0.00     0.000 C
ATOM     12   O  GAD B   1       8.734  53.457  79.2830  0.00  0.00     0.000 OA
ATOM     13   O  GAD B   1      10.229  55.087  78.9010  0.00  0.00     0.000 OA
ENDBRANCH 5 11
BRANCH 1 14
ATOM     14  O3  ASG B   2       7.105  54.388  74.7540  0.00  0.00     0.000 O
BRANCH 14 17
ATOM     15  C1  ASG B   2       8.481  53.104  71.4770  0.00  0.00     0.000 C
ATOM     16  C2  ASG B   2       7.453  53.750  72.4170  0.00  0.00     0.000 C
ATOM     17  C3  ASG B   2       8.027  53.789  73.8370  0.00  0.00     0.000 C
ATOM     18  C4  ASG B   2       8.365  52.384  74.2970  0.00  0.00     0.000 C
ATOM     19  C5  ASG B   2       9.288  51.732  73.2730  0.00  0.00     0.000 C
ATOM     20  O5  ASG B   2       8.691  51.792  71.9620  0.00  0.00     0.000 O
ATOM     21   C  ASG B   2       9.542  50.286  73.5590  0.00  0.00     0.000 C
ATOM     22   O  ASG B   2      10.217  49.707  72.4700  0.00  0.00     0.000 O
ATOM     24  HD  ASG B   2      10.630  49.224  71.8810  0.00  0.00     0.000 HD
BRANCH 16 26
ATOM     24   N  ASG B   2       6.088  54.221  72.3890  0.00  0.00     0.000 N
ATOM     26  HD  ASG B   2       6.429  53.836  73.0850  0.00  0.00     0.000 HD
ATOM     26   C  ASG B   2       5.738  55.505  72.1880  0.00  0.00     0.000 C
ATOM     27   C  ASG B   2       4.307  55.750  71.8510  0.00  0.00     0.000 C
ATOM     28   O  ASG B   2       6.552  56.416  72.2790  0.00  0.00     0.000 OA
ENDBRANCH 16 26
BRANCH 18 29
ATOM     29   O  ASG B   2       7.086  51.675  74.4450  0.00  0.00     0.000 O
ATOM     30   O  ASG B   2       7.836  50.300  76.3400  0.00  0.00     0.000 OA
ATOM     31   O  ASG B   2       6.303  52.145  76.7130  0.00  0.00     0.000 OA
ATOM     32   O  ASG B   2       5.553  50.166  75.5440  0.00  0.00     0.000 OA
ATOM     33   S  ASG B   2       6.682  51.040  75.8650  0.00  0.00     0.000 S
ENDBRANCH 18 29
BRANCH 15 34
ATOM     34  O4  ASG B   3       8.053  53.026  70.1470  0.00  0.00     0.000 O
BRANCH 34 38
ATOM     35  C1  GCT B   3       7.371  54.598  66.4830  0.00  0.00     0.000 C
ATOM     36  C2  GCT B   3       8.740  54.914  67.0430  0.00  0.00     0.000 C
ATOM     37  C3  GCT B   3       9.093  53.964  68.1790  0.00  0.00     0.000 C
ATOM     38  C4  GCT B   3       8.047  54.098  69.2920  0.00  0.00     0.000 C
ATOM     39  C5  GCT B   3       6.638  54.398  68.7300  0.00  0.00     0.000 C
ATOM     40  O5  GCT B   3       6.601  53.855  67.4220  0.00  0.00     0.000 O
ATOM     41   O  GCT B   3       9.659  54.763  65.9710  0.00  0.00     0.000 O
ATOM     43  HD  GCT B   3       9.847  55.266  65.2910  0.00  0.00     0.000 HD
ATOM     43   O  GCT B   3      10.432  54.263  68.6290  0.00  0.00     0.000 O
ATOM     45  HD  GCT B   3      10.619  54.766  67.9490  0.00  0.00     0.000 HD
BRANCH 39 45
ATOM     45   C  GCT B   3       6.172  55.837  68.6880  0.00  0.00     0.000 C
ATOM     46   O  GCT B   3       6.984  56.769  68.9840  0.00  0.00     0.000 OA
ATOM     47   O  GCT B   3       4.997  56.054  68.3480  0.00  0.00     0.000 OA
ENDBRANCH 39 45
BRANCH 35 48
ATOM     48  O3  ASG B   4       6.984  55.581  65.6980  0.00  0.00     0.000 O
BRANCH 48 51
ATOM     49  C1  ASG B   4       6.116  55.627  62.1010  0.00  0.00     0.000 C
ATOM     50  C2  ASG B   4       6.870  55.917  63.4100  0.00  0.00     0.000 C
ATOM     51  C3  ASG B   4       6.363  55.035  64.5470  0.00  0.00     0.000 C
ATOM     52  C4  ASG B   4       4.848  55.085  64.6490  0.00  0.00     0.000 C
ATOM     53  C5  ASG B   4       4.268  54.730  63.2830  0.00  0.00     0.000 C
ATOM     54  O5  ASG B   4       4.716  55.699  62.3140  0.00  0.00     0.000 O
BRANCH 50 57
ATOM     55   N  ASG B   4       8.250  55.685  63.0490  0.00  0.00     0.000 N
ATOM     57  HD  ASG B   4       8.352  56.374  62.5340  0.00  0.00     0.000 HD
ATOM     57   O  ASG B   4       8.714  57.842  62.6650  0.00  0.00     0.000 OA
ATOM     58   C  ASG B   4       9.101  56.685  62.8030  0.00  0.00     0.000 C
ATOM     59   C  ASG B   4      10.539  56.291  62.6560  0.00  0.00     0.000 C
ENDBRANCH 50 57
BRANCH 52 60
ATOM     60   O  ASG B   4       4.575  56.476  65.0940  0.00  0.00     0.000 O
ATOM     61   O  ASG B   4       2.355  55.871  66.0590  0.00  0.00     0.000 OA
ATOM     62   O  ASG B   4       3.210  58.074  66.3450  0.00  0.00     0.000 OA
ATOM     63   O  ASG B   4       2.665  57.311  64.1450  0.00  0.00     0.000 OA
ATOM     64   S  ASG B   4       3.098  56.949  65.4980  0.00  0.00     0.000 S
ENDBRANCH 52 60
ATOM     65   O  ASG B   4       2.304  54.024  62.0490  0.00  0.00     0.000 O
ATOM     67  HD  ASG B   4       2.456  54.632  61.4510  0.00  0.00     0.000 HD
ATOM     67   O  ASG B   4       2.304  54.024  62.0490  0.00  0.00     0.000 O
ATOM     69  HD  ASG B   4       2.456  54.632  61.4510  0.00  0.00     0.000 HD
ENDBRANCH 48 51
ENDBRANCH 35 48
ENDBRANCH 34 38
ENDBRANCH 15 34
ENDBRANCH 14 17
ENDBRANCH 1 14
TORSDOF 12
ENDMDL
MODEL 92
REMARK VINA RESULT:      -6.9     27.630     31.609
ROOT
ATOM      1  C1  GAD B   1      -5.813  18.689  48.0190  0.00  0.00     0.000 C
ATOM      2  C2  GAD B   1      -5.417  20.115  47.6220  0.00  0.00     0.000 C
ATOM      3  C3  GAD B   1      -4.999  20.153  46.1470  0.00  0.00     0.000 C
ATOM      4  C4  GAD B   1      -4.335  18.870  45.6410  0.00  0.00     0.000 C
ATOM      5  C5  GAD B   1      -4.251  17.728  46.3520  0.00  0.00     0.000 C
ATOM      6  O5  GAD B   1      -4.782  17.745  47.6910  0.00  0.00     0.000 O
ATOM      7   O  GAD B   1      -6.488  21.078  47.9390  0.00  0.00     0.000 O
ATOM      9  HD  GAD B   1      -6.761  20.406  48.4110  0.00  0.00     0.000 HD
ATOM      9   O  GAD B   1      -4.058  21.219  45.8900  0.00  0.00     0.000 O
ATOM     11  HD  GAD B   1      -4.331  20.547  46.3620  0.00  0.00     0.000 HD
ENDROOT
BRANCH 5 11
ATOM     11   C  GAD B   1      -3.707  16.450  45.8350  0.00  0.00     0.000 C
ATOM     12   O  GAD B   1      -2.635  16.024  46.3670  0.00  0.00     0.000 OA
ATOM     13   O  GAD B   1      -4.269  15.866  44.8370  0.00  0.00     0.000 OA
ENDBRANCH 5 11
BRANCH 1 14
ATOM     14  O3  ASG B   2      -5.825  18.239  49.2880  0.00  0.00     0.000 O
BRANCH 14 17
ATOM     15  C1  ASG B   2      -7.329  18.874  52.6950  0.00  0.00     0.000 C
ATOM     16  C2  ASG B   2      -6.212  18.742  51.6510  0.00  0.00     0.000 C
ATOM     17  C3  ASG B   2      -6.830  18.371  50.3000  0.00  0.00     0.000 C
ATOM     18  C4  ASG B   2      -7.604  17.072  50.4230  0.00  0.00     0.000 C
ATOM     19  C5  ASG B   2      -8.619  17.203  51.5540  0.00  0.00     0.000 C
ATOM     20  O5  ASG B   2      -7.956  17.607  52.7680  0.00  0.00     0.000 O
ATOM     21   C  ASG B   2      -9.315  15.915  51.8580  0.00  0.00     0.000 C
ATOM     22   O  ASG B   2     -10.069  16.060  53.0370  0.00  0.00     0.000 O
ATOM     24  HD  ASG B   2     -10.573  16.006  53.7390  0.00  0.00     0.000 HD
BRANCH 16 26
ATOM     24   N  ASG B   2      -4.773  18.735  51.5170  0.00  0.00     0.000 N
ATOM     26  HD  ASG B   2      -5.288  18.280  50.9910  0.00  0.00     0.000 HD
ATOM     26   C  ASG B   2      -4.035  19.834  51.2750  0.00  0.00     0.000 C
ATOM     27   C  ASG B   2      -2.569  19.704  51.5080  0.00  0.00     0.000 C
ATOM     28   O  ASG B   2      -4.543  20.879  50.8860  0.00  0.00     0.000 OA
ENDBRANCH 16 26
BRANCH 18 29
ATOM     29   O  ASG B   2      -6.612  16.017  50.6660  0.00  0.00     0.000 O
ATOM     30   O  ASG B   2      -7.947  14.239  49.6180  0.00  0.00     0.000 OA
ATOM     31   O  ASG B   2      -6.003  15.131  48.4700  0.00  0.00     0.000 OA
ATOM     32   O  ASG B   2      -5.721  13.781  50.4550  0.00  0.00     0.000 OA
ATOM     33   S  ASG B   2      -6.580  14.714  49.7260  0.00  0.00     0.000 S
ENDBRANCH 18 29
BRANCH 15 34
ATOM     34  O4  ASG B   3      -6.868  19.218  53.9710  0.00  0.00     0.000 O
BRANCH 34 38
ATOM     35  C1  GCT B   3      -5.951  18.064  57.7380  0.00  0.00     0.000 C
ATOM     36  C2  GCT B   3      -4.776  18.043  56.7840  0.00  0.00     0.000 C
ATOM     37  C3  GCT B   3      -5.069  18.879  55.5460  0.00  0.00     0.000 C
ATOM     38  C4  GCT B   3      -6.307  18.316  54.8390  0.00  0.00     0.000 C
ATOM     39  C5  GCT B   3      -7.334  17.739  55.8390  0.00  0.00     0.000 C
ATOM     40  O5  GCT B   3      -7.145  18.435  57.0590  0.00  0.00     0.000 O
ATOM     41   O  GCT B   3      -3.671  18.583  57.4940  0.00  0.00     0.000 O
ATOM     43  HD  GCT B   3      -3.153  18.251  58.1030  0.00  0.00     0.000 HD
ATOM     43   O  GCT B   3      -3.895  18.882  54.7060  0.00  0.00     0.000 O
ATOM     45  HD  GCT B   3      -3.377  18.549  55.3150  0.00  0.00     0.000 HD
BRANCH 39 45
ATOM     45   C  GCT B   3      -7.322  16.250  56.1050  0.00  0.00     0.000 C
ATOM     46   O  GCT B   3      -8.184  15.746  56.8920  0.00  0.00     0.000 OA
ATOM     47   O  GCT B   3      -6.463  15.566  55.5240  0.00  0.00     0.000 OA
ENDBRANCH 39 45
BRANCH 35 48
ATOM     48  O3  ASG B   4      -5.782  17.138  58.6570  0.00  0.00     0.000 O
BRANCH 48 51
ATOM     49  C1  ASG B   4      -5.365  17.452  62.3200  0.00  0.00     0.000 C
ATOM     50  C2  ASG B   4      -5.028  17.170  60.8460  0.00  0.00     0.000 C
ATOM     51  C3  ASG B   4      -6.134  17.672  59.9210  0.00  0.00     0.000 C
ATOM     52  C4  ASG B   4      -7.498  17.183  60.3780  0.00  0.00     0.000 C
ATOM     53  C5  ASG B   4      -7.682  17.585  61.8390  0.00  0.00     0.000 C
ATOM     54  O5  ASG B   4      -6.656  16.957  62.6330  0.00  0.00     0.000 O
BRANCH 50 57
ATOM     55   N  ASG B   4      -3.760  17.831  60.6420  0.00  0.00     0.000 N
ATOM     57  HD  ASG B   4      -3.276  17.304  61.1300  0.00  0.00     0.000 HD
ATOM     57   O  ASG B   4      -2.528  15.992  60.9810  0.00  0.00     0.000 OA
ATOM     58   C  ASG B   4      -2.602  17.163  60.6220  0.00  0.00     0.000 C
ATOM     59   C  ASG B   4      -1.406  17.952  60.1870  0.00  0.00     0.000 C
ENDBRANCH 50 57
BRANCH 52 60
ATOM     60   O  ASG B   4      -7.438  15.717  60.1430  0.00  0.00     0.000 O
ATOM     61   O  ASG B   4      -9.905  15.541  59.8040  0.00  0.00     0.000 OA
ATOM     62   O  ASG B   4      -8.523  13.632  59.4650  0.00  0.00     0.000 OA
ATOM     63   O  ASG B   4      -8.708  14.563  61.6600  0.00  0.00     0.000 OA
ATOM     64   S  ASG B   4      -8.756  14.807  60.2160  0.00  0.00     0.000 S
ENDBRANCH 52 60
ATOM     65   O  ASG B   4      -9.252  17.909  63.6580  0.00  0.00     0.000 O
ATOM     67  HD  ASG B   4      -8.726  17.477  64.1940  0.00  0.00     0.000 HD
ATOM     67   O  ASG B   4      -9.252  17.909  63.6580  0.00  0.00     0.000 O
ATOM     69  HD  ASG B   4      -8.726  17.477  64.1940  0.00  0.00     0.000 HD
ENDBRANCH 48 51
ENDBRANCH 35 48
ENDBRANCH 34 38
ENDBRANCH 15 34
ENDBRANCH 14 17
ENDBRANCH 1 14
TORSDOF 12
ENDMDL
MODEL 93
REMARK VINA RESULT:      -6.9     18.737     22.447
ROOT
ATOM      1  C1  GAD B   1       7.362  51.956  73.9430  0.00  0.00     0.000 C
ATOM      2  C2  GAD B   1       7.189  50.630  73.1950  0.00  0.00     0.000 C
ATOM      3  C3  GAD B   1       5.713  50.415  72.8390  0.00  0.00     0.000 C
ATOM      4  C4  GAD B   1       4.724  51.005  73.8480  0.00  0.00     0.000 C
ATOM      5  C5  GAD B   1       5.076  51.789  74.8860  0.00  0.00     0.000 C
ATOM      6  O5  GAD B   1       6.482  52.041  75.0740  0.00  0.00     0.000 O
ATOM      7   O  GAD B   1       8.077  50.556  72.0190  0.00  0.00     0.000 O
ATOM      9  HD  GAD B   1       8.447  51.221  72.4320  0.00  0.00     0.000 HD
ATOM      9   O  GAD B   1       5.390  49.010  72.7370  0.00  0.00     0.000 O
ATOM     11  HD  GAD B   1       5.761  49.675  73.1510  0.00  0.00     0.000 HD
ENDROOT
BRANCH 5 11
ATOM     11   C  GAD B   1       4.121  52.451  75.8050  0.00  0.00     0.000 C
ATOM     12   O  GAD B   1       4.527  53.497  76.4010  0.00  0.00     0.000 OA
ATOM     13   O  GAD B   1       2.970  51.923  76.0320  0.00  0.00     0.000 OA
ENDBRANCH 5 11
BRANCH 1 14
ATOM     14  O3  ASG B   2       8.412  52.240  74.7350  0.00  0.00     0.000 O
BRANCH 14 17
ATOM     15  C1  ASG B   2      10.554  51.151  77.6510  0.00  0.00     0.000 C
ATOM     16  C2  ASG B   2       9.728  52.121  76.7950  0.00  0.00     0.000 C
ATOM     17  C3  ASG B   2       9.195  51.376  75.5670  0.00  0.00     0.000 C
ATOM     18  C4  ASG B   2      10.349  50.804  74.7660  0.00  0.00     0.000 C
ATOM     19  C5  ASG B   2      11.216  49.947  75.6820  0.00  0.00     0.000 C
ATOM     20  O5  ASG B   2      11.623  50.712  76.8340  0.00  0.00     0.000 O
ATOM     21   C  ASG B   2      12.470  49.476  75.0190  0.00  0.00     0.000 C
ATOM     22   O  ASG B   2      13.309  48.880  75.9780  0.00  0.00     0.000 O
ATOM     24  HD  ASG B   2      13.919  48.489  76.4530  0.00  0.00     0.000 HD
BRANCH 16 26
ATOM     24   N  ASG B   2       8.814  52.878  77.6180  0.00  0.00     0.000 N
ATOM     26  HD  ASG B   2       9.616  52.682  77.8780  0.00  0.00     0.000 HD
ATOM     26   C  ASG B   2       8.281  54.061  77.2580  0.00  0.00     0.000 C
ATOM     27   C  ASG B   2       7.114  54.524  78.0600  0.00  0.00     0.000 C
ATOM     28   O  ASG B   2       8.732  54.714  76.3250  0.00  0.00     0.000 OA
ENDBRANCH 16 26
BRANCH 18 29
ATOM     29   O  ASG B   2      11.075  51.952  74.2040  0.00  0.00     0.000 O
ATOM     30   O  ASG B   2      11.955  50.708  72.2750  0.00  0.00     0.000 OA
ATOM     31   O  ASG B   2      10.158  52.310  71.9660  0.00  0.00     0.000 OA
ATOM     32   O  ASG B   2      12.383  53.079  72.5140  0.00  0.00     0.000 OA
ATOM     33   S  ASG B   2      11.401  52.001  72.6310  0.00  0.00     0.000 S
ENDBRANCH 18 29
BRANCH 15 34
ATOM     34  O4  ASG B   3      11.085  51.734  78.8070  0.00  0.00     0.000 O
BRANCH 34 38
ATOM     35  C1  GCT B   3      10.698  51.074  82.7790  0.00  0.00     0.000 C
ATOM     36  C2  GCT B   3      12.132  51.185  82.3100  0.00  0.00     0.000 C
ATOM     37  C3  GCT B   3      12.206  51.851  80.9430  0.00  0.00     0.000 C
ATOM     38  C4  GCT B   3      11.405  51.020  79.9340  0.00  0.00     0.000 C
ATOM     39  C5  GCT B   3      10.170  50.354  80.5810  0.00  0.00     0.000 C
ATOM     40  O5  GCT B   3       9.799  51.169  81.6790  0.00  0.00     0.000 O
ATOM     41   O  GCT B   3      12.813  51.970  83.2780  0.00  0.00     0.000 O
ATOM     43  HD  GCT B   3      13.111  51.785  84.0700  0.00  0.00     0.000 HD
ATOM     43   O  GCT B   3      13.594  51.995  80.5760  0.00  0.00     0.000 O
ATOM     45  HD  GCT B   3      13.891  51.810  81.3680  0.00  0.00     0.000 HD
BRANCH 39 45
ATOM     45   C  GCT B   3      10.286  48.917  81.0420  0.00  0.00     0.000 C
ATOM     46   O  GCT B   3      11.418  48.338  81.0120  0.00  0.00     0.000 OA
ATOM     47   O  GCT B   3       9.257  48.356  81.4520  0.00  0.00     0.000 OA
ENDBRANCH 39 45
BRANCH 35 48
ATOM     48  O3  ASG B   4      10.641  50.271  83.8190  0.00  0.00     0.000 O
BRANCH 48 51
ATOM     49  C1  ASG B   4       8.165  51.247  86.3900  0.00  0.00     0.000 C
ATOM     50  C2  ASG B   4       9.441  51.265  85.5320  0.00  0.00     0.000 C
ATOM     51  C3  ASG B   4       9.329  50.301  84.3540  0.00  0.00     0.000 C
ATOM     52  C4  ASG B   4       8.877  48.924  84.8120  0.00  0.00     0.000 C
ATOM     53  C5  ASG B   4       7.583  49.088  85.6040  0.00  0.00     0.000 C
ATOM     54  O5  ASG B   4       7.837  49.917  86.7560  0.00  0.00     0.000 O
BRANCH 50 57
ATOM     55   N  ASG B   4       9.631  52.630  85.0970  0.00  0.00     0.000 N
ATOM     57  HD  ASG B   4       9.808  52.974  85.8710  0.00  0.00     0.000 HD
ATOM     57   O  ASG B   4      11.012  53.176  86.7730  0.00  0.00     0.000 OA
ATOM     58   C  ASG B   4      10.492  53.457  85.6980  0.00  0.00     0.000 C
ATOM     59   C  ASG B   4      10.732  54.761  85.0000  0.00  0.00     0.000 C
ENDBRANCH 50 57
BRANCH 52 60
ATOM     60   O  ASG B   4      10.029  48.426  85.6060  0.00  0.00     0.000 O
ATOM     61   O  ASG B   4       9.767  46.091  84.7630  0.00  0.00     0.000 OA
ATOM     62   O  ASG B   4      11.618  46.648  86.1530  0.00  0.00     0.000 OA
ATOM     63   O  ASG B   4       9.406  46.765  87.0550  0.00  0.00     0.000 OA
ATOM     64   S  ASG B   4      10.251  46.859  85.8610  0.00  0.00     0.000 S
ENDBRANCH 52 60
ATOM     65   O  ASG B   4       5.619  47.989  86.5080  0.00  0.00     0.000 O
ATOM     67  HD  ASG B   4       5.739  48.391  87.2650  0.00  0.00     0.000 HD
ATOM     67   O  ASG B   4       5.619  47.989  86.5080  0.00  0.00     0.000 O
ATOM     69  HD  ASG B   4       5.739  48.391  87.2650  0.00  0.00     0.000 HD
ENDBRANCH 48 51
ENDBRANCH 35 48
ENDBRANCH 34 38
ENDBRANCH 15 34
ENDBRANCH 14 17
ENDBRANCH 1 14
TORSDOF 12
ENDMDL
MODEL 94
REMARK VINA RESULT:      -6.8     23.389     27.814
ROOT
ATOM      1  C1  GAD B   1     -22.737  23.299  61.9480  0.00  0.00     0.000 C
ATOM      2  C2  GAD B   1     -22.756  24.589  62.7750  0.00  0.00     0.000 C
ATOM      3  C3  GAD B   1     -23.816  25.551  62.2260  0.00  0.00     0.000 C
ATOM      4  C4  GAD B   1     -24.036  25.458  60.7130  0.00  0.00     0.000 C
ATOM      5  C5  GAD B   1     -23.482  24.517  59.9220  0.00  0.00     0.000 C
ATOM      6  O5  GAD B   1     -22.591  23.573  60.5470  0.00  0.00     0.000 O
ATOM      7   O  GAD B   1     -22.931  24.304  64.2120  0.00  0.00     0.000 O
ATOM      9  HD  GAD B   1     -22.719  23.511  63.9370  0.00  0.00     0.000 HD
ATOM      9   O  GAD B   1     -23.474  26.929  62.4970  0.00  0.00     0.000 O
ATOM     11  HD  GAD B   1     -23.263  26.135  62.2210  0.00  0.00     0.000 HD
ENDROOT
BRANCH 5 11
ATOM     11   C  GAD B   1     -23.771  24.353  58.4780  0.00  0.00     0.000 C
ATOM     12   O  GAD B   1     -22.814  24.568  57.6720  0.00  0.00     0.000 OA
ATOM     13   O  GAD B   1     -24.966  24.085  58.0850  0.00  0.00     0.000 OA
ENDBRANCH 5 11
BRANCH 1 14
ATOM     14  O3  ASG B   2     -21.689  22.456  61.8950  0.00  0.00     0.000 O
BRANCH 14 17
ATOM     15  C1  ASG B   2     -17.946  21.963  62.0590  0.00  0.00     0.000 C
ATOM     16  C2  ASG B   2     -19.380  21.717  61.5670  0.00  0.00     0.000 C
ATOM     17  C3  ASG B   2     -20.335  22.646  62.3220  0.00  0.00     0.000 C
ATOM     18  C4  ASG B   2     -20.231  22.394  63.8140  0.00  0.00     0.000 C
ATOM     19  C5  ASG B   2     -18.773  22.526  64.2410  0.00  0.00     0.000 C
ATOM     20  O5  ASG B   2     -17.944  21.659  63.4410  0.00  0.00     0.000 O
ATOM     21   C  ASG B   2     -18.549  22.132  65.6660  0.00  0.00     0.000 C
ATOM     22   O  ASG B   2     -17.167  22.074  65.9220  0.00  0.00     0.000 O
ATOM     24  HD  ASG B   2     -16.357  22.001  66.2190  0.00  0.00     0.000 HD
BRANCH 16 26
ATOM     24   N  ASG B   2     -19.644  21.905  60.1590  0.00  0.00     0.000 N
ATOM     26  HD  ASG B   2     -18.842  21.803  60.4690  0.00  0.00     0.000 HD
ATOM     26   C  ASG B   2     -20.402  21.075  59.4180  0.00  0.00     0.000 C
ATOM     27   C  ASG B   2     -20.845  21.597  58.0950  0.00  0.00     0.000 C
ATOM     28   O  ASG B   2     -20.708  19.956  59.8140  0.00  0.00     0.000 OA
ENDBRANCH 16 26
BRANCH 18 29
ATOM     29   O  ASG B   2     -20.774  21.049  64.0490  0.00  0.00     0.000 O
ATOM     30   O  ASG B   2     -21.716  21.595  66.2530  0.00  0.00     0.000 OA
ATOM     31   O  ASG B   2     -23.186  21.329  64.3400  0.00  0.00     0.000 OA
ATOM     32   O  ASG B   2     -22.056  19.406  65.2730  0.00  0.00     0.000 OA
ATOM     33   S  ASG B   2     -22.020  20.851  65.0450  0.00  0.00     0.000 S
ENDBRANCH 18 29
BRANCH 15 34
ATOM     34  O4  ASG B   3     -16.989  21.164  61.4240  0.00  0.00     0.000 O
BRANCH 34 38
ATOM     35  C1  GCT B   3     -14.817  17.752  61.4620  0.00  0.00     0.000 C
ATOM     36  C2  GCT B   3     -16.070  17.675  60.6170  0.00  0.00     0.000 C
ATOM     37  C3  GCT B   3     -16.591  19.068  60.2920  0.00  0.00     0.000 C
ATOM     38  C4  GCT B   3     -16.905  19.806  61.5990  0.00  0.00     0.000 C
ATOM     39  C5  GCT B   3     -15.931  19.416  62.7340  0.00  0.00     0.000 C
ATOM     40  O5  GCT B   3     -14.723  19.016  62.1100  0.00  0.00     0.000 O
ATOM     41   O  GCT B   3     -15.711  16.992  59.4240  0.00  0.00     0.000 O
ATOM     43  HD  GCT B   3     -15.573  16.154  59.2540  0.00  0.00     0.000 HD
ATOM     43   O  GCT B   3     -17.742  18.938  59.4310  0.00  0.00     0.000 O
ATOM     45  HD  GCT B   3     -17.603  18.101  59.2600  0.00  0.00     0.000 HD
BRANCH 39 45
ATOM     45   C  GCT B   3     -16.362  18.351  63.7180  0.00  0.00     0.000 C
ATOM     46   O  GCT B   3     -15.603  18.053  64.6930  0.00  0.00     0.000 OA
ATOM     47   O  GCT B   3     -17.466  17.811  63.5380  0.00  0.00     0.000 OA
ENDBRANCH 39 45
BRANCH 35 48
ATOM     48  O3  ASG B   4     -14.543  16.559  61.9430  0.00  0.00     0.000 O
BRANCH 48 51
ATOM     49  C1  ASG B   4     -11.509  14.504  61.4280  0.00  0.00     0.000 C
ATOM     50  C2  ASG B   4     -12.963  14.991  61.3060  0.00  0.00     0.000 C
ATOM     51  C3  ASG B   4     -13.138  16.370  61.9360  0.00  0.00     0.000 C
ATOM     52  C4  ASG B   4     -12.559  16.411  63.3410  0.00  0.00     0.000 C
ATOM     53  C5  ASG B   4     -11.108  15.942  63.2690  0.00  0.00     0.000 C
ATOM     54  O5  ASG B   4     -11.074  14.588  62.7750  0.00  0.00     0.000 O
BRANCH 50 57
ATOM     55   N  ASG B   4     -13.110  14.909  59.8710  0.00  0.00     0.000 N
ATOM     57  HD  ASG B   4     -13.151  14.046  59.8080  0.00  0.00     0.000 HD
ATOM     57   O  ASG B   4     -14.198  12.952  59.9000  0.00  0.00     0.000 OA
ATOM     58   C  ASG B   4     -13.814  13.939  59.2800  0.00  0.00     0.000 C
ATOM     59   C  ASG B   4     -14.052  14.114  57.8110  0.00  0.00     0.000 C
ENDBRANCH 50 57
BRANCH 52 60
ATOM     60   O  ASG B   4     -13.459  15.518  64.1150  0.00  0.00     0.000 O
ATOM     61   O  ASG B   4     -13.056  16.747  66.2490  0.00  0.00     0.000 OA
ATOM     62   O  ASG B   4     -14.661  14.991  66.1790  0.00  0.00     0.000 OA
ATOM     63   O  ASG B   4     -12.353  14.475  65.8270  0.00  0.00     0.000 OA
ATOM     64   S  ASG B   4     -13.417  15.476  65.7160  0.00  0.00     0.000 S
ENDBRANCH 52 60
ATOM     65   O  ASG B   4      -8.958  15.860  64.3890  0.00  0.00     0.000 O
ATOM     67  HD  ASG B   4      -8.887  15.019  64.1970  0.00  0.00     0.000 HD
ATOM     67   O  ASG B   4      -8.958  15.860  64.3890  0.00  0.00     0.000 O
ATOM     69  HD  ASG B   4      -8.887  15.019  64.1970  0.00  0.00     0.000 HD
ENDBRANCH 48 51
ENDBRANCH 35 48
ENDBRANCH 34 38
ENDBRANCH 15 34
ENDBRANCH 14 17
ENDBRANCH 1 14
TORSDOF 12
ENDMDL
MODEL 95
REMARK VINA RESULT:      -6.7     17.848     25.250
ROOT
ATOM      1  C1  GAD B   1       8.791  46.432  78.6180  0.00  0.00     0.000 C
ATOM      2  C2  GAD B   1       8.311  45.875  79.9610  0.00  0.00     0.000 C
ATOM      3  C3  GAD B   1       6.822  45.514  79.8810  0.00  0.00     0.000 C
ATOM      4  C4  GAD B   1       6.004  46.403  78.9400  0.00  0.00     0.000 C
ATOM      5  C5  GAD B   1       6.535  47.329  78.1170  0.00  0.00     0.000 C
ATOM      6  O5  GAD B   1       7.962  47.516  78.1700  0.00  0.00     0.000 O
ATOM      7   O  GAD B   1       9.150  44.745  80.4060  0.00  0.00     0.000 O
ATOM      9  HD  GAD B   1       9.666  45.070  79.7920  0.00  0.00     0.000 HD
ATOM      9   O  GAD B   1       6.183  45.604  81.1740  0.00  0.00     0.000 O
ATOM     11  HD  GAD B   1       6.700  45.929  80.5590  0.00  0.00     0.000 HD
ENDROOT
BRANCH 5 11
ATOM     11   C  GAD B   1       5.765  48.119  77.1280  0.00  0.00     0.000 C
ATOM     12   O  GAD B   1       5.132  49.128  77.5660  0.00  0.00     0.000 OA
ATOM     13   O  GAD B   1       5.694  47.728  75.9040  0.00  0.00     0.000 OA
ENDBRANCH 5 11
BRANCH 1 14
ATOM     14  O3  ASG B   2       9.884  47.204  78.4720  0.00  0.00     0.000 O
BRANCH 14 17
ATOM     15  C1  ASG B   2      12.486  47.789  75.7950  0.00  0.00     0.000 C
ATOM     16  C2  ASG B   2      11.897  47.191  77.0810  0.00  0.00     0.000 C
ATOM     17  C3  ASG B   2      10.480  47.736  77.2830  0.00  0.00     0.000 C
ATOM     18  C4  ASG B   2      10.514  49.250  77.3640  0.00  0.00     0.000 C
ATOM     19  C5  ASG B   2      11.218  49.800  76.1280  0.00  0.00     0.000 C
ATOM     20  O5  ASG B   2      12.517  49.191  75.9880  0.00  0.00     0.000 O
ATOM     21   C  ASG B   2      11.445  51.276  76.1990  0.00  0.00     0.000 C
ATOM     22   O  ASG B   2      12.279  51.671  75.1370  0.00  0.00     0.000 O
ATOM     24  HD  ASG B   2      12.775  52.053  74.5390  0.00  0.00     0.000 HD
BRANCH 16 26
ATOM     24   N  ASG B   2      11.897  45.748  77.1420  0.00  0.00     0.000 N
ATOM     26  HD  ASG B   2      12.449  46.189  76.6410  0.00  0.00     0.000 HD
ATOM     26   C  ASG B   2      12.117  45.043  78.2670  0.00  0.00     0.000 C
ATOM     27   C  ASG B   2      11.744  43.600  78.2200  0.00  0.00     0.000 C
ATOM     28   O  ASG B   2      12.595  45.560  79.2690  0.00  0.00     0.000 OA
ENDBRANCH 16 26
BRANCH 18 29
ATOM     29   O  ASG B   2      11.211  49.586  78.6130  0.00  0.00     0.000 O
ATOM     30   O  ASG B   2       9.827  51.560  79.0930  0.00  0.00     0.000 OA
ATOM     31   O  ASG B   2       9.519  49.524  80.3780  0.00  0.00     0.000 OA
ATOM     32   O  ASG B   2      11.529  50.837  80.6560  0.00  0.00     0.000 OA
ATOM     33   S  ASG B   2      10.453  50.430  79.7520  0.00  0.00     0.000 S
ENDBRANCH 18 29
BRANCH 15 34
ATOM     34  O4  ASG B   3      13.784  47.349  75.5140  0.00  0.00     0.000 O
BRANCH 34 38
ATOM     35  C1  GCT B   3      16.214  48.493  72.4890  0.00  0.00     0.000 C
ATOM     36  C2  GCT B   3      14.766  48.320  72.0840  0.00  0.00     0.000 C
ATOM     37  C3  GCT B   3      13.858  48.325  73.3060  0.00  0.00     0.000 C
ATOM     38  C4  GCT B   3      14.263  47.179  74.2400  0.00  0.00     0.000 C
ATOM     39  C5  GCT B   3      15.787  46.919  74.2120  0.00  0.00     0.000 C
ATOM     40  O5  GCT B   3      16.400  48.146  73.8570  0.00  0.00     0.000 O
ATOM     41   O  GCT B   3      14.453  49.413  71.2330  0.00  0.00     0.000 O
ATOM     43  HD  GCT B   3      14.642  49.576  70.4030  0.00  0.00     0.000 HD
ATOM     43   O  GCT B   3      12.489  48.228  72.8600  0.00  0.00     0.000 O
ATOM     45  HD  GCT B   3      12.677  48.391  72.0310  0.00  0.00     0.000 HD
BRANCH 39 45
ATOM     45   C  GCT B   3      16.312  45.819  73.3140  0.00  0.00     0.000 C
ATOM     46   O  GCT B   3      17.559  45.574  73.2870  0.00  0.00     0.000 OA
ATOM     47   O  GCT B   3      15.488  45.181  72.6390  0.00  0.00     0.000 OA
ENDBRANCH 39 45
BRANCH 35 48
ATOM     48  O3  ASG B   4      16.989  48.223  71.4610  0.00  0.00     0.000 O
BRANCH 48 51
ATOM     49  C1  ASG B   4      18.983  51.136  70.3530  0.00  0.00     0.000 C
ATOM     50  C2  ASG B   4      17.766  50.232  70.6130  0.00  0.00     0.000 C
ATOM     51  C3  ASG B   4      18.134  49.056  71.5140  0.00  0.00     0.000 C
ATOM     52  C4  ASG B   4      19.374  48.340  71.0060  0.00  0.00     0.000 C
ATOM     53  C5  ASG B   4      20.487  49.373  70.8490  0.00  0.00     0.000 C
ATOM     54  O5  ASG B   4      20.078  50.365  69.8870  0.00  0.00     0.000 O
BRANCH 50 57
ATOM     55   N  ASG B   4      17.390  50.026  69.2330  0.00  0.00     0.000 N
ATOM     57  HD  ASG B   4      16.557  50.253  69.3060  0.00  0.00     0.000 HD
ATOM     57   O  ASG B   4      15.721  51.519  69.2630  0.00  0.00     0.000 OA
ATOM     58   C  ASG B   4      16.455  50.767  68.6300  0.00  0.00     0.000 C
ATOM     59   C  ASG B   4      16.333  50.576  67.1490  0.00  0.00     0.000 C
ENDBRANCH 50 57
BRANCH 52 60
ATOM     60   O  ASG B   4      18.922  47.721  69.7340  0.00  0.00     0.000 O
ATOM     61   O  ASG B   4      19.618  45.433  70.4500  0.00  0.00     0.000 OA
ATOM     62   O  ASG B   4      18.457  45.729  68.3930  0.00  0.00     0.000 OA
ATOM     63   O  ASG B   4      20.641  46.670  68.6440  0.00  0.00     0.000 OA
ATOM     64   S  ASG B   4      19.401  46.252  69.3050  0.00  0.00     0.000 S
ENDBRANCH 52 60
ATOM     65   O  ASG B   4      22.871  49.746  70.6040  0.00  0.00     0.000 O
ATOM     67  HD  ASG B   4      22.720  50.307  69.9610  0.00  0.00     0.000 HD
ATOM     67   O  ASG B   4      22.871  49.746  70.6040  0.00  0.00     0.000 O
ATOM     69  HD  ASG B   4      22.720  50.307  69.9610  0.00  0.00     0.000 HD
ENDBRANCH 48 51
ENDBRANCH 35 48
ENDBRANCH 34 38
ENDBRANCH 15 34
ENDBRANCH 14 17
ENDBRANCH 1 14
TORSDOF 12
ENDMDL
MODEL 96
REMARK VINA RESULT:      -6.7     24.485     28.391
ROOT
ATOM      1  C1  GAD B   1     -22.334  15.150  68.1880  0.00  0.00     0.000 C
ATOM      2  C2  GAD B   1     -23.647  15.937  68.1660  0.00  0.00     0.000 C
ATOM      3  C3  GAD B   1     -24.775  15.098  68.7800  0.00  0.00     0.000 C
ATOM      4  C4  GAD B   1     -24.636  13.590  68.5590  0.00  0.00     0.000 C
ATOM      5  C5  GAD B   1     -23.552  12.998  68.0170  0.00  0.00     0.000 C
ATOM      6  O5  GAD B   1     -22.483  13.858  67.5790  0.00  0.00     0.000 O
ATOM      7   O  GAD B   1     -23.496  17.254  68.8150  0.00  0.00     0.000 O
ATOM      9  HD  GAD B   1     -22.660  17.052  68.7110  0.00  0.00     0.000 HD
ATOM      9   O  GAD B   1     -26.064  15.465  68.2390  0.00  0.00     0.000 O
ATOM     11  HD  GAD B   1     -25.228  15.263  68.1360  0.00  0.00     0.000 HD
ENDROOT
BRANCH 5 11
ATOM     11   C  GAD B   1     -23.363  11.534  67.8970  0.00  0.00     0.000 C
ATOM     12   O  GAD B   1     -22.166  11.107  67.8940  0.00  0.00     0.000 OA
ATOM     13   O  GAD B   1     -24.377  10.763  67.7210  0.00  0.00     0.000 OA
ENDBRANCH 5 11
BRANCH 1 14
ATOM     14  O3  ASG B   2     -21.287  15.411  67.3830  0.00  0.00     0.000 O
BRANCH 14 17
ATOM     15  C1  ASG B   2     -19.598  18.357  65.7260  0.00  0.00     0.000 C
ATOM     16  C2  ASG B   2     -20.448  17.081  65.8030  0.00  0.00     0.000 C
ATOM     17  C3  ASG B   2     -20.500  16.602  67.2570  0.00  0.00     0.000 C
ATOM     18  C4  ASG B   2     -19.096  16.341  67.7680  0.00  0.00     0.000 C
ATOM     19  C5  ASG B   2     -18.249  17.592  67.5590  0.00  0.00     0.000 C
ATOM     20  O5  ASG B   2     -18.305  18.000  66.1770  0.00  0.00     0.000 O
ATOM     21   C  ASG B   2     -16.805  17.375  67.8800  0.00  0.00     0.000 C
ATOM     22   O  ASG B   2     -16.062  18.494  67.4640  0.00  0.00     0.000 O
ATOM     24  HD  ASG B   2     -15.485  19.108  67.2640  0.00  0.00     0.000 HD
BRANCH 16 26
ATOM     24   N  ASG B   2     -21.802  17.177  65.3090  0.00  0.00     0.000 N
ATOM     26  HD  ASG B   2     -21.185  17.740  65.0800  0.00  0.00     0.000 HD
ATOM     26   C  ASG B   2     -22.412  16.215  64.5920  0.00  0.00     0.000 C
ATOM     27   C  ASG B   2     -23.892  16.331  64.4650  0.00  0.00     0.000 C
ATOM     28   O  ASG B   2     -21.782  15.299  64.0770  0.00  0.00     0.000 OA
ENDBRANCH 16 26
BRANCH 18 29
ATOM     29   O  ASG B   2     -18.591  15.180  67.0230  0.00  0.00     0.000 O
ATOM     30   O  ASG B   2     -17.225  14.328  68.8810  0.00  0.00     0.000 OA
ATOM     31   O  ASG B   2     -19.291  13.203  68.2820  0.00  0.00     0.000 OA
ATOM     32   O  ASG B   2     -17.383  13.098  66.8010  0.00  0.00     0.000 OA
ATOM     33   S  ASG B   2     -18.099  13.871  67.8160  0.00  0.00     0.000 S
ENDBRANCH 18 29
BRANCH 15 34
ATOM     34  O4  ASG B   3     -19.491  18.883  64.4340  0.00  0.00     0.000 O
BRANCH 34 38
ATOM     35  C1  GCT B   3     -21.536  21.755  62.4500  0.00  0.00     0.000 C
ATOM     36  C2  GCT B   3     -20.033  21.852  62.2980  0.00  0.00     0.000 C
ATOM     37  C3  GCT B   3     -19.364  20.539  62.6800  0.00  0.00     0.000 C
ATOM     38  C4  GCT B   3     -19.705  20.205  64.1370  0.00  0.00     0.000 C
ATOM     39  C5  GCT B   3     -21.127  20.674  64.5220  0.00  0.00     0.000 C
ATOM     40  O5  GCT B   3     -21.886  20.689  63.3260  0.00  0.00     0.000 O
ATOM     41   O  GCT B   3     -19.785  22.152  60.9320  0.00  0.00     0.000 O
ATOM     43  HD  GCT B   3     -19.856  22.885  60.4760  0.00  0.00     0.000 HD
ATOM     43   O  GCT B   3     -17.944  20.663  62.4510  0.00  0.00     0.000 O
ATOM     45  HD  GCT B   3     -18.015  21.396  61.9950  0.00  0.00     0.000 HD
BRANCH 39 45
ATOM     45   C  GCT B   3     -21.279  22.004  65.2270  0.00  0.00     0.000 C
ATOM     46   O  GCT B   3     -20.247  22.703  65.4790  0.00  0.00     0.000 OA
ATOM     47   O  GCT B   3     -22.428  22.373  65.5240  0.00  0.00     0.000 OA
ENDBRANCH 39 45
BRANCH 35 48
ATOM     48  O3  ASG B   4     -22.059  22.960  62.3720  0.00  0.00     0.000 O
BRANCH 48 51
ATOM     49  C1  ASG B   4     -24.582  22.777  59.6720  0.00  0.00     0.000 C
ATOM     50  C2  ASG B   4     -23.229  22.673  60.3950  0.00  0.00     0.000 C
ATOM     51  C3  ASG B   4     -23.392  22.853  61.9010  0.00  0.00     0.000 C
ATOM     52  C4  ASG B   4     -24.202  24.098  62.2220  0.00  0.00     0.000 C
ATOM     53  C5  ASG B   4     -25.522  24.015  61.4610  0.00  0.00     0.000 C
ATOM     54  O5  ASG B   4     -25.250  23.971  60.0470  0.00  0.00     0.000 O
BRANCH 50 57
ATOM     55   N  ASG B   4     -23.189  21.471  59.5940  0.00  0.00     0.000 N
ATOM     57  HD  ASG B   4     -22.837  21.817  58.8830  0.00  0.00     0.000 HD
ATOM     57   O  ASG B   4     -21.454  22.130  58.3420  0.00  0.00     0.000 OA
ATOM     58   C  ASG B   4     -22.230  21.246  58.6910  0.00  0.00     0.000 C
ATOM     59   C  ASG B   4     -22.205  19.869  58.1020  0.00  0.00     0.000 C
ENDBRANCH 50 57
BRANCH 52 60
ATOM     60   O  ASG B   4     -23.313  25.211  61.7970  0.00  0.00     0.000 O
ATOM     61   O  ASG B   4     -23.274  26.222  64.0790  0.00  0.00     0.000 OA
ATOM     62   O  ASG B   4     -21.908  27.134  62.3550  0.00  0.00     0.000 OA
ATOM     63   O  ASG B   4     -24.287  27.254  62.1440  0.00  0.00     0.000 OA
ATOM     64   S  ASG B   4     -23.139  26.528  62.6940  0.00  0.00     0.000 S
ENDBRANCH 52 60
ATOM     65   O  ASG B   4     -27.789  24.852  61.2590  0.00  0.00     0.000 O
ATOM     67  HD  ASG B   4     -27.688  24.929  60.4020  0.00  0.00     0.000 HD
ATOM     67   O  ASG B   4     -27.789  24.852  61.2590  0.00  0.00     0.000 O
ATOM     69  HD  ASG B   4     -27.688  24.929  60.4020  0.00  0.00     0.000 HD
ENDBRANCH 48 51
ENDBRANCH 35 48
ENDBRANCH 34 38
ENDBRANCH 15 34
ENDBRANCH 14 17
ENDBRANCH 1 14
TORSDOF 12
ENDMDL
MODEL 97
REMARK VINA RESULT:      -6.7     25.257     29.369
ROOT
ATOM      1  C1  GAD B   1     -31.279  26.808  73.6760  0.00  0.00     0.000 C
ATOM      2  C2  GAD B   1     -29.757  26.963  73.6130  0.00  0.00     0.000 C
ATOM      3  C3  GAD B   1     -29.126  26.506  74.9330  0.00  0.00     0.000 C
ATOM      4  C4  GAD B   1     -29.996  26.747  76.1700  0.00  0.00     0.000 C
ATOM      5  C5  GAD B   1     -31.273  27.174  76.1280  0.00  0.00     0.000 C
ATOM      6  O5  GAD B   1     -31.828  27.463  74.8300  0.00  0.00     0.000 O
ATOM      7   O  GAD B   1     -29.194  26.268  72.4390  0.00  0.00     0.000 O
ATOM      9  HD  GAD B   1     -30.029  26.279  72.2080  0.00  0.00     0.000 HD
ATOM      9   O  GAD B   1     -27.874  27.183  75.1860  0.00  0.00     0.000 O
ATOM     11  HD  GAD B   1     -28.709  27.194  74.9560  0.00  0.00     0.000 HD
ENDROOT
BRANCH 5 11
ATOM     11   C  GAD B   1     -32.157  27.308  77.3090  0.00  0.00     0.000 C
ATOM     12   O  GAD B   1     -31.701  26.892  78.4190  0.00  0.00     0.000 OA
ATOM     13   O  GAD B   1     -33.356  27.753  77.1720  0.00  0.00     0.000 OA
ENDBRANCH 5 11
BRANCH 1 14
ATOM     14  O3  ASG B   2     -32.137  27.480  72.8850  0.00  0.00     0.000 O
BRANCH 14 17
ATOM     15  C1  ASG B   2     -31.782  29.385  69.6410  0.00  0.00     0.000 C
ATOM     16  C2  ASG B   2     -31.825  29.190  71.1630  0.00  0.00     0.000 C
ATOM     17  C3  ASG B   2     -32.091  27.714  71.4730  0.00  0.00     0.000 C
ATOM     18  C4  ASG B   2     -33.400  27.280  70.8410  0.00  0.00     0.000 C
ATOM     19  C5  ASG B   2     -33.366  27.604  69.3510  0.00  0.00     0.000 C
ATOM     20  O5  ASG B   2     -33.054  28.998  69.1560  0.00  0.00     0.000 O
ATOM     21   C  ASG B   2     -34.677  27.364  68.6750  0.00  0.00     0.000 C
ATOM     22   O  ASG B   2     -34.631  27.881  67.3690  0.00  0.00     0.000 O
ATOM     24  HD  ASG B   2     -34.743  28.148  66.5520  0.00  0.00     0.000 HD
BRANCH 16 26
ATOM     24   N  ASG B   2     -30.658  29.675  71.8640  0.00  0.00     0.000 N
ATOM     26  HD  ASG B   2     -30.902  29.994  71.0970  0.00  0.00     0.000 HD
ATOM     26   C  ASG B   2     -30.692  30.231  73.0890  0.00  0.00     0.000 C
ATOM     27   C  ASG B   2     -29.383  30.354  73.7900  0.00  0.00     0.000 C
ATOM     28   O  ASG B   2     -31.741  30.611  73.5950  0.00  0.00     0.000 OA
ENDBRANCH 16 26
BRANCH 18 29
ATOM     29   O  ASG B   2     -34.465  27.996  71.5560  0.00  0.00     0.000 O
ATOM     30   O  ASG B   2     -36.076  26.143  71.4230  0.00  0.00     0.000 OA
ATOM     31   O  ASG B   2     -34.984  26.651  73.5310  0.00  0.00     0.000 OA
ATOM     32   O  ASG B   2     -36.626  28.175  72.6210  0.00  0.00     0.000 OA
ATOM     33   S  ASG B   2     -35.603  27.169  72.3340  0.00  0.00     0.000 S
ENDBRANCH 18 29
BRANCH 15 34
ATOM     34  O4  ASG B   3     -31.538  30.706  69.2500  0.00  0.00     0.000 O
BRANCH 34 38
ATOM     35  C1  GCT B   3     -32.757  34.559  69.4180  0.00  0.00     0.000 C
ATOM     36  C2  GCT B   3     -33.619  33.605  70.2160  0.00  0.00     0.000 C
ATOM     37  C3  GCT B   3     -32.885  32.296  70.4710  0.00  0.00     0.000 C
ATOM     38  C4  GCT B   3     -32.524  31.651  69.1270  0.00  0.00     0.000 C
ATOM     39  C5  GCT B   3     -32.201  32.707  68.0460  0.00  0.00     0.000 C
ATOM     40  O5  GCT B   3     -31.730  33.855  68.7290  0.00  0.00     0.000 O
ATOM     41   O  GCT B   3     -33.908  34.256  71.4450  0.00  0.00     0.000 O
ATOM     43  HD  GCT B   3     -34.461  34.890  71.6510  0.00  0.00     0.000 HD
ATOM     43   O  GCT B   3     -33.721  31.453  71.2910  0.00  0.00     0.000 O
ATOM     45  HD  GCT B   3     -34.274  32.088  71.4970  0.00  0.00     0.000 HD
BRANCH 39 45
ATOM     45   C  GCT B   3     -33.297  33.111  67.0840  0.00  0.00     0.000 C
ATOM     46   O  GCT B   3     -33.041  33.938  66.1530  0.00  0.00     0.000 OA
ATOM     47   O  GCT B   3     -34.418  32.599  67.2370  0.00  0.00     0.000 OA
ENDBRANCH 39 45
BRANCH 35 48
ATOM     48  O3  ASG B   4     -33.497  35.560  68.9900  0.00  0.00     0.000 O
BRANCH 48 51
ATOM     49  C1  ASG B   4     -33.170  39.194  69.6030  0.00  0.00     0.000 C
ATOM     50  C2  ASG B   4     -33.734  37.764  69.6570  0.00  0.00     0.000 C
ATOM     51  C3  ASG B   4     -32.745  36.758  69.0740  0.00  0.00     0.000 C
ATOM     52  C4  ASG B   4     -32.245  37.205  67.7110  0.00  0.00     0.000 C
ATOM     53  C5  ASG B   4     -31.683  38.617  67.8510  0.00  0.00     0.000 C
ATOM     54  O5  ASG B   4     -32.733  39.501  68.2890  0.00  0.00     0.000 O
BRANCH 50 57
ATOM     55   N  ASG B   4     -34.007  37.595  71.0660  0.00  0.00     0.000 N
ATOM     57  HD  ASG B   4     -34.682  38.135  71.1170  0.00  0.00     0.000 HD
ATOM     57   O  ASG B   4     -36.184  38.096  70.9010  0.00  0.00     0.000 OA
ATOM     58   C  ASG B   4     -35.244  37.673  71.5670  0.00  0.00     0.000 C
ATOM     59   C  ASG B   4     -35.389  37.263  73.0000  0.00  0.00     0.000 C
ENDBRANCH 50 57
BRANCH 52 60
ATOM     60   O  ASG B   4     -33.450  37.102  66.8470  0.00  0.00     0.000 O
ATOM     61   O  ASG B   4     -32.095  36.842  64.7670  0.00  0.00     0.000 OA
ATOM     62   O  ASG B   4     -34.466  36.642  64.6710  0.00  0.00     0.000 OA
ATOM     63   O  ASG B   4     -33.496  38.748  65.2560  0.00  0.00     0.000 OA
ATOM     64   S  ASG B   4     -33.355  37.289  65.2580  0.00  0.00     0.000 S
ENDBRANCH 52 60
ATOM     65   O  ASG B   4     -30.294  40.341  66.8610  0.00  0.00     0.000 O
ATOM     67  HD  ASG B   4     -30.906  40.931  67.0220  0.00  0.00     0.000 HD
ATOM     67   O  ASG B   4     -30.294  40.341  66.8610  0.00  0.00     0.000 O
ATOM     69  HD  ASG B   4     -30.906  40.931  67.0220  0.00  0.00     0.000 HD
ENDBRANCH 48 51
ENDBRANCH 35 48
ENDBRANCH 34 38
ENDBRANCH 15 34
ENDBRANCH 14 17
ENDBRANCH 1 14
TORSDOF 12
ENDMDL
MODEL 98
REMARK VINA RESULT:      -6.6     31.818     35.799
ROOT
ATOM      1  C1  GAD B   1      -7.197  19.741  42.4660  0.00  0.00     0.000 C
ATOM      2  C2  GAD B   1      -7.294  21.092  41.7520  0.00  0.00     0.000 C
ATOM      3  C3  GAD B   1      -7.738  20.889  40.2980  0.00  0.00     0.000 C
ATOM      4  C4  GAD B   1      -7.262  19.578  39.6670  0.00  0.00     0.000 C
ATOM      5  C5  GAD B   1      -6.641  18.591  40.3430  0.00  0.00     0.000 C
ATOM      6  O5  GAD B   1      -6.373  18.818  41.7400  0.00  0.00     0.000 O
ATOM      7   O  GAD B   1      -8.162  22.030  42.4890  0.00  0.00     0.000 O
ATOM      9  HD  GAD B   1      -8.037  21.438  43.1090  0.00  0.00     0.000 HD
ATOM      9   O  GAD B   1      -7.252  21.946  39.4410  0.00  0.00     0.000 O
ATOM     11  HD  GAD B   1      -7.126  21.354  40.0610  0.00  0.00     0.000 HD
ENDROOT
BRANCH 5 11
ATOM     11   C  GAD B   1      -6.272  17.277  39.7670  0.00  0.00     0.000 C
ATOM     12   O  GAD B   1      -5.039  17.074  39.5400  0.00  0.00     0.000 OA
ATOM     13   O  GAD B   1      -7.187  16.432  39.4450  0.00  0.00     0.000 OA
ENDBRANCH 5 11
BRANCH 1 14
ATOM     14  O3  ASG B   2      -6.464  19.528  43.5750  0.00  0.00     0.000 O
BRANCH 14 17
ATOM     15  C1  ASG B   2      -6.676  17.488  46.7480  0.00  0.00     0.000 C
ATOM     16  C2  ASG B   2      -6.749  18.749  45.8770  0.00  0.00     0.000 C
ATOM     17  C3  ASG B   2      -6.405  18.381  44.4310  0.00  0.00     0.000 C
ATOM     18  C4  ASG B   2      -5.019  17.768  44.3680  0.00  0.00     0.000 C
ATOM     19  C5  ASG B   2      -4.949  16.594  45.3400  0.00  0.00     0.000 C
ATOM     20  O5  ASG B   2      -5.342  17.022  46.6590  0.00  0.00     0.000 O
ATOM     21   C  ASG B   2      -3.570  16.031  45.4690  0.00  0.00     0.000 C
ATOM     22   O  ASG B   2      -3.542  15.106  46.5280  0.00  0.00     0.000 O
ATOM     24  HD  ASG B   2      -3.379  14.518  47.1430  0.00  0.00     0.000 HD
BRANCH 16 26
ATOM     24   N  ASG B   2      -6.930  20.176  46.0180  0.00  0.00     0.000 N
ATOM     26  HD  ASG B   2      -6.409  19.833  45.4170  0.00  0.00     0.000 HD
ATOM     26   C  ASG B   2      -8.114  20.801  45.8880  0.00  0.00     0.000 C
ATOM     27   C  ASG B   2      -8.176  22.200  46.3970  0.00  0.00     0.000 C
ATOM     28   O  ASG B   2      -9.083  20.249  45.3810  0.00  0.00     0.000 OA
ENDBRANCH 16 26
BRANCH 18 29
ATOM     29   O  ASG B   2      -4.073  18.841  44.7010  0.00  0.00     0.000 O
ATOM     30   O  ASG B   2      -2.325  18.054  43.1630  0.00  0.00     0.000 OA
ATOM     31   O  ASG B   2      -3.624  20.029  42.6110  0.00  0.00     0.000 OA
ATOM     32   O  ASG B   2      -2.028  20.099  44.4260  0.00  0.00     0.000 OA
ATOM     33   S  ASG B   2      -2.947  19.275  43.6400  0.00  0.00     0.000 S
ENDBRANCH 18 29
BRANCH 15 34
ATOM     34  O4  ASG B   3      -6.980  17.716  48.0950  0.00  0.00     0.000 O
BRANCH 34 38
ATOM     35  C1  GCT B   3      -5.959  18.183  51.9810  0.00  0.00     0.000 C
ATOM     36  C2  GCT B   3      -5.010  18.851  51.0110  0.00  0.00     0.000 C
ATOM     37  C3  GCT B   3      -5.660  19.016  49.6440  0.00  0.00     0.000 C
ATOM     38  C4  GCT B   3      -6.052  17.637  49.1020  0.00  0.00     0.000 C
ATOM     39  C5  GCT B   3      -6.484  16.672  50.2290  0.00  0.00     0.000 C
ATOM     40  O5  GCT B   3      -6.980  17.478  51.2830  0.00  0.00     0.000 O
ATOM     41   O  GCT B   3      -4.695  20.120  51.5640  0.00  0.00     0.000 O
ATOM     43  HD  GCT B   3      -4.167  20.359  52.2080  0.00  0.00     0.000 HD
ATOM     43   O  GCT B   3      -4.741  19.718  48.7800  0.00  0.00     0.000 O
ATOM     45  HD  GCT B   3      -4.213  19.956  49.4240  0.00  0.00     0.000 HD
BRANCH 39 45
ATOM     45   C  GCT B   3      -5.459  15.704  50.7800  0.00  0.00     0.000 C
ATOM     46   O  GCT B   3      -5.783  14.918  51.7250  0.00  0.00     0.000 OA
ATOM     47   O  GCT B   3      -4.327  15.708  50.2690  0.00  0.00     0.000 OA
ENDBRANCH 39 45
BRANCH 35 48
ATOM     48  O3  ASG B   4      -5.296  17.816  53.0560  0.00  0.00     0.000 O
BRANCH 48 51
ATOM     49  C1  ASG B   4      -4.797  19.189  56.4560  0.00  0.00     0.000 C
ATOM     50  C2  ASG B   4      -4.487  18.505  55.1140  0.00  0.00     0.000 C
ATOM     51  C3  ASG B   4      -5.638  18.680  54.1260  0.00  0.00     0.000 C
ATOM     52  C4  ASG B   4      -6.967  18.296  54.7560  0.00  0.00     0.000 C
ATOM     53  C5  ASG B   4      -7.129  19.095  56.0460  0.00  0.00     0.000 C
ATOM     54  O5  ASG B   4      -6.056  18.760  56.9480  0.00  0.00     0.000 O
BRANCH 50 57
ATOM     55   N  ASG B   4      -3.330  18.788  54.2950  0.00  0.00     0.000 N
ATOM     57  HD  ASG B   4      -2.726  18.660  54.9020  0.00  0.00     0.000 HD
ATOM     57   O  ASG B   4      -1.934  17.504  55.4860  0.00  0.00     0.000 OA
ATOM     58   C  ASG B   4      -2.156  18.178  54.4850  0.00  0.00     0.000 C
ATOM     59   C  ASG B   4      -1.124  18.417  53.4260  0.00  0.00     0.000 C
ENDBRANCH 50 57
BRANCH 52 60
ATOM     60   O  ASG B   4      -6.848  16.828  54.9500  0.00  0.00     0.000 O
ATOM     61   O  ASG B   4      -8.898  16.355  53.6060  0.00  0.00     0.000 OA
ATOM     62   O  ASG B   4      -7.565  14.552  54.4100  0.00  0.00     0.000 OA
ATOM     63   O  ASG B   4      -8.698  15.956  55.9810  0.00  0.00     0.000 OA
ATOM     64   S  ASG B   4      -8.080  15.845  54.6560  0.00  0.00     0.000 S
ENDBRANCH 52 60
ATOM     65   O  ASG B   4      -8.664  19.876  57.7540  0.00  0.00     0.000 O
ATOM     67  HD  ASG B   4      -8.105  19.635  58.3700  0.00  0.00     0.000 HD
ATOM     67   O  ASG B   4      -8.664  19.876  57.7540  0.00  0.00     0.000 O
ATOM     69  HD  ASG B   4      -8.105  19.635  58.3700  0.00  0.00     0.000 HD
ENDBRANCH 48 51
ENDBRANCH 35 48
ENDBRANCH 34 38
ENDBRANCH 15 34
ENDBRANCH 14 17
ENDBRANCH 1 14
TORSDOF 12
ENDMDL
MODEL 99
REMARK VINA RESULT:      -6.6     15.058     19.506
ROOT
ATOM      1  C1  GAD B   1       9.378  48.898  85.8870  0.00  0.00     0.000 C
ATOM      2  C2  GAD B   1       8.439  48.586  87.0570  0.00  0.00     0.000 C
ATOM      3  C3  GAD B   1       8.425  49.757  88.0470  0.00  0.00     0.000 C
ATOM      4  C4  GAD B   1       9.747  50.522  88.1450  0.00  0.00     0.000 C
ATOM      5  C5  GAD B   1      10.804  50.317  87.3340  0.00  0.00     0.000 C
ATOM      6  O5  GAD B   1      10.685  49.276  86.3470  0.00  0.00     0.000 O
ATOM      7   O  GAD B   1       7.090  48.223  86.5820  0.00  0.00     0.000 O
ATOM      9  HD  GAD B   1       7.527  48.143  85.8380  0.00  0.00     0.000 HD
ATOM      9   O  GAD B   1       8.118  49.314  89.3880  0.00  0.00     0.000 O
ATOM     11  HD  GAD B   1       8.555  49.234  88.6450  0.00  0.00     0.000 HD
ENDROOT
BRANCH 5 11
ATOM     11   C  GAD B   1      12.048  51.123  87.3500  0.00  0.00     0.000 C
ATOM     12   O  GAD B   1      12.439  51.555  88.4790  0.00  0.00     0.000 OA
ATOM     13   O  GAD B   1      12.638  51.423  86.2470  0.00  0.00     0.000 OA
ENDBRANCH 5 11
BRANCH 1 14
ATOM     14  O3  ASG B   2       9.926  47.960  85.0930  0.00  0.00     0.000 O
BRANCH 14 17
ATOM     15  C1  ASG B   2       9.440  44.869  82.9740  0.00  0.00     0.000 C
ATOM     16  C2  ASG B   2      10.156  45.803  83.9600  0.00  0.00     0.000 C
ATOM     17  C3  ASG B   2       9.301  47.055  84.1750  0.00  0.00     0.000 C
ATOM     18  C4  ASG B   2       9.065  47.756  82.8500  0.00  0.00     0.000 C
ATOM     19  C5  ASG B   2       8.468  46.761  81.8590  0.00  0.00     0.000 C
ATOM     20  O5  ASG B   2       9.310  45.594  81.7650  0.00  0.00     0.000 O
ATOM     21   C  ASG B   2       8.356  47.317  80.4760  0.00  0.00     0.000 C
ATOM     22   O  ASG B   2       8.004  46.286  79.5870  0.00  0.00     0.000 O
ATOM     24  HD  ASG B   2       7.789  45.760  78.9330  0.00  0.00     0.000 HD
BRANCH 16 26
ATOM     24   N  ASG B   2      10.514  45.191  85.2180  0.00  0.00     0.000 N
ATOM     26  HD  ASG B   2      10.409  44.729  84.4930  0.00  0.00     0.000 HD
ATOM     26   C  ASG B   2      11.632  45.485  85.9070  0.00  0.00     0.000 C
ATOM     27   C  ASG B   2      11.670  45.024  87.3240  0.00  0.00     0.000 C
ATOM     28   O  ASG B   2      12.562  46.098  85.3960  0.00  0.00     0.000 OA
ENDBRANCH 16 26
BRANCH 18 29
ATOM     29   O  ASG B   2      10.368  48.279  82.4170  0.00  0.00     0.000 O
ATOM     30   O  ASG B   2       9.421  50.192  81.1970  0.00  0.00     0.000 OA
ATOM     31   O  ASG B   2      10.531  50.543  83.3280  0.00  0.00     0.000 OA
ATOM     32   O  ASG B   2      11.819  49.910  81.3830  0.00  0.00     0.000 OA
ATOM     33   S  ASG B   2      10.528  49.839  82.0670  0.00  0.00     0.000 S
ENDBRANCH 18 29
BRANCH 15 34
ATOM     34  O4  ASG B   3      10.140  43.686  82.7120  0.00  0.00     0.000 O
BRANCH 34 38
ATOM     35  C1  GCT B   3      10.501  40.019  81.0430  0.00  0.00     0.000 C
ATOM     36  C2  GCT B   3      10.346  41.140  80.0380  0.00  0.00     0.000 C
ATOM     37  C3  GCT B   3      10.652  42.487  80.6780  0.00  0.00     0.000 C
ATOM     38  C4  GCT B   3       9.690  42.719  81.8490  0.00  0.00     0.000 C
ATOM     39  C5  GCT B   3       9.331  41.401  82.5740  0.00  0.00     0.000 C
ATOM     40  O5  GCT B   3      10.421  40.519  82.3730  0.00  0.00     0.000 O
ATOM     41   O  GCT B   3      11.266  40.873  78.9900  0.00  0.00     0.000 O
ATOM     43  HD  GCT B   3      11.249  40.311  78.3310  0.00  0.00     0.000 HD
ATOM     43   O  GCT B   3      10.558  43.510  79.6640  0.00  0.00     0.000 O
ATOM     45  HD  GCT B   3      10.540  42.948  79.0050  0.00  0.00     0.000 HD
BRANCH 39 45
ATOM     45   C  GCT B   3       8.044  40.701  82.1980  0.00  0.00     0.000 C
ATOM     46   O  GCT B   3       7.686  39.662  82.8360  0.00  0.00     0.000 OA
ATOM     47   O  GCT B   3       7.371  41.185  81.2730  0.00  0.00     0.000 OA
ENDBRANCH 39 45
BRANCH 35 48
ATOM     48  O3  ASG B   4       9.983  38.916  80.5470  0.00  0.00     0.000 O
BRANCH 48 51
ATOM     49  C1  ASG B   4      11.979  35.803  80.6570  0.00  0.00     0.000 C
ATOM     50  C2  ASG B   4      11.462  37.172  80.1850  0.00  0.00     0.000 C
ATOM     51  C3  ASG B   4      10.538  37.801  81.2230  0.00  0.00     0.000 C
ATOM     52  C4  ASG B   4       9.463  36.823  81.6690  0.00  0.00     0.000 C
ATOM     53  C5  ASG B   4      10.151  35.546  82.1430  0.00  0.00     0.000 C
ATOM     54  O5  ASG B   4      10.895  34.976  81.0490  0.00  0.00     0.000 O
BRANCH 50 57
ATOM     55   N  ASG B   4      12.773  37.741  79.9700  0.00  0.00     0.000 N
ATOM     57  HD  ASG B   4      12.957  37.331  79.2300  0.00  0.00     0.000 HD
ATOM     57   O  ASG B   4      12.718  37.516  77.7430  0.00  0.00     0.000 OA
ATOM     58   C  ASG B   4      13.261  37.967  78.7470  0.00  0.00     0.000 C
ATOM     59   C  ASG B   4      14.534  38.755  78.6930  0.00  0.00     0.000 C
ENDBRANCH 50 57
BRANCH 52 60
ATOM     60   O  ASG B   4       8.621  36.656  80.4560  0.00  0.00     0.000 O
ATOM     61   O  ASG B   4       6.497  36.724  81.7660  0.00  0.00     0.000 OA
ATOM     62   O  ASG B   4       6.421  36.650  79.3870  0.00  0.00     0.000 OA
ATOM     63   O  ASG B   4       7.312  34.781  80.5840  0.00  0.00     0.000 OA
ATOM     64   S  ASG B   4       7.080  36.228  80.5640  0.00  0.00     0.000 S
ENDBRANCH 52 60
ATOM     65   O  ASG B   4       9.930  33.485  83.4030  0.00  0.00     0.000 O
ATOM     67  HD  ASG B   4      10.305  33.047  82.7570  0.00  0.00     0.000 HD
ATOM     67   O  ASG B   4       9.930  33.485  83.4030  0.00  0.00     0.000 O
ATOM     69  HD  ASG B   4      10.305  33.047  82.7570  0.00  0.00     0.000 HD
ENDBRANCH 48 51
ENDBRANCH 35 48
ENDBRANCH 34 38
ENDBRANCH 15 34
ENDBRANCH 14 17
ENDBRANCH 1 14
TORSDOF 12
ENDMDL
MODEL 100
REMARK VINA RESULT:      -6.5     25.665     29.996
ROOT
ATOM      1  C1  GAD B   1     -31.612  27.073  73.6910  0.00  0.00     0.000 C
ATOM      2  C2  GAD B   1     -30.084  26.975  73.6520  0.00  0.00     0.000 C
ATOM      3  C3  GAD B   1     -29.552  26.500  75.0090  0.00  0.00     0.000 C
ATOM      4  C4  GAD B   1     -30.385  26.950  76.2110  0.00  0.00     0.000 C
ATOM      5  C5  GAD B   1     -31.576  27.576  76.1180  0.00  0.00     0.000 C
ATOM      6  O5  GAD B   1     -32.061  27.874  74.7950  0.00  0.00     0.000 O
ATOM      7   O  GAD B   1     -29.628  26.131  72.5300  0.00  0.00     0.000 O
ATOM      9  HD  GAD B   1     -30.447  26.264  72.2820  0.00  0.00     0.000 HD
ATOM      9   O  GAD B   1     -28.210  26.979  75.2500  0.00  0.00     0.000 O
ATOM     11  HD  GAD B   1     -29.029  27.112  75.0010  0.00  0.00     0.000 HD
ENDROOT
BRANCH 5 11
ATOM     11   C  GAD B   1     -32.440  27.920  77.2710  0.00  0.00     0.000 C
ATOM     12   O  GAD B   1     -32.166  27.366  78.3810  0.00  0.00     0.000 OA
ATOM     13   O  GAD B   1     -33.462  28.684  77.1070  0.00  0.00     0.000 OA
ENDBRANCH 5 11
BRANCH 1 14
ATOM     14  O3  ASG B   2     -32.339  27.827  72.8450  0.00  0.00     0.000 O
BRANCH 14 17
ATOM     15  C1  ASG B   2     -31.747  29.737  69.6390  0.00  0.00     0.000 C
ATOM     16  C2  ASG B   2     -31.929  29.544  71.1510  0.00  0.00     0.000 C
ATOM     17  C3  ASG B   2     -32.167  28.060  71.4430  0.00  0.00     0.000 C
ATOM     18  C4  ASG B   2     -33.391  27.574  70.6910  0.00  0.00     0.000 C
ATOM     19  C5  ASG B   2     -33.226  27.895  69.2090  0.00  0.00     0.000 C
ATOM     20  O5  ASG B   2     -32.951  29.299  69.0360  0.00  0.00     0.000 O
ATOM     21   C  ASG B   2     -34.456  27.602  68.4120  0.00  0.00     0.000 C
ATOM     22   O  ASG B   2     -34.304  28.117  67.1120  0.00  0.00     0.000 O
ATOM     24  HD  ASG B   2     -34.347  28.378  66.2870  0.00  0.00     0.000 HD
BRANCH 16 26
ATOM     24   N  ASG B   2     -30.850  29.966  72.0150  0.00  0.00     0.000 N
ATOM     26  HD  ASG B   2     -30.919  30.237  71.1960  0.00  0.00     0.000 HD
ATOM     26   C  ASG B   2     -31.028  30.633  73.1700  0.00  0.00     0.000 C
ATOM     27   C  ASG B   2     -29.854  30.681  74.0870  0.00  0.00     0.000 C
ATOM     28   O  ASG B   2     -32.095  31.167  73.4480  0.00  0.00     0.000 OA
ENDBRANCH 16 26
BRANCH 18 29
ATOM     29   O  ASG B   2     -34.547  28.249  71.2950  0.00  0.00     0.000 O
ATOM     30   O  ASG B   2     -36.069  26.340  71.0090  0.00  0.00     0.000 OA
ATOM     31   O  ASG B   2     -35.209  26.885  73.2130  0.00  0.00     0.000 OA
ATOM     32   O  ASG B   2     -36.808  28.348  72.1420  0.00  0.00     0.000 OA
ATOM     33   S  ASG B   2     -35.725  27.381  71.9590  0.00  0.00     0.000 S
ENDBRANCH 18 29
BRANCH 15 34
ATOM     34  O4  ASG B   3     -31.517  31.065  69.2650  0.00  0.00     0.000 O
BRANCH 34 38
ATOM     35  C1  GCT B   3     -32.728  34.651  67.8380  0.00  0.00     0.000 C
ATOM     36  C2  GCT B   3     -33.335  34.283  69.1750  0.00  0.00     0.000 C
ATOM     37  C3  GCT B   3     -32.534  33.177  69.8470  0.00  0.00     0.000 C
ATOM     38  C4  GCT B   3     -32.521  31.942  68.9390  0.00  0.00     0.000 C
ATOM     39  C5  GCT B   3     -32.510  32.323  67.4410  0.00  0.00     0.000 C
ATOM     40  O5  GCT B   3     -31.901  33.599  67.3530  0.00  0.00     0.000 O
ATOM     41   O  GCT B   3     -33.309  35.462  69.9670  0.00  0.00     0.000 O
ATOM     43  HD  GCT B   3     -33.802  36.174  69.9660  0.00  0.00     0.000 HD
ATOM     43   O  GCT B   3     -33.112  32.914  71.1430  0.00  0.00     0.000 O
ATOM     45  HD  GCT B   3     -33.605  33.626  71.1420  0.00  0.00     0.000 HD
BRANCH 39 45
ATOM     45   C  GCT B   3     -33.825  32.343  66.6940  0.00  0.00     0.000 C
ATOM     46   O  GCT B   3     -34.908  32.132  67.3260  0.00  0.00     0.000 OA
ATOM     47   O  GCT B   3     -33.795  32.583  65.4760  0.00  0.00     0.000 OA
ENDBRANCH 39 45
BRANCH 35 48
ATOM     48  O3  ASG B   4     -33.574  35.406  67.1700  0.00  0.00     0.000 O
BRANCH 48 51
ATOM     49  C1  ASG B   4     -32.821  38.706  65.6740  0.00  0.00     0.000 C
ATOM     50  C2  ASG B   4     -33.327  37.655  66.6770  0.00  0.00     0.000 C
ATOM     51  C3  ASG B   4     -32.845  36.256  66.3010  0.00  0.00     0.000 C
ATOM     52  C4  ASG B   4     -33.134  35.949  64.8410  0.00  0.00     0.000 C
ATOM     53  C5  ASG B   4     -32.528  37.063  63.9920  0.00  0.00     0.000 C
ATOM     54  O5  ASG B   4     -33.143  38.316  64.3490  0.00  0.00     0.000 O
BRANCH 50 57
ATOM     55   N  ASG B   4     -32.805  38.173  67.9210  0.00  0.00     0.000 N
ATOM     57  HD  ASG B   4     -33.333  38.855  67.9920  0.00  0.00     0.000 HD
ATOM     57   O  ASG B   4     -34.716  39.166  68.5330  0.00  0.00     0.000 OA
ATOM     58   C  ASG B   4     -33.576  38.806  68.8100  0.00  0.00     0.000 C
ATOM     59   C  ASG B   4     -32.938  39.089  70.1350  0.00  0.00     0.000 C
ENDBRANCH 50 57
BRANCH 52 60
ATOM     60   O  ASG B   4     -34.617  35.870  64.7890  0.00  0.00     0.000 O
ATOM     61   O  ASG B   4     -34.595  34.310  62.8410  0.00  0.00     0.000 OA
ATOM     62   O  ASG B   4     -36.657  34.858  63.8970  0.00  0.00     0.000 OA
ATOM     63   O  ASG B   4     -35.434  36.575  62.7690  0.00  0.00     0.000 OA
ATOM     64   S  ASG B   4     -35.377  35.304  63.4970  0.00  0.00     0.000 S
ENDBRANCH 52 60
ATOM     65   O  ASG B   4     -31.814  37.749  61.7780  0.00  0.00     0.000 O
ATOM     67  HD  ASG B   4     -32.221  38.507  61.8790  0.00  0.00     0.000 HD
ATOM     67   O  ASG B   4     -31.814  37.749  61.7780  0.00  0.00     0.000 O
ATOM     69  HD  ASG B   4     -32.221  38.507  61.8790  0.00  0.00     0.000 HD
ENDBRANCH 48 51
ENDBRANCH 35 48
ENDBRANCH 34 38
ENDBRANCH 15 34
ENDBRANCH 14 17
ENDBRANCH 1 14
TORSDOF 12
ENDMDL
