ROOT
ATOM      1  C1  GAD B   1      -3.410  37.814   74.880  0.00  0.00     0.000 C
ATOM      2  C2  GAD B   1      -3.840  36.785   73.830  0.00  0.00     0.000 C
ATOM      3  C3  GAD B   1      -5.370  36.712   73.760  0.00  0.00     0.000 C
ATOM      4  C4  GAD B   1      -6.080  36.979   75.090  0.00  0.00     0.000 C
ATOM      5  C5  GAD B   1      -5.460  37.401   76.210  0.00  0.00     0.000 C
ATOM      6  O5  GAD B   1      -4.030  37.562   76.150  0.00  0.00     0.000 O
ATOM      7   O  GAD B   1      -3.220  37.062   72.520  0.00  0.00     0.000 O
ATOM      9  HD  GAD B   1      -2.720  37.562   73.020  0.00  0.00     0.000 HD
ATOM      9   O  GAD B   1      -5.820  35.411   73.320  0.00  0.00     0.000 O
ATOM     11  HD  GAD B   1      -5.320  35.911   73.820  0.00  0.00     0.000 HD
ENDROOT
BRANCH 5 11
ATOM     11   C  GAD B   1      -6.150  37.764   77.470  0.00  0.00     0.000 C
ATOM     12   O  GAD B   1      -7.340  38.197   77.370  0.00  0.00     0.000 OA
ATOM     13   O  GAD B   1      -5.520  37.711   78.590  0.00  0.00     0.000 OA
ENDBRANCH 5 11
BRANCH 1 14
ATOM     14  O3  ASG B   2      -2.200  37.825   75.470  0.00  0.00     0.000 O
BRANCH 14 17
ATOM     15  C1  ASG B   2      -0.230  40.767   76.790  0.00  0.00     0.000 C
ATOM     16  C2  ASG B   2      -0.790  39.808   75.730  0.00  0.00     0.000 C
ATOM     17  C3  ASG B   2      -1.650  38.745   76.420  0.00  0.00     0.000 C
ATOM     18  C4  ASG B   2      -0.820  37.989   77.440  0.00  0.00     0.000 C
ATOM     19  C5  ASG B   2      -0.180  38.987   78.400  0.00  0.00     0.000 C
ATOM     20  O5  ASG B   2       0.560  39.978   77.660  0.00  0.00     0.000 O
ATOM     21   C  ASG B   2       0.790  38.346   79.340  0.00  0.00     0.000 C
ATOM     22   O  ASG B   2       1.490  39.345   80.040  0.00  0.00     0.000 O
ATOM     24  HD  ASG B   2       1.990  39.845   80.540  0.00  0.00     0.000 HD
BRANCH 16 26
ATOM     24   N  ASG B   2      -1.620  40.352   74.680  0.00  0.00     0.000 N
ATOM     26  HD  ASG B   2      -1.120  40.852   75.180  0.00  0.00     0.000 HD
ATOM     26   C  ASG B   2      -1.500  40.025   73.380  0.00  0.00     0.000 C
ATOM     27   C  ASG B   2      -2.640  40.408   72.500  0.00  0.00     0.000 C
ATOM     28   O  ASG B   2      -0.510  39.446   72.950  0.00  0.00     0.000 OA
ENDBRANCH 16 26
BRANCH 18 29
ATOM     29   O  ASG B   2       0.170  37.214   76.680  0.00  0.00     0.000 O
ATOM     30   O  ASG B   2       0.110  35.275   78.190  0.00  0.00     0.000 OA
ATOM     31   O  ASG B   2      -0.950  35.146   76.010  0.00  0.00     0.000 OA
ATOM     32   O  ASG B   2       1.460  35.233   76.180  0.00  0.00     0.000 OA
ATOM     33   S  ASG B   2       0.180  35.610   76.780  0.00  0.00     0.000 S
ENDBRANCH 18 29
BRANCH 15 34
ATOM     34  O4  ASG B   3       0.570  41.785   76.260  0.00  0.00     0.000 O
BRANCH 34 38
ATOM     35  C1  GCT B   3       3.260  44.731   76.930  0.00  0.00     0.000 C
ATOM     36  C2  GCT B   3       2.950  43.891   78.150  0.00  0.00     0.000 C
ATOM     37  C3  GCT B   3       2.300  42.574   77.750  0.00  0.00     0.000 C
ATOM     38  C4  GCT B   3       1.000  42.864   76.990  0.00  0.00     0.000 C
ATOM     39  C5  GCT B   3       1.100  44.151   76.140  0.00  0.00     0.000 C
ATOM     40  O5  GCT B   3       2.470  44.319   75.820  0.00  0.00     0.000 O
ATOM     41   O  GCT B   3       4.190  43.651   78.800  0.00  0.00     0.000 O
ATOM     43  HD  GCT B   3       4.690  44.151   79.300  0.00  0.00     0.000 HD
ATOM     43   O  GCT B   3       2.090  41.785   78.940  0.00  0.00     0.000 O
ATOM     45  HD  GCT B   3       2.590  42.285   79.440  0.00  0.00     0.000 HD
BRANCH 39 45
ATOM     45   C  GCT B   3       0.560  45.440   76.720  0.00  0.00     0.000 C
ATOM     46   O  GCT B   3       0.730  46.531   76.090  0.00  0.00     0.000 OA
ATOM     47   O  GCT B   3      -0.050  45.377   77.800  0.00  0.00     0.000 OA
ENDBRANCH 39 45
BRANCH 35 48
ATOM     48  O3  ASG B   4       3.570  45.952   77.310  0.00  0.00     0.000 O
BRANCH 48 51
ATOM     49  C1  ASG B   4       6.500  48.020   76.400  0.00  0.00     0.000 C
ATOM     50  C2  ASG B   4       5.550  47.150   77.240  0.00  0.00     0.000 C
ATOM     51  C3  ASG B   4       4.470  46.513   76.370  0.00  0.00     0.000 C
ATOM     52  C4  ASG B   4       3.790  47.549   75.490  0.00  0.00     0.000 C
ATOM     53  C5  ASG B   4       4.870  48.283   74.700  0.00  0.00     0.000 C
ATOM     54  O5  ASG B   4       5.760  48.945   75.620  0.00  0.00     0.000 O
BRANCH 50 57
ATOM     55   N  ASG B   4       6.210  46.092   77.970  0.00  0.00     0.000 N
ATOM     57  HD  ASG B   4       6.710  46.592   78.470  0.00  0.00     0.000 HD
ATOM     57   O  ASG B   4       6.610  47.334   79.790  0.00  0.00     0.000 OA
ATOM     58   C  ASG B   4       6.600  46.237   79.240  0.00  0.00     0.000 C
ATOM     59   C  ASG B   4       7.070  44.988   79.920  0.00  0.00     0.000 C
ENDBRANCH 50 57
BRANCH 52 60
ATOM     60   O  ASG B   4       3.050  48.397   76.460  0.00  0.00     0.000 O
ATOM     61   O  ASG B   4       0.970  48.385   75.080  0.00  0.00     0.000 OA
ATOM     62   O  ASG B   4       0.960  49.408   77.230  0.00  0.00     0.000 OA
ATOM     63   O  ASG B   4       2.320  50.344   75.500  0.00  0.00     0.000 OA
ATOM     64   S  ASG B   4       1.690  49.140   76.050  0.00  0.00     0.000 S
ENDBRANCH 52 60
ATOM     65   O  ASG B   4       5.360  49.708   72.800  0.00  0.00     0.000 O
ATOM     67  HD  ASG B   4       5.860  50.208   73.300  0.00  0.00     0.000 HD
ATOM     67   O  ASG B   4       5.360  49.708   72.800  0.00  0.00     0.000 O
ATOM     69  HD  ASG B   4       5.860  50.208   73.300  0.00  0.00     0.000 HD
ENDBRANCH 48 51
ENDBRANCH 35 48
ENDBRANCH 34 38
ENDBRANCH 15 34
ENDBRANCH 14 17
ENDBRANCH 1 14
TORSDOF 12