ROOT
ATOM      1  C1  NGY C   1      20.770  11.483   47.400  0.00  0.00     0.000 C
ATOM      2  C2  NGY C   1      21.460  12.828   47.220  0.00  0.00     0.000 C
ATOM      3  C3  NGY C   1      22.030  12.945   45.810  0.00  0.00     0.000 C
ATOM      4  C4  NGY C   1      22.930  11.750   45.560  0.00  0.00     0.000 C
ATOM      5  C5  NGY C   1      22.100  10.476   45.690  0.00  0.00     0.000 C
ATOM      6  O5  NGY C   1      21.600  10.396   47.050  0.00  0.00     0.000 O
ATOM      7   O  NGY C   1      22.730  14.175   45.690  0.00  0.00     0.000 O
ATOM      9  HD  NGY C   1      23.230  14.675   46.190  0.00  0.00     0.000 HD
ATOM      9   O  NGY C   1      23.520  11.819   44.270  0.00  0.00     0.000 O
ATOM     11  HD  NGY C   1      24.020  12.319   44.770  0.00  0.00     0.000 HD
ENDROOT
BRANCH 2 13
ATOM     11   N  NGY C   1      20.510  13.876   47.510  0.00  0.00     0.000 N
ATOM     13  HD  NGY C   1      21.010  14.376   48.010  0.00  0.00     0.000 HD
ATOM     13   C  NGY C   1      20.830  14.915   48.280  0.00  0.00     0.000 C
ATOM     14   O  NGY C   1      21.900  14.950   48.890  0.00  0.00     0.000 OA
ATOM     15   C  NGY C   1      19.840  16.038   48.340  0.00  0.00     0.000 C
ENDBRANCH 2 13
BRANCH 5 16
ATOM     16   C  NGY C   1      22.850   9.203   45.460  0.00  0.00     0.000 C
ATOM     17   O  NGY C   1      25.900   8.265   47.270  0.00  0.00     0.000 OA
ATOM     18   O  NGY C   1      24.090   9.265   46.170  0.00  0.00     0.000 O
ATOM     19   S  NGY C   1      24.800   7.886   46.420  0.00  0.00     0.000 S
ATOM     20   O  NGY C   1      25.240   7.396   45.140  0.00  0.00     0.000 OA
ATOM     21   O  NGY C   1      23.780   7.056   47.040  0.00  0.00     0.000 OA
ENDBRANCH 5 16
BRANCH 1 22
ATOM     22  O4  BDP C   2      19.610  11.494   46.710  0.00  0.00     0.000 O
BRANCH 22 26
ATOM     23  C1  BDP C   2      15.550  10.813   46.840  0.00  0.00     0.000 C
ATOM     24  C2  BDP C   2      16.220  11.005   48.180  0.00  0.00     0.000 C
ATOM     25  C3  BDP C   2      17.590  11.598   47.980  0.00  0.00     0.000 C
ATOM     26  C4  BDP C   2      18.390  10.758   46.990  0.00  0.00     0.000 C
ATOM     27  C5  BDP C   2      17.550  10.481   45.750  0.00  0.00     0.000 C
ATOM     28  O5  BDP C   2      16.290   9.832   46.060  0.00  0.00     0.000 O
ATOM     29   O  BDP C   2      15.550  11.971   48.990  0.00  0.00     0.000 O
ATOM     31  HD  BDP C   2      16.050  12.471   49.490  0.00  0.00     0.000 HD
ATOM     31   O  BDP C   2      18.230  11.598   49.250  0.00  0.00     0.000 O
ATOM     33  HD  BDP C   2      18.730  12.098   49.750  0.00  0.00     0.000 HD
BRANCH 27 33
ATOM     33   C  BDP C   2      18.250   9.570   44.770  0.00  0.00     0.000 C
ATOM     34   O  BDP C   2      18.460   8.359   45.020  0.00  0.00     0.000 OA
ATOM     35   O  BDP C   2      18.650  10.045   43.720  0.00  0.00     0.000 OA
ENDBRANCH 27 33
BRANCH 23 36
ATOM     36  O4  SGN C   3      14.260  10.407   46.890  0.00  0.00     0.000 O
BRANCH 36 40
ATOM     37  C1  SGN C   3      10.490  11.035   45.210  0.00  0.00     0.000 C
ATOM     38  C2  SGN C   3      11.280   9.799   44.750  0.00  0.00     0.000 C
ATOM     39  C3  SGN C   3      12.390   9.478   45.740  0.00  0.00     0.000 C
ATOM     40  C4  SGN C   3      13.270  10.699   45.900  0.00  0.00     0.000 C
ATOM     41  C5  SGN C   3      12.410  11.867   46.330  0.00  0.00     0.000 C
ATOM     42  O5  SGN C   3      11.400  12.116   45.340  0.00  0.00     0.000 O
ATOM     43   O  SGN C   3      13.140   8.369   45.260  0.00  0.00     0.000 O
ATOM     45  HD  SGN C   3      13.640   8.869   45.760  0.00  0.00     0.000 HD
BRANCH 38 47
ATOM     45   N  SGN C   3      10.430   8.602   44.620  0.00  0.00     0.000 N
ATOM     47  HD  SGN C   3      10.930   9.102   45.120  0.00  0.00     0.000 HD
ATOM     47   S  SGN C   3       9.560   8.629   43.290  0.00  0.00     0.000 S
ATOM     48   O  SGN C   3       8.600   9.675   43.320  0.00  0.00     0.000 OA
ATOM     49   O  SGN C   3      10.480   8.635   42.200  0.00  0.00     0.000 OA
ATOM     50   O  SGN C   3       8.840   7.360   43.380  0.00  0.00     0.000 OA
ENDBRANCH 38 47
BRANCH 41 51
ATOM     51   C  SGN C   3      13.170  13.150   46.530  0.00  0.00     0.000 C
ATOM     52   O  SGN C   3      15.420  14.842   44.090  0.00  0.00     0.000 OA
ATOM     53   O  SGN C   3      13.970  15.794   45.740  0.00  0.00     0.000 OA
ATOM     54   O  SGN C   3      15.850  14.454   46.400  0.00  0.00     0.000 OA
ATOM     55   O  SGN C   3      13.860  13.461   45.340  0.00  0.00     0.000 O
ATOM     56   S  SGN C   3      14.870  14.759   45.400  0.00  0.00     0.000 S
ENDBRANCH 41 51
BRANCH 37 57
ATOM     57  O4  IDS C   4       9.840  10.884   46.390  0.00  0.00     0.000 O
BRANCH 57 61
ATOM     58  C1  IDS C   4       6.600  11.517   48.280  0.00  0.00     0.000 C
ATOM     59  C2  IDS C   4       6.550  11.395   46.790  0.00  0.00     0.000 C
ATOM     60  C3  IDS C   4       7.730  12.084   46.100  0.00  0.00     0.000 C
ATOM     61  C4  IDS C   4       9.070  12.023   46.820  0.00  0.00     0.000 C
ATOM     62  C5  IDS C   4       8.870  12.007   48.340  0.00  0.00     0.000 C
ATOM     63  O5  IDS C   4       7.870  11.077   48.730  0.00  0.00     0.000 O
ATOM     64   O  IDS C   4       7.350  13.442   45.980  0.00  0.00     0.000 O
ATOM     66  HD  IDS C   4       7.850  13.942   46.480  0.00  0.00     0.000 HD
BRANCH 59 66
ATOM     66   O  IDS C   4       6.580   9.984   46.360  0.00  0.00     0.000 O
ATOM     67   S  IDS C   4       5.180   9.324   45.990  0.00  0.00     0.000 S
ATOM     68   O  IDS C   4       4.760  10.073   44.830  0.00  0.00     0.000 OA
ATOM     69   O  IDS C   4       5.480   7.928   45.740  0.00  0.00     0.000 OA
ATOM     70   O  IDS C   4       4.290   9.541   47.120  0.00  0.00     0.000 OA
ENDBRANCH 59 66
BRANCH 62 71
ATOM     71   C  IDS C   4      10.120  11.606   49.100  0.00  0.00     0.000 C
ATOM     72   O  IDS C   4      11.030  12.400   49.240  0.00  0.00     0.000 OA
ATOM     73   O  IDS C   4      10.230  10.423   49.480  0.00  0.00     0.000 OA
ENDBRANCH 62 71
BRANCH 58 74
ATOM     74  O4  SGN C   5       6.080  12.674   48.780  0.00  0.00     0.000 O
BRANCH 74 78
ATOM     75  C1  SGN C   5       4.290  14.522   52.070  0.00  0.00     0.000 C
ATOM     76  C2  SGN C   5       5.830  14.540   52.040  0.00  0.00     0.000 C
ATOM     77  C3  SGN C   5       6.350  14.150   50.650  0.00  0.00     0.000 C
ATOM     78  C4  SGN C   5       5.670  12.891   50.130  0.00  0.00     0.000 C
ATOM     79  C5  SGN C   5       4.160  13.060   50.210  0.00  0.00     0.000 C
ATOM     80  O5  SGN C   5       3.770  13.289   51.590  0.00  0.00     0.000 O
ATOM     81   O  SGN C   5       7.760  13.964   50.720  0.00  0.00     0.000 O
ATOM     83  HD  SGN C   5       8.260  14.464   51.220  0.00  0.00     0.000 HD
BRANCH 76 85
ATOM     83   N  SGN C   5       6.460  15.822   52.380  0.00  0.00     0.000 N
ATOM     85  HD  SGN C   5       6.960  16.322   52.880  0.00  0.00     0.000 HD
ATOM     85   S  SGN C   5       6.650  16.518   53.820  0.00  0.00     0.000 S
ATOM     86   O  SGN C   5       7.360  17.743   53.690  0.00  0.00     0.000 OA
ATOM     87   O  SGN C   5       5.370  16.575   54.430  0.00  0.00     0.000 OA
ATOM     88   O  SGN C   5       7.550  15.435   54.410  0.00  0.00     0.000 OA
ENDBRANCH 76 85
BRANCH 79 89
ATOM     89   C  SGN C   5       3.390  11.863   49.690  0.00  0.00     0.000 C
ATOM     90   O  SGN C   5       3.770  10.677   50.430  0.00  0.00     0.000 O
ATOM     91   S  SGN C   5       2.640   9.553   50.620  0.00  0.00     0.000 S
ATOM     92   O  SGN C   5       1.490  10.222   51.170  0.00  0.00     0.000 OA
ATOM     93   O  SGN C   5       2.380   8.990   49.320  0.00  0.00     0.000 OA
ATOM     94   O  SGN C   5       3.250   8.622   51.530  0.00  0.00     0.000 OA
ENDBRANCH 79 89
BRANCH 75 95
ATOM     95  O4  BDP C   6       3.890  15.539   51.250  0.00  0.00     0.000 O
BRANCH 95 99
ATOM     96  C1  BDP C   6       0.220  17.761   51.050  0.00  0.00     0.000 C
ATOM     97  C2  BDP C   6       0.800  17.446   52.400  0.00  0.00     0.000 C
ATOM     98  C3  BDP C   6       2.270  17.001   52.370  0.00  0.00     0.000 C
ATOM     99  C4  BDP C   6       2.500  15.924   51.320  0.00  0.00     0.000 C
ATOM    100  C5  BDP C   6       1.880  16.413   49.990  0.00  0.00     0.000 C
ATOM    101  O5  BDP C   6       0.490  16.585   50.310  0.00  0.00     0.000 O
BRANCH 100 102
ATOM    102   C  BDP C   6       1.980  15.387   48.890  0.00  0.00     0.000 C
ATOM    103   O  BDP C   6       2.780  15.500   47.950  0.00  0.00     0.000 OA
ATOM    104   O  BDP C   6       1.230  14.407   48.970  0.00  0.00     0.000 OA
ENDBRANCH 100 102
ENDBRANCH 95 99
ENDBRANCH 75 95
ENDBRANCH 74 78
ENDBRANCH 58 74
ENDBRANCH 57 61
ENDBRANCH 37 57
ENDBRANCH 36 40
ENDBRANCH 23 36
ENDBRANCH 22 26
ENDBRANCH 1 22
TORSDOF 20