MODEL 1
REMARK VINA RESULT:      -8.2      0.000      0.000
ROOT
ATOM      1  C1  IDS C   1     159.440  35.326  48.8260  0.00  0.00     0.000 C
ATOM      2  C2  IDS C   1     159.925  34.039  49.4980  0.00  0.00     0.000 C
ATOM      3  C3  IDS C   1     161.446  33.988  49.5360  0.00  0.00     0.000 C
ATOM      4  C4  IDS C   1     162.020  34.067  48.1280  0.00  0.00     0.000 C
ATOM      5  C5  IDS C   1     161.217  35.057  47.2890  0.00  0.00     0.000 C
ATOM      6  O5  IDS C   1     160.511  35.961  48.1390  0.00  0.00     0.000 O
ATOM      7   O  IDS C   1     161.876  32.777  50.1730  0.00  0.00     0.000 O
ATOM      9  HD  IDS C   1     161.323  32.596  50.8140  0.00  0.00     0.000 HD
ENDROOT
BRANCH 2 9
ATOM      9   O  IDS C   1     159.442  33.959  50.8950  0.00  0.00     0.000 O
ATOM     10   S  IDS C   1     158.529  32.729  51.3390  0.00  0.00     0.000 S
ATOM     11   O  IDS C   1     158.241  32.935  52.7410  0.00  0.00     0.000 OA
ATOM     12   O  IDS C   1     157.347  32.800  50.5050  0.00  0.00     0.000 OA
ATOM     13   O  IDS C   1     159.319  31.543  51.0970  0.00  0.00     0.000 OA
ENDBRANCH 2 9
BRANCH 5 14
ATOM     14   C  IDS C   1     162.101  35.865  46.3550  0.00  0.00     0.000 C
ATOM     15   O  IDS C   1     161.925  35.795  45.1630  0.00  0.00     0.000 OA
ATOM     16   O  IDS C   1     162.979  36.576  46.8150  0.00  0.00     0.000 OA
ENDBRANCH 5 14
BRANCH 1 17
ATOM     17  O4  SGN C   2     158.425  36.055  49.2980  0.00  0.00     0.000 O
BRANCH 17 21
ATOM     18  C1  SGN C   2     156.674  39.596  50.6850  0.00  0.00     0.000 C
ATOM     19  C2  SGN C   2     158.077  39.716  50.0760  0.00  0.00     0.000 C
ATOM     20  C3  SGN C   2     158.394  38.463  49.2510  0.00  0.00     0.000 C
ATOM     21  C4  SGN C   2     158.190  37.211  50.0980  0.00  0.00     0.000 C
ATOM     22  C5  SGN C   2     156.764  37.204  50.6400  0.00  0.00     0.000 C
ATOM     23  O5  SGN C   2     156.531  38.399  51.4200  0.00  0.00     0.000 O
ATOM     24   O  SGN C   2     159.722  38.532  48.7600  0.00  0.00     0.000 O
ATOM     26  HD  SGN C   2     158.872  38.372  48.7280  0.00  0.00     0.000 HD
BRANCH 19 28
ATOM     26   N  SGN C   2     158.150  41.156  49.7920  0.00  0.00     0.000 N
ATOM     28  HD  SGN C   2     157.686  41.113  50.5220  0.00  0.00     0.000 HD
ATOM     28   O  SGN C   2     159.427  43.089  48.8680  0.00  0.00     0.000 OA
ATOM     29   S  SGN C   2     159.501  42.004  49.9940  0.00  0.00     0.000 S
ATOM     30   O  SGN C   2     159.416  42.648  51.2490  0.00  0.00     0.000 OA
ATOM     31   O  SGN C   2     160.598  41.141  49.7210  0.00  0.00     0.000 OA
ENDBRANCH 19 28
BRANCH 22 32
ATOM     32   C  SGN C   2     156.474  36.030  51.5430  0.00  0.00     0.000 C
ATOM     33   S  SGN C   2     155.332  35.562  53.8060  0.00  0.00     0.000 S
ATOM     34   O  SGN C   2     156.453  36.073  54.5550  0.00  0.00     0.000 OA
ATOM     35   O  SGN C   2     154.047  35.905  54.3770  0.00  0.00     0.000 OA
ATOM     36   O  SGN C   2     155.449  34.168  53.4490  0.00  0.00     0.000 OA
ATOM     37   O  SGN C   2     155.390  36.355  52.4220  0.00  0.00     0.000 O
ENDBRANCH 22 32
BRANCH 18 38
ATOM     38  O4  IDS C   3     155.475  39.780  50.1280  0.00  0.00     0.000 O
BRANCH 38 42
ATOM     39  C1  IDS C   3     152.731  40.111  48.0100  0.00  0.00     0.000 C
ATOM     40  C2  IDS C   3     154.013  40.926  47.7780  0.00  0.00     0.000 C
ATOM     41  C3  IDS C   3     154.434  41.667  49.0470  0.00  0.00     0.000 C
ATOM     42  C4  IDS C   3     154.422  40.741  50.2550  0.00  0.00     0.000 C
ATOM     43  C5  IDS C   3     153.069  40.026  50.3470  0.00  0.00     0.000 C
ATOM     44  O5  IDS C   3     152.853  39.279  49.1510  0.00  0.00     0.000 O
ATOM     45   O  IDS C   3     153.547  42.764  49.2700  0.00  0.00     0.000 O
ATOM     47  HD  IDS C   3     152.689  42.851  49.3510  0.00  0.00     0.000 HD
BRANCH 40 47
ATOM     47   O  IDS C   3     155.133  40.035  47.3910  0.00  0.00     0.000 O
ATOM     48   S  IDS C   3     155.046  39.191  46.0350  0.00  0.00     0.000 S
ATOM     49   O  IDS C   3     154.162  38.080  46.3160  0.00  0.00     0.000 OA
ATOM     50   O  IDS C   3     156.401  38.765  45.7640  0.00  0.00     0.000 OA
ATOM     51   O  IDS C   3     154.521  40.081  45.0340  0.00  0.00     0.000 OA
ENDBRANCH 40 47
BRANCH 43 52
ATOM     52   C  IDS C   3     152.972  39.107  51.5450  0.00  0.00     0.000 C
ATOM     53   O  IDS C   3     153.163  39.543  52.6570  0.00  0.00     0.000 OA
ATOM     54   O  IDS C   3     152.705  37.943  51.3840  0.00  0.00     0.000 OA
ENDBRANCH 43 52
BRANCH 39 55
ATOM     55  O4  SGN C   4     151.503  40.596  47.8210  0.00  0.00     0.000 O
BRANCH 55 59
ATOM     56  C1  SGN C   4     148.290  38.228  46.5670  0.00  0.00     0.000 C
ATOM     57  C2  SGN C   4     149.507  38.289  45.6280  0.00  0.00     0.000 C
ATOM     58  C3  SGN C   4     150.728  38.839  46.3590  0.00  0.00     0.000 C
ATOM     59  C4  SGN C   4     150.390  40.150  47.0600  0.00  0.00     0.000 C
ATOM     60  C5  SGN C   4     149.190  39.921  47.9770  0.00  0.00     0.000 C
ATOM     61  O5  SGN C   4     148.076  39.495  47.1670  0.00  0.00     0.000 O
ATOM     62   O  SGN C   4     151.792  39.025  45.4350  0.00  0.00     0.000 O
ATOM     64  HD  SGN C   4     151.324  38.378  45.0990  0.00  0.00     0.000 HD
BRANCH 57 66
ATOM     64   N  SGN C   4     148.711  37.248  44.9570  0.00  0.00     0.000 N
ATOM     66  HD  SGN C   4     148.368  37.133  44.1700  0.00  0.00     0.000 HD
ATOM     66   S  SGN C   4     149.199  36.619  43.5740  0.00  0.00     0.000 S
ATOM     67   O  SGN C   4     148.206  35.700  43.1510  0.00  0.00     0.000 OA
ATOM     68   O  SGN C   4     149.555  37.704  42.7260  0.00  0.00     0.000 OA
ATOM     69   O  SGN C   4     150.497  35.839  43.9580  0.00  0.00     0.000 OA
ENDBRANCH 57 66
BRANCH 60 70
ATOM     70   C  SGN C   4     148.761  41.155  48.7400  0.00  0.00     0.000 C
ATOM     71   O  SGN C   4     149.720  42.081  52.2520  0.00  0.00     0.000 OA
ATOM     72   O  SGN C   4     150.634  42.961  50.1930  0.00  0.00     0.000 OA
ATOM     73   O  SGN C   4     149.159  41.058  50.1220  0.00  0.00     0.000 O
ATOM     74   S  SGN C   4     149.473  42.434  50.8730  0.00  0.00     0.000 S
ATOM     75   O  SGN C   4     148.281  43.237  50.6870  0.00  0.00     0.000 OA
ENDBRANCH 60 70
BRANCH 56 76
ATOM     76  O4  IDS C   5     147.743  37.299  47.3730  0.00  0.00     0.000 O
BRANCH 76 80
ATOM     77  C1  IDS C   5     144.926  34.702  45.9650  0.00  0.00     0.000 C
ATOM     78  C2  IDS C   5     144.358  35.952  46.6360  0.00  0.00     0.000 C
ATOM     79  C3  IDS C   5     145.427  37.023  46.7190  0.00  0.00     0.000 C
ATOM     80  C4  IDS C   5     146.544  36.559  47.6490  0.00  0.00     0.000 C
ATOM     81  C5  IDS C   5     146.783  35.056  47.4460  0.00  0.00     0.000 C
ATOM     82  O5  IDS C   5     146.341  34.647  46.1480  0.00  0.00     0.000 O
BRANCH 78 83
ATOM     83   O  IDS C   5     143.216  36.489  45.8600  0.00  0.00     0.000 O
ATOM     84   S  IDS C   5     141.769  36.564  46.5270  0.00  0.00     0.000 S
ATOM     85   O  IDS C   5     141.535  35.271  47.1120  0.00  0.00     0.000 OA
ATOM     86   O  IDS C   5     141.858  37.623  47.5050  0.00  0.00     0.000 OA
ATOM     87   O  IDS C   5     140.858  36.876  45.4520  0.00  0.00     0.000 OA
ENDBRANCH 78 83
BRANCH 81 88
ATOM     88   C  IDS C   5     148.236  34.639  47.5870  0.00  0.00     0.000 C
ATOM     89   O  IDS C   5     148.688  34.402  48.6750  0.00  0.00     0.000 OA
ATOM     90   O  IDS C   5     148.930  34.547  46.6010  0.00  0.00     0.000 OA
ENDBRANCH 81 88
ENDBRANCH 76 80
ENDBRANCH 56 76
ENDBRANCH 55 59
ENDBRANCH 39 55
ENDBRANCH 38 42
ENDBRANCH 18 38
ENDBRANCH 17 21
ENDBRANCH 1 17
TORSDOF 18
ENDMDL
MODEL 2
REMARK VINA RESULT:      -7.7      8.223     17.337
ROOT
ATOM      1  C1  IDS C   1     159.324  34.319  51.8690  0.00  0.00     0.000 C
ATOM      2  C2  IDS C   1     158.605  33.141  51.2080  0.00  0.00     0.000 C
ATOM      3  C3  IDS C   1     157.120  33.433  51.0500  0.00  0.00     0.000 C
ATOM      4  C4  IDS C   1     156.481  33.717  52.4030  0.00  0.00     0.000 C
ATOM      5  C5  IDS C   1     157.430  34.543  53.2660  0.00  0.00     0.000 C
ATOM      6  O5  IDS C   1     158.382  35.216  52.4430  0.00  0.00     0.000 O
ATOM      7   O  IDS C   1     156.469  32.318  50.4250  0.00  0.00     0.000 O
ATOM      9  HD  IDS C   1     157.009  31.982  49.8370  0.00  0.00     0.000 HD
ENDROOT
BRANCH 2 9
ATOM      9   O  IDS C   1     159.154  32.878  49.8580  0.00  0.00     0.000 O
ATOM     10   S  IDS C   1     159.635  31.405  49.4810  0.00  0.00     0.000 S
ATOM     11   O  IDS C   1     160.097  31.477  48.1130  0.00  0.00     0.000 OA
ATOM     12   O  IDS C   1     160.694  31.089  50.4180  0.00  0.00     0.000 OA
ATOM     13   O  IDS C   1     158.473  30.558  49.6370  0.00  0.00     0.000 OA
ENDBRANCH 2 9
BRANCH 5 14
ATOM     14   C  IDS C   1     156.692  35.580  54.0960  0.00  0.00     0.000 C
ATOM     15   O  IDS C   1     155.491  35.662  54.0130  0.00  0.00     0.000 OA
ATOM     16   O  IDS C   1     157.318  36.320  54.8360  0.00  0.00     0.000 OA
ENDBRANCH 5 14
BRANCH 1 17
ATOM     17  O4  SGN C   2     160.510  34.773  51.4540  0.00  0.00     0.000 O
BRANCH 17 21
ATOM     18  C1  SGN C   2     163.079  37.530  49.6300  0.00  0.00     0.000 C
ATOM     19  C2  SGN C   2     161.666  38.024  49.9610  0.00  0.00     0.000 C
ATOM     20  C3  SGN C   2     161.011  37.080  50.9780  0.00  0.00     0.000 C
ATOM     21  C4  SGN C   2     161.062  35.644  50.4700  0.00  0.00     0.000 C
ATOM     22  C5  SGN C   2     162.513  35.270  50.1810  0.00  0.00     0.000 C
ATOM     23  O5  SGN C   2     163.069  36.182  49.2070  0.00  0.00     0.000 O
ATOM     24   O  SGN C   2     159.674  37.485  51.2200  0.00  0.00     0.000 O
ATOM     26  HD  SGN C   2     160.466  37.200  51.4240  0.00  0.00     0.000 HD
BRANCH 19 28
ATOM     26   N  SGN C   2     161.848  39.481  49.9190  0.00  0.00     0.000 N
ATOM     28  HD  SGN C   2     162.391  39.188  49.3110  0.00  0.00     0.000 HD
ATOM     28   O  SGN C   2     160.876  41.765  50.1680  0.00  0.00     0.000 OA
ATOM     29   S  SGN C   2     160.740  40.468  49.3010  0.00  0.00     0.000 S
ATOM     30   O  SGN C   2     161.128  40.768  47.9760  0.00  0.00     0.000 OA
ATOM     31   O  SGN C   2     159.463  39.891  49.5460  0.00  0.00     0.000 OA
ENDBRANCH 19 28
BRANCH 22 32
ATOM     32   C  SGN C   2     162.671  33.879  49.6150  0.00  0.00     0.000 C
ATOM     33   S  SGN C   2     163.690  32.734  47.5440  0.00  0.00     0.000 S
ATOM     34   O  SGN C   2     162.592  33.132  46.6990  0.00  0.00     0.000 OA
ATOM     35   O  SGN C   2     164.979  32.797  46.8880  0.00  0.00     0.000 OA
ATOM     36   O  SGN C   2     163.467  31.498  48.2560  0.00  0.00     0.000 OA
ATOM     37   O  SGN C   2     163.748  33.863  48.6710  0.00  0.00     0.000 O
ENDBRANCH 22 32
BRANCH 18 38
ATOM     38  O4  IDS C   3     164.216  37.644  50.3190  0.00  0.00     0.000 O
BRANCH 38 42
ATOM     39  C1  IDS C   3     167.518  37.740  51.4240  0.00  0.00     0.000 C
ATOM     40  C2  IDS C   3     166.435  37.002  52.2270  0.00  0.00     0.000 C
ATOM     41  C3  IDS C   3     165.230  37.905  52.4920  0.00  0.00     0.000 C
ATOM     42  C4  IDS C   3     164.778  38.606  51.2190  0.00  0.00     0.000 C
ATOM     43  C5  IDS C   3     165.973  39.305  50.5580  0.00  0.00     0.000 C
ATOM     44  O5  IDS C   3     166.973  38.334  50.2570  0.00  0.00     0.000 O
ATOM     45   O  IDS C   3     165.576  38.876  53.4810  0.00  0.00     0.000 O
ATOM     47  HD  IDS C   3     166.200  39.470  53.5640  0.00  0.00     0.000 HD
BRANCH 40 47
ATOM     47   O  IDS C   3     165.948  35.818  51.4790  0.00  0.00     0.000 O
ATOM     48   S  IDS C   3     166.537  34.369  51.8120  0.00  0.00     0.000 S
ATOM     49   O  IDS C   3     167.842  34.318  51.1880  0.00  0.00     0.000 OA
ATOM     50   O  IDS C   3     165.604  33.435  51.2210  0.00  0.00     0.000 OA
ATOM     51   O  IDS C   3     166.600  34.275  53.2460  0.00  0.00     0.000 OA
ENDBRANCH 40 47
BRANCH 43 52
ATOM     52   C  IDS C   3     165.592  40.049  49.2970  0.00  0.00     0.000 C
ATOM     53   O  IDS C   3     164.601  40.742  49.2820  0.00  0.00     0.000 OA
ATOM     54   O  IDS C   3     166.280  39.949  48.3130  0.00  0.00     0.000 OA
ENDBRANCH 43 52
BRANCH 39 55
ATOM     55  O4  SGN C   4     168.500  38.446  51.9840  0.00  0.00     0.000 O
BRANCH 55 59
ATOM     56  C1  SGN C   4     171.289  36.100  54.0380  0.00  0.00     0.000 C
ATOM     57  C2  SGN C   4     170.583  37.198  54.8510  0.00  0.00     0.000 C
ATOM     58  C3  SGN C   4     169.341  37.700  54.1190  0.00  0.00     0.000 C
ATOM     59  C4  SGN C   4     169.682  38.081  52.6830  0.00  0.00     0.000 C
ATOM     60  C5  SGN C   4     170.342  36.885  52.0010  0.00  0.00     0.000 C
ATOM     61  O5  SGN C   4     171.548  36.562  52.7220  0.00  0.00     0.000 O
ATOM     62   O  SGN C   4     168.794  38.811  54.8170  0.00  0.00     0.000 O
ATOM     64  HD  SGN C   4     169.188  38.343  55.4300  0.00  0.00     0.000 HD
BRANCH 57 66
ATOM     64   N  SGN C   4     171.056  36.389  55.9860  0.00  0.00     0.000 N
ATOM     66  HD  SGN C   4     171.700  36.439  56.5640  0.00  0.00     0.000 HD
ATOM     66   S  SGN C   4     171.256  37.049  57.4260  0.00  0.00     0.000 S
ATOM     67   O  SGN C   4     171.773  36.047  58.2840  0.00  0.00     0.000 OA
ATOM     68   O  SGN C   4     171.990  38.252  57.2340  0.00  0.00     0.000 OA
ATOM     69   O  SGN C   4     169.804  37.415  57.8710  0.00  0.00     0.000 OA
ENDBRANCH 57 66
BRANCH 60 70
ATOM     70   C  SGN C   4     170.721  37.138  50.5580  0.00  0.00     0.000 C
ATOM     71   O  SGN C   4     172.279  34.690  48.1730  0.00  0.00     0.000 OA
ATOM     72   O  SGN C   4     169.959  35.361  48.2900  0.00  0.00     0.000 OA
ATOM     73   O  SGN C   4     171.480  36.031  50.0340  0.00  0.00     0.000 O
ATOM     74   S  SGN C   4     171.340  35.748  48.4660  0.00  0.00     0.000 S
ATOM     75   O  SGN C   4     171.672  37.008  47.8310  0.00  0.00     0.000 OA
ENDBRANCH 60 70
BRANCH 56 76
ATOM     76  O4  IDS C   5     171.246  34.756  53.9960  0.00  0.00     0.000 O
BRANCH 76 80
ATOM     77  C1  IDS C   5     171.350  30.775  53.1030  0.00  0.00     0.000 C
ATOM     78  C2  IDS C   5     170.913  31.673  51.9460  0.00  0.00     0.000 C
ATOM     79  C3  IDS C   5     171.322  33.106  52.2250  0.00  0.00     0.000 C
ATOM     80  C4  IDS C   5     170.554  33.631  53.4350  0.00  0.00     0.000 C
ATOM     81  C5  IDS C   5     170.418  32.510  54.4760  0.00  0.00     0.000 C
ATOM     82  O5  IDS C   5     171.453  31.537  54.3050  0.00  0.00     0.000 O
BRANCH 78 83
ATOM     83   O  IDS C   5     171.548  31.242  50.6790  0.00  0.00     0.000 O
ATOM     84   S  IDS C   5     170.638  30.808  49.4430  0.00  0.00     0.000 S
ATOM     85   O  IDS C   5     169.671  29.882  49.9700  0.00  0.00     0.000 OA
ATOM     86   O  IDS C   5     170.046  32.034  48.9600  0.00  0.00     0.000 OA
ATOM     87   O  IDS C   5     171.537  30.211  48.4870  0.00  0.00     0.000 OA
ENDBRANCH 78 83
BRANCH 81 88
ATOM     88   C  IDS C   5     170.478  32.995  55.9130  0.00  0.00     0.000 C
ATOM     89   O  IDS C   5     169.541  33.580  56.3870  0.00  0.00     0.000 OA
ATOM     90   O  IDS C   5     171.470  32.787  56.5740  0.00  0.00     0.000 OA
ENDBRANCH 81 88
ENDBRANCH 76 80
ENDBRANCH 56 76
ENDBRANCH 55 59
ENDBRANCH 39 55
ENDBRANCH 38 42
ENDBRANCH 18 38
ENDBRANCH 17 21
ENDBRANCH 1 17
TORSDOF 18
ENDMDL
MODEL 3
REMARK VINA RESULT:      -7.7      6.486     16.747
ROOT
ATOM      1  C1  IDS C   1     156.761  38.893  51.6010  0.00  0.00     0.000 C
ATOM      2  C2  IDS C   1     155.415  38.837  52.3290  0.00  0.00     0.000 C
ATOM      3  C3  IDS C   1     154.432  39.831  51.7260  0.00  0.00     0.000 C
ATOM      4  C4  IDS C   1     154.986  41.247  51.8020  0.00  0.00     0.000 C
ATOM      5  C5  IDS C   1     156.484  41.239  51.5100  0.00  0.00     0.000 C
ATOM      6  O5  IDS C   1     156.838  40.059  50.7910  0.00  0.00     0.000 O
ATOM      7   O  IDS C   1     153.180  39.757  52.4210  0.00  0.00     0.000 O
ATOM      9  HD  IDS C   1     153.035  38.930  52.6330  0.00  0.00     0.000 HD
ENDROOT
BRANCH 2 9
ATOM      9   O  IDS C   1     154.811  37.490  52.2180  0.00  0.00     0.000 O
ATOM     10   S  IDS C   1     154.450  36.682  53.5450  0.00  0.00     0.000 S
ATOM     11   O  IDS C   1     153.874  35.431  53.1030  0.00  0.00     0.000 OA
ATOM     12   O  IDS C   1     155.705  36.507  54.2480  0.00  0.00     0.000 OA
ATOM     13   O  IDS C   1     153.509  37.509  54.2670  0.00  0.00     0.000 OA
ENDBRANCH 2 9
BRANCH 5 14
ATOM     14   C  IDS C   1     156.915  42.447  50.6960  0.00  0.00     0.000 C
ATOM     15   O  IDS C   1     156.916  43.540  51.2090  0.00  0.00     0.000 OA
ATOM     16   O  IDS C   1     157.253  42.304  49.5330  0.00  0.00     0.000 OA
ENDBRANCH 5 14
BRANCH 1 17
ATOM     17  O4  SGN C   2     157.452  37.800  51.2650  0.00  0.00     0.000 O
BRANCH 17 21
ATOM     18  C1  SGN C   2     159.493  35.409  48.5000  0.00  0.00     0.000 C
ATOM     19  C2  SGN C   2     158.977  36.761  47.9900  0.00  0.00     0.000 C
ATOM     20  C3  SGN C   2     158.648  37.673  49.1790  0.00  0.00     0.000 C
ATOM     21  C4  SGN C   2     157.695  36.966  50.1350  0.00  0.00     0.000 C
ATOM     22  C5  SGN C   2     158.318  35.644  50.5730  0.00  0.00     0.000 C
ATOM     23  O5  SGN C   2     158.589  34.823  49.4140  0.00  0.00     0.000 O
ATOM     24   O  SGN C   2     158.090  38.890  48.7130  0.00  0.00     0.000 O
ATOM     26  HD  SGN C   2     158.593  38.384  49.2040  0.00  0.00     0.000 HD
BRANCH 19 28
ATOM     26   N  SGN C   2     159.826  36.974  46.8100  0.00  0.00     0.000 N
ATOM     28  HD  SGN C   2     159.783  36.112  46.8800  0.00  0.00     0.000 HD
ATOM     28   O  SGN C   2     160.396  38.347  44.8070  0.00  0.00     0.000 OA
ATOM     29   S  SGN C   2     159.232  37.487  45.4060  0.00  0.00     0.000 S
ATOM     30   O  SGN C   2     159.040  36.353  44.5860  0.00  0.00     0.000 OA
ATOM     31   O  SGN C   2     158.134  38.344  45.6900  0.00  0.00     0.000 OA
ENDBRANCH 19 28
BRANCH 22 32
ATOM     32   C  SGN C   2     157.426  34.833  51.4810  0.00  0.00     0.000 C
ATOM     33   S  SGN C   2     157.621  33.401  53.6150  0.00  0.00     0.000 S
ATOM     34   O  SGN C   2     158.182  32.284  52.8960  0.00  0.00     0.000 OA
ATOM     35   O  SGN C   2     158.213  33.610  54.9190  0.00  0.00     0.000 OA
ATOM     36   O  SGN C   2     156.177  33.426  53.6290  0.00  0.00     0.000 OA
ATOM     37   O  SGN C   2     158.054  34.677  52.7590  0.00  0.00     0.000 O
ENDBRANCH 22 32
BRANCH 18 38
ATOM     38  O4  IDS C   3     160.695  35.067  48.9680  0.00  0.00     0.000 O
BRANCH 38 42
ATOM     39  C1  IDS C   3     163.651  34.418  50.6900  0.00  0.00     0.000 C
ATOM     40  C2  IDS C   3     163.453  35.737  49.9260  0.00  0.00     0.000 C
ATOM     41  C3  IDS C   3     163.020  35.481  48.4830  0.00  0.00     0.000 C
ATOM     42  C4  IDS C   3     161.878  34.476  48.4200  0.00  0.00     0.000 C
ATOM     43  C5  IDS C   3     162.250  33.217  49.2140  0.00  0.00     0.000 C
ATOM     44  O5  IDS C   3     162.514  33.580  50.5680  0.00  0.00     0.000 O
ATOM     45   O  IDS C   3     164.135  34.992  47.7350  0.00  0.00     0.000 O
ATOM     47  HD  IDS C   3     164.687  34.330  47.8220  0.00  0.00     0.000 HD
BRANCH 40 47
ATOM     47   O  IDS C   3     162.397  36.556  50.5680  0.00  0.00     0.000 O
ATOM     48   S  IDS C   3     162.801  37.837  51.4360  0.00  0.00     0.000 S
ATOM     49   O  IDS C   3     163.277  37.325  52.7030  0.00  0.00     0.000 OA
ATOM     50   O  IDS C   3     161.583  38.605  51.5720  0.00  0.00     0.000 OA
ATOM     51   O  IDS C   3     163.824  38.525  50.6940  0.00  0.00     0.000 OA
ENDBRANCH 40 47
BRANCH 43 52
ATOM     52   C  IDS C   3     161.170  32.159  49.1730  0.00  0.00     0.000 C
ATOM     53   O  IDS C   3     160.794  31.722  48.1100  0.00  0.00     0.000 OA
ATOM     54   O  IDS C   3     160.689  31.756  50.2010  0.00  0.00     0.000 OA
ENDBRANCH 43 52
BRANCH 39 55
ATOM     55  O4  SGN C   4     164.809  33.758  50.7360  0.00  0.00     0.000 O
BRANCH 55 59
ATOM     56  C1  SGN C   4     168.859  33.739  51.7870  0.00  0.00     0.000 C
ATOM     57  C2  SGN C   4     167.979  34.807  52.4590  0.00  0.00     0.000 C
ATOM     58  C3  SGN C   4     166.500  34.464  52.3070  0.00  0.00     0.000 C
ATOM     59  C4  SGN C   4     166.162  34.177  50.8480  0.00  0.00     0.000 C
ATOM     60  C5  SGN C   4     167.091  33.079  50.3360  0.00  0.00     0.000 C
ATOM     61  O5  SGN C   4     168.450  33.550  50.4420  0.00  0.00     0.000 O
ATOM     62   O  SGN C   4     165.709  35.536  52.8030  0.00  0.00     0.000 O
ATOM     64  HD  SGN C   4     166.445  35.582  53.2570  0.00  0.00     0.000 HD
BRANCH 57 66
ATOM     64   N  SGN C   4     168.423  34.949  53.8550  0.00  0.00     0.000 N
ATOM     66  HD  SGN C   4     169.181  35.031  54.2650  0.00  0.00     0.000 HD
ATOM     66   S  SGN C   4     169.367  36.161  54.2870  0.00  0.00     0.000 S
ATOM     67   O  SGN C   4     169.669  35.994  55.6620  0.00  0.00     0.000 OA
ATOM     68   O  SGN C   4     170.427  36.221  53.3410  0.00  0.00     0.000 OA
ATOM     69   O  SGN C   4     168.461  37.420  54.1050  0.00  0.00     0.000 OA
ENDBRANCH 57 66
BRANCH 60 70
ATOM     70   C  SGN C   4     166.847  32.695  48.8930  0.00  0.00     0.000 C
ATOM     71   O  SGN C   4     169.412  31.569  46.3910  0.00  0.00     0.000 OA
ATOM     72   O  SGN C   4     167.857  30.192  47.6300  0.00  0.00     0.000 OA
ATOM     73   O  SGN C   4     168.096  32.522  48.1970  0.00  0.00     0.000 O
ATOM     74   S  SGN C   4     168.104  31.467  46.9950  0.00  0.00     0.000 S
ATOM     75   O  SGN C   4     167.029  31.895  46.1210  0.00  0.00     0.000 OA
ENDBRANCH 60 70
BRANCH 56 76
ATOM     76  O4  IDS C   5     169.478  32.612  52.1860  0.00  0.00     0.000 O
BRANCH 76 80
ATOM     77  C1  IDS C   5     172.200  33.060  55.1930  0.00  0.00     0.000 C
ATOM     78  C2  IDS C   5     172.813  32.830  53.8120  0.00  0.00     0.000 C
ATOM     79  C3  IDS C   5     171.782  33.115  52.7380  0.00  0.00     0.000 C
ATOM     80  C4  IDS C   5     170.650  32.096  52.8340  0.00  0.00     0.000 C
ATOM     81  C5  IDS C   5     170.358  31.798  54.3120  0.00  0.00     0.000 C
ATOM     82  O5  IDS C   5     170.785  32.885  55.1380  0.00  0.00     0.000 O
BRANCH 78 83
ATOM     83   O  IDS C   5     173.973  33.727  53.5970  0.00  0.00     0.000 O
ATOM     84   S  IDS C   5     175.363  33.121  53.1030  0.00  0.00     0.000 S
ATOM     85   O  IDS C   5     175.630  31.995  53.9580  0.00  0.00     0.000 OA
ATOM     86   O  IDS C   5     175.144  32.748  51.7250  0.00  0.00     0.000 OA
ATOM     87   O  IDS C   5     176.326  34.185  53.2440  0.00  0.00     0.000 OA
ENDBRANCH 78 83
BRANCH 81 88
ATOM     88   C  IDS C   5     168.892  31.544  54.6110  0.00  0.00     0.000 C
ATOM     89   O  IDS C   5     168.254  32.363  55.2170  0.00  0.00     0.000 OA
ATOM     90   O  IDS C   5     168.373  30.518  54.2360  0.00  0.00     0.000 OA
ENDBRANCH 81 88
ENDBRANCH 76 80
ENDBRANCH 56 76
ENDBRANCH 55 59
ENDBRANCH 39 55
ENDBRANCH 38 42
ENDBRANCH 18 38
ENDBRANCH 17 21
ENDBRANCH 1 17
TORSDOF 18
ENDMDL
MODEL 4
REMARK VINA RESULT:      -7.5      6.122     11.248
ROOT
ATOM      1  C1  IDS C   1     168.149  34.361  54.1670  0.00  0.00     0.000 C
ATOM      2  C2  IDS C   1     169.509  35.025  54.4000  0.00  0.00     0.000 C
ATOM      3  C3  IDS C   1     170.640  34.029  54.1930  0.00  0.00     0.000 C
ATOM      4  C4  IDS C   1     170.492  32.844  55.1360  0.00  0.00     0.000 C
ATOM      5  C5  IDS C   1     169.022  32.455  55.2620  0.00  0.00     0.000 C
ATOM      6  O5  IDS C   1     168.287  32.946  54.1400  0.00  0.00     0.000 O
ATOM      7   O  IDS C   1     171.902  34.675  54.4120  0.00  0.00     0.000 O
ATOM      9  HD  IDS C   1     171.848  35.486  54.1140  0.00  0.00     0.000 HD
ENDROOT
BRANCH 2 9
ATOM      9   O  IDS C   1     169.719  36.143  53.4530  0.00  0.00     0.000 O
ATOM     10   S  IDS C   1     170.036  37.600  54.0170  0.00  0.00     0.000 S
ATOM     11   O  IDS C   1     170.199  38.448  52.8570  0.00  0.00     0.000 OA
ATOM     12   O  IDS C   1     168.889  37.963  54.8240  0.00  0.00     0.000 OA
ATOM     13   O  IDS C   1     171.250  37.468  54.7910  0.00  0.00     0.000 OA
ENDBRANCH 2 9
BRANCH 5 14
ATOM     14   C  IDS C   1     168.831  30.950  55.3410  0.00  0.00     0.000 C
ATOM     15   O  IDS C   1     168.063  30.408  54.5850  0.00  0.00     0.000 OA
ATOM     16   O  IDS C   1     169.453  30.304  56.1670  0.00  0.00     0.000 OA
ENDBRANCH 5 14
BRANCH 1 17
ATOM     17  O4  SGN C   2     167.160  34.947  53.4870  0.00  0.00     0.000 O
BRANCH 17 21
ATOM     18  C1  SGN C   2     164.766  35.527  50.1020  0.00  0.00     0.000 C
ATOM     19  C2  SGN C   2     165.717  34.324  50.0730  0.00  0.00     0.000 C
ATOM     20  C3  SGN C   2     166.191  34.002  51.4950  0.00  0.00     0.000 C
ATOM     21  C4  SGN C   2     166.785  35.246  52.1450  0.00  0.00     0.000 C
ATOM     22  C5  SGN C   2     165.748  36.365  52.1180  0.00  0.00     0.000 C
ATOM     23  O5  SGN C   2     165.354  36.634  50.7530  0.00  0.00     0.000 O
ATOM     24   O  SGN C   2     167.137  32.946  51.4610  0.00  0.00     0.000 O
ATOM     26  HD  SGN C   2     166.458  33.394  51.7590  0.00  0.00     0.000 HD
BRANCH 19 28
ATOM     26   N  SGN C   2     165.126  33.510  49.0010  0.00  0.00     0.000 N
ATOM     28  HD  SGN C   2     164.985  34.325  48.7430  0.00  0.00     0.000 HD
ATOM     28   O  SGN C   2     165.167  31.426  47.6310  0.00  0.00     0.000 OA
ATOM     29   S  SGN C   2     166.025  32.697  47.9440  0.00  0.00     0.000 S
ATOM     30   O  SGN C   2     166.117  33.481  46.7730  0.00  0.00     0.000 OA
ATOM     31   O  SGN C   2     167.213  32.289  48.6120  0.00  0.00     0.000 OA
ENDBRANCH 19 28
BRANCH 22 32
ATOM     32   C  SGN C   2     166.257  37.667  52.6880  0.00  0.00     0.000 C
ATOM     33   S  SGN C   2     165.339  39.978  53.3630  0.00  0.00     0.000 S
ATOM     34   O  SGN C   2     165.253  40.420  51.9940  0.00  0.00     0.000 OA
ATOM     35   O  SGN C   2     164.235  40.423  54.1880  0.00  0.00     0.000 OA
ATOM     36   O  SGN C   2     166.632  40.190  53.9700  0.00  0.00     0.000 OA
ATOM     37   O  SGN C   2     165.172  38.393  53.2760  0.00  0.00     0.000 O
ENDBRANCH 22 32
BRANCH 18 38
ATOM     38  O4  IDS C   3     163.477  35.598  50.4420  0.00  0.00     0.000 O
BRANCH 38 42
ATOM     39  C1  IDS C   3     160.017  35.897  50.7010  0.00  0.00     0.000 C
ATOM     40  C2  IDS C   3     160.953  36.897  51.3990  0.00  0.00     0.000 C
ATOM     41  C3  IDS C   3     161.994  36.176  52.2540  0.00  0.00     0.000 C
ATOM     42  C4  IDS C   3     162.657  35.046  51.4770  0.00  0.00     0.000 C
ATOM     43  C5  IDS C   3     161.584  34.136  50.8670  0.00  0.00     0.000 C
ATOM     44  O5  IDS C   3     160.754  34.909  50.0010  0.00  0.00     0.000 O
ATOM     45   O  IDS C   3     161.365  35.652  53.4240  0.00  0.00     0.000 O
ATOM     47  HD  IDS C   3     160.692  35.128  53.5750  0.00  0.00     0.000 HD
BRANCH 40 47
ATOM     47   O  IDS C   3     161.684  37.710  50.3990  0.00  0.00     0.000 O
ATOM     48   S  IDS C   3     161.728  39.302  50.5460  0.00  0.00     0.000 S
ATOM     49   O  IDS C   3     160.438  39.779  50.0970  0.00  0.00     0.000 OA
ATOM     50   O  IDS C   3     162.808  39.734  49.6850  0.00  0.00     0.000 OA
ATOM     51   O  IDS C   3     161.971  39.575  51.9370  0.00  0.00     0.000 OA
ENDBRANCH 40 47
BRANCH 43 52
ATOM     52   C  IDS C   3     162.170  32.971  50.1010  0.00  0.00     0.000 C
ATOM     53   O  IDS C   3     162.841  32.146  50.6780  0.00  0.00     0.000 OA
ATOM     54   O  IDS C   3     161.966  32.870  48.9180  0.00  0.00     0.000 OA
ENDBRANCH 43 52
BRANCH 39 55
ATOM     55  O4  SGN C   4     158.883  35.448  51.2390  0.00  0.00     0.000 O
BRANCH 55 59
ATOM     56  C1  SGN C   4     155.524  37.890  51.7560  0.00  0.00     0.000 C
ATOM     57  C2  SGN C   4     155.547  36.574  52.5520  0.00  0.00     0.000 C
ATOM     58  C3  SGN C   4     156.955  35.986  52.5880  0.00  0.00     0.000 C
ATOM     59  C4  SGN C   4     157.536  35.897  51.1810  0.00  0.00     0.000 C
ATOM     60  C5  SGN C   4     157.475  37.280  50.5360  0.00  0.00     0.000 C
ATOM     61  O5  SGN C   4     156.095  37.689  50.4720  0.00  0.00     0.000 O
ATOM     62   O  SGN C   4     156.920  34.703  53.1980  0.00  0.00     0.000 O
ATOM     64  HD  SGN C   4     156.256  35.131  53.5540  0.00  0.00     0.000 HD
BRANCH 57 66
ATOM     64   N  SGN C   4     154.923  35.985  53.7480  0.00  0.00     0.000 N
ATOM     66  HD  SGN C   4     154.564  36.284  54.4770  0.00  0.00     0.000 HD
ATOM     66   S  SGN C   4     153.461  36.434  54.2050  0.00  0.00     0.000 S
ATOM     67   O  SGN C   4     153.163  35.747  55.4090  0.00  0.00     0.000 OA
ATOM     68   O  SGN C   4     153.438  37.856  54.1880  0.00  0.00     0.000 OA
ATOM     69   O  SGN C   4     152.537  35.904  53.0620  0.00  0.00     0.000 OA
ENDBRANCH 57 66
BRANCH 60 70
ATOM     70   C  SGN C   4     158.036  37.324  49.1310  0.00  0.00     0.000 C
ATOM     71   O  SGN C   4     156.577  39.125  46.1760  0.00  0.00     0.000 OA
ATOM     72   O  SGN C   4     158.430  39.827  47.5620  0.00  0.00     0.000 OA
ATOM     73   O  SGN C   4     157.093  37.937  48.2310  0.00  0.00     0.000 O
ATOM     74   S  SGN C   4     157.707  38.720  46.9790  0.00  0.00     0.000 S
ATOM     75   O  SGN C   4     158.565  37.753  46.3220  0.00  0.00     0.000 OA
ENDBRANCH 60 70
BRANCH 56 76
ATOM     76  O4  IDS C   5     155.642  39.197  52.0540  0.00  0.00     0.000 O
BRANCH 76 80
ATOM     77  C1  IDS C   5     155.894  43.086  53.2650  0.00  0.00     0.000 C
ATOM     78  C2  IDS C   5     155.256  42.144  54.2860  0.00  0.00     0.000 C
ATOM     79  C3  IDS C   5     155.602  40.708  53.9460  0.00  0.00     0.000 C
ATOM     80  C4  IDS C   5     154.960  40.328  52.6150  0.00  0.00     0.000 C
ATOM     81  C5  IDS C   5     155.031  41.526  51.6570  0.00  0.00     0.000 C
ATOM     82  O5  IDS C   5     156.097  42.404  52.0280  0.00  0.00     0.000 O
BRANCH 78 83
ATOM     83   O  IDS C   5     155.753  42.436  55.6500  0.00  0.00     0.000 O
ATOM     84   S  IDS C   5     154.717  42.631  56.8470  0.00  0.00     0.000 S
ATOM     85   O  IDS C   5     153.724  43.553  56.3650  0.00  0.00     0.000 OA
ATOM     86   O  IDS C   5     154.188  41.312  57.1080  0.00  0.00     0.000 OA
ATOM     87   O  IDS C   5     155.488  43.148  57.9510  0.00  0.00     0.000 OA
ENDBRANCH 78 83
BRANCH 81 88
ATOM     88   C  IDS C   5     155.239  41.141  50.2040  0.00  0.00     0.000 C
ATOM     89   O  IDS C   5     156.325  41.259  49.7030  0.00  0.00     0.000 OA
ATOM     90   O  IDS C   5     154.309  40.715  49.5580  0.00  0.00     0.000 OA
ENDBRANCH 81 88
ENDBRANCH 76 80
ENDBRANCH 56 76
ENDBRANCH 55 59
ENDBRANCH 39 55
ENDBRANCH 38 42
ENDBRANCH 18 38
ENDBRANCH 17 21
ENDBRANCH 1 17
TORSDOF 18
ENDMDL
MODEL 5
REMARK VINA RESULT:      -7.5      6.731     12.154
ROOT
ATOM      1  C1  IDS C   1     169.113  34.522  54.7230  0.00  0.00     0.000 C
ATOM      2  C2  IDS C   1     170.371  34.629  55.5890  0.00  0.00     0.000 C
ATOM      3  C3  IDS C   1     171.339  33.496  55.2800  0.00  0.00     0.000 C
ATOM      4  C4  IDS C   1     170.678  32.145  55.5190  0.00  0.00     0.000 C
ATOM      5  C5  IDS C   1     169.226  32.183  55.0510  0.00  0.00     0.000 C
ATOM      6  O5  IDS C   1     169.041  33.241  54.1100  0.00  0.00     0.000 O
ATOM      7   O  IDS C   1     172.509  33.620  56.1000  0.00  0.00     0.000 O
ATOM      9  HD  IDS C   1     172.690  34.462  56.1910  0.00  0.00     0.000 HD
ENDROOT
BRANCH 2 9
ATOM      9   O  IDS C   1     171.080  35.903  55.3340  0.00  0.00     0.000 O
ATOM     10   S  IDS C   1     171.257  36.953  56.5210  0.00  0.00     0.000 S
ATOM     11   O  IDS C   1     171.991  38.066  55.9600  0.00  0.00     0.000 OA
ATOM     12   O  IDS C   1     169.914  37.311  56.9280  0.00  0.00     0.000 OA
ATOM     13   O  IDS C   1     171.993  36.260  57.5550  0.00  0.00     0.000 OA
ENDBRANCH 2 9
BRANCH 5 14
ATOM     14   C  IDS C   1     168.800  30.879  54.3990  0.00  0.00     0.000 C
ATOM     15   O  IDS C   1     168.085  30.118  55.0040  0.00  0.00     0.000 OA
ATOM     16   O  IDS C   1     169.185  30.611  53.2730  0.00  0.00     0.000 OA
ENDBRANCH 5 14
BRANCH 1 17
ATOM     17  O4  SGN C   2     168.545  35.577  54.1320  0.00  0.00     0.000 O
BRANCH 17 21
ATOM     18  C1  SGN C   2     168.044  38.050  50.7910  0.00  0.00     0.000 C
ATOM     19  C2  SGN C   2     169.076  36.922  50.6620  0.00  0.00     0.000 C
ATOM     20  C3  SGN C   2     168.844  35.878  51.7610  0.00  0.00     0.000 C
ATOM     21  C4  SGN C   2     168.827  36.550  53.1290  0.00  0.00     0.000 C
ATOM     22  C5  SGN C   2     167.763  37.643  53.1340  0.00  0.00     0.000 C
ATOM     23  O5  SGN C   2     168.044  38.604  52.0900  0.00  0.00     0.000 O
ATOM     24   O  SGN C   2     169.850  34.880  51.6980  0.00  0.00     0.000 O
ATOM     26  HD  SGN C   2     169.047  35.194  51.7880  0.00  0.00     0.000 HD
BRANCH 19 28
ATOM     26   N  SGN C   2     169.237  36.838  49.2040  0.00  0.00     0.000 N
ATOM     28  HD  SGN C   2     169.121  37.684  49.3500  0.00  0.00     0.000 HD
ATOM     28   O  SGN C   2     170.283  35.727  47.2300  0.00  0.00     0.000 OA
ATOM     29   S  SGN C   2     170.659  36.544  48.5120  0.00  0.00     0.000 S
ATOM     30   O  SGN C   2     171.203  37.785  48.1140  0.00  0.00     0.000 OA
ATOM     31   O  SGN C   2     171.398  35.700  49.3870  0.00  0.00     0.000 OA
ENDBRANCH 19 28
BRANCH 22 32
ATOM     32   C  SGN C   2     167.702  38.414  54.4300  0.00  0.00     0.000 C
ATOM     33   S  SGN C   2     166.753  40.639  55.3190  0.00  0.00     0.000 S
ATOM     34   O  SGN C   2     167.811  41.410  54.7180  0.00  0.00     0.000 OA
ATOM     35   O  SGN C   2     165.456  41.280  55.2520  0.00  0.00     0.000 OA
ATOM     36   O  SGN C   2     167.071  40.122  56.6290  0.00  0.00     0.000 OA
ATOM     37   O  SGN C   2     166.622  39.353  54.3820  0.00  0.00     0.000 O
ENDBRANCH 22 32
BRANCH 18 38
ATOM     38  O4  IDS C   3     166.762  38.090  50.4210  0.00  0.00     0.000 O
BRANCH 38 42
ATOM     39  C1  IDS C   3     163.443  37.132  49.9820  0.00  0.00     0.000 C
ATOM     40  C2  IDS C   3     164.586  36.115  49.8380  0.00  0.00     0.000 C
ATOM     41  C3  IDS C   3     165.654  36.618  48.8660  0.00  0.00     0.000 C
ATOM     42  C4  IDS C   3     166.051  38.054  49.1790  0.00  0.00     0.000 C
ATOM     43  C5  IDS C   3     164.797  38.932  49.2680  0.00  0.00     0.000 C
ATOM     44  O5  IDS C   3     163.942  38.423  50.2900  0.00  0.00     0.000 O
ATOM     45   O  IDS C   3     165.153  36.536  47.5300  0.00  0.00     0.000 O
ATOM     47  HD  IDS C   3     164.454  36.839  47.1190  0.00  0.00     0.000 HD
BRANCH 40 47
ATOM     47   O  IDS C   3     165.247  35.886  51.1450  0.00  0.00     0.000 O
ATOM     48   S  IDS C   3     164.578  34.901  52.2120  0.00  0.00     0.000 S
ATOM     49   O  IDS C   3     163.490  35.644  52.8110  0.00  0.00     0.000 OA
ATOM     50   O  IDS C   3     165.628  34.599  53.1600  0.00  0.00     0.000 OA
ATOM     51   O  IDS C   3     164.130  33.749  51.4770  0.00  0.00     0.000 OA
ENDBRANCH 40 47
BRANCH 43 52
ATOM     52   C  IDS C   3     165.117  40.383  49.5500  0.00  0.00     0.000 C
ATOM     53   O  IDS C   3     165.163  41.179  48.6390  0.00  0.00     0.000 OA
ATOM     54   O  IDS C   3     165.325  40.740  50.6810  0.00  0.00     0.000 OA
ENDBRANCH 43 52
BRANCH 39 55
ATOM     55  O4  SGN C   4     162.359  37.140  49.2060  0.00  0.00     0.000 O
BRANCH 55 59
ATOM     56  C1  SGN C   4     158.963  35.328  50.8440  0.00  0.00     0.000 C
ATOM     57  C2  SGN C   4     159.929  34.410  50.0750  0.00  0.00     0.000 C
ATOM     58  C3  SGN C   4     161.282  35.089  49.8810  0.00  0.00     0.000 C
ATOM     59  C4  SGN C   4     161.104  36.480  49.2830  0.00  0.00     0.000 C
ATOM     60  C5  SGN C   4     160.150  37.278  50.1710  0.00  0.00     0.000 C
ATOM     61  O5  SGN C   4     158.883  36.592  50.2050  0.00  0.00     0.000 O
ATOM     62   O  SGN C   4     162.102  34.285  49.0440  0.00  0.00     0.000 O
ATOM     64  HD  SGN C   4     161.574  33.722  49.4350  0.00  0.00     0.000 HD
BRANCH 57 66
ATOM     64   N  SGN C   4     159.933  33.147  50.8310  0.00  0.00     0.000 N
ATOM     66  HD  SGN C   4     159.336  32.597  51.1340  0.00  0.00     0.000 HD
ATOM     66   S  SGN C   4     159.169  31.863  50.2710  0.00  0.00     0.000 S
ATOM     67   O  SGN C   4     159.300  30.835  51.2370  0.00  0.00     0.000 OA
ATOM     68   O  SGN C   4     157.871  32.290  49.8760  0.00  0.00     0.000 OA
ATOM     69   O  SGN C   4     159.979  31.479  48.9910  0.00  0.00     0.000 OA
ENDBRANCH 57 66
BRANCH 60 70
ATOM     70   C  SGN C   4     159.899  38.689  49.6850  0.00  0.00     0.000 C
ATOM     71   O  SGN C   4     157.167  41.009  50.8070  0.00  0.00     0.000 OA
ATOM     72   O  SGN C   4     159.489  41.031  51.4810  0.00  0.00     0.000 OA
ATOM     73   O  SGN C   4     158.643  39.181  50.1910  0.00  0.00     0.000 O
ATOM     74   S  SGN C   4     158.538  40.759  50.4270  0.00  0.00     0.000 S
ATOM     75   O  SGN C   4     158.902  41.349  49.1550  0.00  0.00     0.000 OA
ENDBRANCH 60 70
BRANCH 56 76
ATOM     76  O4  IDS C   5     158.624  35.503  52.1350  0.00  0.00     0.000 O
BRANCH 76 80
ATOM     77  C1  IDS C   5     154.786  35.380  53.5170  0.00  0.00     0.000 C
ATOM     78  C2  IDS C   5     155.257  36.766  53.0750  0.00  0.00     0.000 C
ATOM     79  C3  IDS C   5     156.484  36.635  52.1940  0.00  0.00     0.000 C
ATOM     80  C4  IDS C   5     157.643  36.075  53.0130  0.00  0.00     0.000 C
ATOM     81  C5  IDS C   5     157.111  35.013  53.9870  0.00  0.00     0.000 C
ATOM     82  O5  IDS C   5     155.880  34.464  53.5090  0.00  0.00     0.000 O
BRANCH 78 83
ATOM     83   O  IDS C   5     154.198  37.458  52.3030  0.00  0.00     0.000 O
ATOM     84   S  IDS C   5     153.603  38.839  52.8350  0.00  0.00     0.000 S
ATOM     85   O  IDS C   5     153.287  38.626  54.2220  0.00  0.00     0.000 OA
ATOM     86   O  IDS C   5     154.657  39.806  52.6350  0.00  0.00     0.000 OA
ATOM     87   O  IDS C   5     152.443  39.105  52.0200  0.00  0.00     0.000 OA
ENDBRANCH 78 83
BRANCH 81 88
ATOM     88   C  IDS C   5     158.068  33.858  54.2200  0.00  0.00     0.000 C
ATOM     89   O  IDS C   5     158.858  33.908  55.1240  0.00  0.00     0.000 OA
ATOM     90   O  IDS C   5     158.027  32.891  53.4940  0.00  0.00     0.000 OA
ENDBRANCH 81 88
ENDBRANCH 76 80
ENDBRANCH 56 76
ENDBRANCH 55 59
ENDBRANCH 39 55
ENDBRANCH 38 42
ENDBRANCH 18 38
ENDBRANCH 17 21
ENDBRANCH 1 17
TORSDOF 18
ENDMDL
MODEL 6
REMARK VINA RESULT:      -7.5      6.575     16.413
ROOT
ATOM      1  C1  IDS C   1     157.311  38.978  52.2320  0.00  0.00     0.000 C
ATOM      2  C2  IDS C   1     155.891  39.009  52.8030  0.00  0.00     0.000 C
ATOM      3  C3  IDS C   1     155.135  40.232  52.3050  0.00  0.00     0.000 C
ATOM      4  C4  IDS C   1     155.863  41.510  52.6980  0.00  0.00     0.000 C
ATOM      5  C5  IDS C   1     157.369  41.319  52.5570  0.00  0.00     0.000 C
ATOM      6  O5  IDS C   1     157.646  40.238  51.6660  0.00  0.00     0.000 O
ATOM      7   O  IDS C   1     153.807  40.237  52.8490  0.00  0.00     0.000 O
ATOM      9  HD  IDS C   1     153.526  39.419  52.8880  0.00  0.00     0.000 HD
ENDROOT
BRANCH 2 9
ATOM      9   O  IDS C   1     155.128  37.812  52.3840  0.00  0.00     0.000 O
ATOM     10   S  IDS C   1     154.470  36.874  53.4940  0.00  0.00     0.000 S
ATOM     11   O  IDS C   1     153.795  35.819  52.7720  0.00  0.00     0.000 OA
ATOM     12   O  IDS C   1     155.572  36.391  54.3000  0.00  0.00     0.000 OA
ATOM     13   O  IDS C   1     153.558  37.719  54.2340  0.00  0.00     0.000 OA
ENDBRANCH 2 9
BRANCH 5 14
ATOM     14   C  IDS C   1     158.058  42.566  52.0290  0.00  0.00     0.000 C
ATOM     15   O  IDS C   1     157.649  43.088  51.0200  0.00  0.00     0.000 OA
ATOM     16   O  IDS C   1     159.017  43.027  52.6250  0.00  0.00     0.000 OA
ENDBRANCH 5 14
BRANCH 1 17
ATOM     17  O4  SGN C   2     157.883  37.864  51.7660  0.00  0.00     0.000 O
BRANCH 17 21
ATOM     18  C1  SGN C   2     159.551  35.532  48.7150  0.00  0.00     0.000 C
ATOM     19  C2  SGN C   2     159.175  36.974  48.3500  0.00  0.00     0.000 C
ATOM     20  C3  SGN C   2     158.990  37.802  49.6280  0.00  0.00     0.000 C
ATOM     21  C4  SGN C   2     157.994  37.117  50.5570  0.00  0.00     0.000 C
ATOM     22  C5  SGN C   2     158.478  35.700  50.8490  0.00  0.00     0.000 C
ATOM     23  O5  SGN C   2     158.617  34.966  49.6110  0.00  0.00     0.000 O
ATOM     24   O  SGN C   2     158.557  39.110  49.2960  0.00  0.00     0.000 O
ATOM     26  HD  SGN C   2     159.016  38.509  49.7180  0.00  0.00     0.000 HD
BRANCH 19 28
ATOM     26   N  SGN C   2     159.996  37.196  47.1520  0.00  0.00     0.000 N
ATOM     28  HD  SGN C   2     159.842  36.344  47.1410  0.00  0.00     0.000 HD
ATOM     28   O  SGN C   2     160.660  38.684  45.2630  0.00  0.00     0.000 OA
ATOM     29   S  SGN C   2     159.419  37.923  45.8380  0.00  0.00     0.000 S
ATOM     30   O  SGN C   2     159.044  36.913  44.9240  0.00  0.00     0.000 OA
ATOM     31   O  SGN C   2     158.456  38.879  46.2620  0.00  0.00     0.000 OA
ENDBRANCH 19 28
BRANCH 22 32
ATOM     32   C  SGN C   2     157.530  34.911  51.7190  0.00  0.00     0.000 C
ATOM     33   S  SGN C   2     157.620  33.374  53.7860  0.00  0.00     0.000 S
ATOM     34   O  SGN C   2     158.109  32.256  53.0180  0.00  0.00     0.000 OA
ATOM     35   O  SGN C   2     158.220  33.484  55.0990  0.00  0.00     0.000 OA
ATOM     36   O  SGN C   2     156.181  33.495  53.7990  0.00  0.00     0.000 OA
ATOM     37   O  SGN C   2     158.141  34.656  52.9890  0.00  0.00     0.000 O
ENDBRANCH 22 32
BRANCH 18 38
ATOM     38  O4  IDS C   3     160.722  35.018  49.1000  0.00  0.00     0.000 O
BRANCH 38 42
ATOM     39  C1  IDS C   3     163.766  34.152  50.5530  0.00  0.00     0.000 C
ATOM     40  C2  IDS C   3     163.606  35.467  49.7720  0.00  0.00     0.000 C
ATOM     41  C3  IDS C   3     163.016  35.218  48.3850  0.00  0.00     0.000 C
ATOM     42  C4  IDS C   3     161.793  34.315  48.4610  0.00  0.00     0.000 C
ATOM     43  C5  IDS C   3     162.131  33.046  49.2530  0.00  0.00     0.000 C
ATOM     44  O5  IDS C   3     162.556  33.414  50.5640  0.00  0.00     0.000 O
ATOM     45   O  IDS C   3     164.008  34.617  47.5500  0.00  0.00     0.000 O
ATOM     47  HD  IDS C   3     164.508  33.912  47.6030  0.00  0.00     0.000 HD
BRANCH 40 47
ATOM     47   O  IDS C   3     162.691  36.388  50.4860  0.00  0.00     0.000 O
ATOM     48   S  IDS C   3     163.214  37.201  51.7610  0.00  0.00     0.000 S
ATOM     49   O  IDS C   3     163.233  36.254  52.8550  0.00  0.00     0.000 OA
ATOM     50   O  IDS C   3     162.248  38.258  51.9610  0.00  0.00     0.000 OA
ATOM     51   O  IDS C   3     164.525  37.688  51.4220  0.00  0.00     0.000 OA
ENDBRANCH 40 47
BRANCH 43 52
ATOM     52   C  IDS C   3     160.967  32.085  49.3460  0.00  0.00     0.000 C
ATOM     53   O  IDS C   3     160.665  31.607  50.4150  0.00  0.00     0.000 OA
ATOM     54   O  IDS C   3     160.346  31.802  48.3540  0.00  0.00     0.000 OA
ENDBRANCH 43 52
BRANCH 39 55
ATOM     55  O4  SGN C   4     164.863  33.396  50.5090  0.00  0.00     0.000 O
BRANCH 55 59
ATOM     56  C1  SGN C   4     168.911  32.812  51.3870  0.00  0.00     0.000 C
ATOM     57  C2  SGN C   4     168.119  33.706  52.3570  0.00  0.00     0.000 C
ATOM     58  C3  SGN C   4     166.617  33.519  52.1610  0.00  0.00     0.000 C
ATOM     59  C4  SGN C   4     166.243  33.675  50.6920  0.00  0.00     0.000 C
ATOM     60  C5  SGN C   4     167.085  32.705  49.8650  0.00  0.00     0.000 C
ATOM     61  O5  SGN C   4     168.475  33.036  50.0560  0.00  0.00     0.000 O
ATOM     62   O  SGN C   4     165.912  34.459  52.9610  0.00  0.00     0.000 O
ATOM     64  HD  SGN C   4     166.655  34.326  53.3860  0.00  0.00     0.000 HD
BRANCH 57 66
ATOM     64   N  SGN C   4     169.455  33.961  52.9210  0.00  0.00     0.000 N
ATOM     66  HD  SGN C   4     169.842  34.610  53.3430  0.00  0.00     0.000 HD
ATOM     66   S  SGN C   4     169.622  34.397  54.4470  0.00  0.00     0.000 S
ATOM     67   O  SGN C   4     171.002  34.627  54.6740  0.00  0.00     0.000 OA
ATOM     68   O  SGN C   4     168.690  35.445  54.6850  0.00  0.00     0.000 OA
ATOM     69   O  SGN C   4     169.168  33.133  55.2450  0.00  0.00     0.000 OA
ENDBRANCH 57 66
BRANCH 60 70
ATOM     70   C  SGN C   4     166.797  32.759  48.3800  0.00  0.00     0.000 C
ATOM     71   O  SGN C   4     165.827  29.885  46.1650  0.00  0.00     0.000 OA
ATOM     72   O  SGN C   4     164.378  31.581  47.0990  0.00  0.00     0.000 OA
ATOM     73   O  SGN C   4     166.664  31.429  47.8430  0.00  0.00     0.000 O
ATOM     74   S  SGN C   4     165.690  31.260  46.5860  0.00  0.00     0.000 S
ATOM     75   O  SGN C   4     166.177  32.215  45.6100  0.00  0.00     0.000 OA
ENDBRANCH 60 70
BRANCH 56 76
ATOM     76  O4  IDS C   5     169.451  31.581  51.4370  0.00  0.00     0.000 O
BRANCH 76 80
ATOM     77  C1  IDS C   5     173.107  30.974  49.7270  0.00  0.00     0.000 C
ATOM     78  C2  IDS C   5     171.923  30.548  48.8600  0.00  0.00     0.000 C
ATOM     79  C3  IDS C   5     170.652  31.200  49.3690  0.00  0.00     0.000 C
ATOM     80  C4  IDS C   5     170.326  30.665  50.7600  0.00  0.00     0.000 C
ATOM     81  C5  IDS C   5     171.628  30.482  51.5530  0.00  0.00     0.000 C
ATOM     82  O5  IDS C   5     172.656  31.330  51.0330  0.00  0.00     0.000 O
BRANCH 78 83
ATOM     83   O  IDS C   5     172.129  30.960  47.4520  0.00  0.00     0.000 O
ATOM     84   S  IDS C   5     172.241  29.851  46.3100  0.00  0.00     0.000 S
ATOM     85   O  IDS C   5     173.188  28.881  46.7920  0.00  0.00     0.000 OA
ATOM     86   O  IDS C   5     170.906  29.319  46.1660  0.00  0.00     0.000 OA
ATOM     87   O  IDS C   5     172.691  30.550  45.1300  0.00  0.00     0.000 OA
ENDBRANCH 78 83
BRANCH 81 88
ATOM     88   C  IDS C   5     171.494  30.780  53.0350  0.00  0.00     0.000 C
ATOM     89   O  IDS C   5     171.945  31.800  53.4840  0.00  0.00     0.000 OA
ATOM     90   O  IDS C   5     170.931  29.989  53.7560  0.00  0.00     0.000 OA
ENDBRANCH 81 88
ENDBRANCH 76 80
ENDBRANCH 56 76
ENDBRANCH 55 59
ENDBRANCH 39 55
ENDBRANCH 38 42
ENDBRANCH 18 38
ENDBRANCH 17 21
ENDBRANCH 1 17
TORSDOF 18
ENDMDL
MODEL 7
REMARK VINA RESULT:      -7.4      6.434     15.847
ROOT
ATOM      1  C1  IDS C   1     156.912  38.691  52.1580  0.00  0.00     0.000 C
ATOM      2  C2  IDS C   1     155.539  38.564  52.8250  0.00  0.00     0.000 C
ATOM      3  C3  IDS C   1     154.588  39.635  52.3110  0.00  0.00     0.000 C
ATOM      4  C4  IDS C   1     155.149  41.025  52.5770  0.00  0.00     0.000 C
ATOM      5  C5  IDS C   1     156.656  41.034  52.3410  0.00  0.00     0.000 C
ATOM      6  O5  IDS C   1     157.028  39.944  51.4970  0.00  0.00     0.000 O
ATOM      7   O  IDS C   1     153.309  39.493  52.9460  0.00  0.00     0.000 O
ATOM      9  HD  IDS C   1     153.150  38.648  53.0520  0.00  0.00     0.000 HD
ENDROOT
BRANCH 2 9
ATOM      9   O  IDS C   1     154.930  37.247  52.5310  0.00  0.00     0.000 O
ATOM     10   S  IDS C   1     154.442  36.323  53.7360  0.00  0.00     0.000 S
ATOM     11   O  IDS C   1     153.891  35.134  53.1250  0.00  0.00     0.000 OA
ATOM     12   O  IDS C   1     155.626  36.055  54.5260  0.00  0.00     0.000 OA
ATOM     13   O  IDS C   1     153.451  37.098  54.4510  0.00  0.00     0.000 OA
ENDBRANCH 2 9
BRANCH 5 14
ATOM     14   C  IDS C   1     157.126  42.326  51.6940  0.00  0.00     0.000 C
ATOM     15   O  IDS C   1     158.025  42.951  52.2020  0.00  0.00     0.000 OA
ATOM     16   O  IDS C   1     156.592  42.720  50.6710  0.00  0.00     0.000 OA
ENDBRANCH 5 14
BRANCH 1 17
ATOM     17  O4  SGN C   2     157.607  37.638  51.7190  0.00  0.00     0.000 O
BRANCH 17 21
ATOM     18  C1  SGN C   2     159.585  35.452  48.7460  0.00  0.00     0.000 C
ATOM     19  C2  SGN C   2     159.093  36.852  48.3570  0.00  0.00     0.000 C
ATOM     20  C3  SGN C   2     158.789  37.666  49.6200  0.00  0.00     0.000 C
ATOM     21  C4  SGN C   2     157.827  36.898  50.5210  0.00  0.00     0.000 C
ATOM     22  C5  SGN C   2     158.427  35.533  50.8400  0.00  0.00     0.000 C
ATOM     23  O5  SGN C   2     158.676  34.808  49.6140  0.00  0.00     0.000 O
ATOM     24   O  SGN C   2     158.251  38.928  49.2630  0.00  0.00     0.000 O
ATOM     26  HD  SGN C   2     158.747  38.373  49.7060  0.00  0.00     0.000 HD
BRANCH 19 28
ATOM     26   N  SGN C   2     159.928  37.140  47.1830  0.00  0.00     0.000 N
ATOM     28  HD  SGN C   2     159.845  36.278  47.1700  0.00  0.00     0.000 HD
ATOM     28   O  SGN C   2     160.524  38.675  45.3090  0.00  0.00     0.000 OA
ATOM     29   S  SGN C   2     159.333  37.815  45.8500  0.00  0.00     0.000 S
ATOM     30   O  SGN C   2     159.070  36.777  44.9280  0.00  0.00     0.000 OA
ATOM     31   O  SGN C   2     158.283  38.690  46.2420  0.00  0.00     0.000 OA
ENDBRANCH 19 28
BRANCH 22 32
ATOM     32   C  SGN C   2     157.525  34.665  51.6830  0.00  0.00     0.000 C
ATOM     33   S  SGN C   2     157.691  33.114  53.7350  0.00  0.00     0.000 S
ATOM     34   O  SGN C   2     158.275  32.044  52.9650  0.00  0.00     0.000 OA
ATOM     35   O  SGN C   2     158.257  33.252  55.0600  0.00  0.00     0.000 OA
ATOM     36   O  SGN C   2     156.247  33.127  53.7220  0.00  0.00     0.000 OA
ATOM     37   O  SGN C   2     158.130  34.440  52.9620  0.00  0.00     0.000 O
ENDBRANCH 22 32
BRANCH 18 38
ATOM     38  O4  IDS C   3     160.783  35.049  49.1750  0.00  0.00     0.000 O
BRANCH 38 42
ATOM     39  C1  IDS C   3     163.843  34.497  50.7450  0.00  0.00     0.000 C
ATOM     40  C2  IDS C   3     163.567  35.804  49.9840  0.00  0.00     0.000 C
ATOM     41  C3  IDS C   3     163.068  35.524  48.5670  0.00  0.00     0.000 C
ATOM     42  C4  IDS C   3     161.953  34.487  48.5700  0.00  0.00     0.000 C
ATOM     43  C5  IDS C   3     162.401  33.246  49.3510  0.00  0.00     0.000 C
ATOM     44  O5  IDS C   3     162.725  33.627  50.6870  0.00  0.00     0.000 O
ATOM     45   O  IDS C   3     164.156  35.060  47.7650  0.00  0.00     0.000 O
ATOM     47  HD  IDS C   3     164.730  34.415  47.8270  0.00  0.00     0.000 HD
BRANCH 40 47
ATOM     47   O  IDS C   3     162.523  36.598  50.6750  0.00  0.00     0.000 O
ATOM     48   S  IDS C   3     162.898  38.009  51.3270  0.00  0.00     0.000 S
ATOM     49   O  IDS C   3     163.588  37.706  52.5620  0.00  0.00     0.000 OA
ATOM     50   O  IDS C   3     161.633  38.674  51.5490  0.00  0.00     0.000 OA
ATOM     51   O  IDS C   3     163.735  38.688  50.3740  0.00  0.00     0.000 OA
ENDBRANCH 40 47
BRANCH 43 52
ATOM     52   C  IDS C   3     161.351  32.157  49.3740  0.00  0.00     0.000 C
ATOM     53   O  IDS C   3     161.063  31.619  50.4180  0.00  0.00     0.000 OA
ATOM     54   O  IDS C   3     160.806  31.833  48.3500  0.00  0.00     0.000 OA
ENDBRANCH 43 52
BRANCH 39 55
ATOM     55  O4  SGN C   4     165.019  33.871  50.7350  0.00  0.00     0.000 O
BRANCH 55 59
ATOM     56  C1  SGN C   4     169.107  33.598  51.5860  0.00  0.00     0.000 C
ATOM     57  C2  SGN C   4     168.154  33.641  52.7930  0.00  0.00     0.000 C
ATOM     58  C3  SGN C   4     166.721  33.343  52.3630  0.00  0.00     0.000 C
ATOM     59  C4  SGN C   4     166.315  34.231  51.1920  0.00  0.00     0.000 C
ATOM     60  C5  SGN C   4     167.332  34.054  50.0670  0.00  0.00     0.000 C
ATOM     61  O5  SGN C   4     168.627  34.452  50.5600  0.00  0.00     0.000 O
ATOM     62   O  SGN C   4     165.843  33.534  53.4650  0.00  0.00     0.000 O
ATOM     64  HD  SGN C   4     166.599  33.314  53.8250  0.00  0.00     0.000 HD
BRANCH 57 66
ATOM     64   N  SGN C   4     169.205  32.930  53.5400  0.00  0.00     0.000 N
ATOM     66  HD  SGN C   4     169.900  33.152  54.0050  0.00  0.00     0.000 HD
ATOM     66   S  SGN C   4     169.495  33.285  55.0680  0.00  0.00     0.000 S
ATOM     67   O  SGN C   4     170.589  32.486  55.4890  0.00  0.00     0.000 OA
ATOM     68   O  SGN C   4     169.589  34.701  55.1570  0.00  0.00     0.000 OA
ATOM     69   O  SGN C   4     168.200  32.821  55.8090  0.00  0.00     0.000 OA
ENDBRANCH 57 66
BRANCH 60 70
ATOM     70   C  SGN C   4     167.032  34.882  48.8360  0.00  0.00     0.000 C
ATOM     71   O  SGN C   4     166.926  38.629  48.6090  0.00  0.00     0.000 OA
ATOM     72   O  SGN C   4     168.710  37.159  47.8990  0.00  0.00     0.000 OA
ATOM     73   O  SGN C   4     166.878  36.270  49.1870  0.00  0.00     0.000 O
ATOM     74   S  SGN C   4     167.286  37.338  48.0690  0.00  0.00     0.000 S
ATOM     75   O  SGN C   4     166.514  36.965  46.9010  0.00  0.00     0.000 OA
ENDBRANCH 60 70
BRANCH 56 76
ATOM     76  O4  IDS C   5     169.886  32.666  51.0090  0.00  0.00     0.000 O
BRANCH 76 80
ATOM     77  C1  IDS C   5     171.567  30.169  48.2520  0.00  0.00     0.000 C
ATOM     78  C2  IDS C   5     170.040  30.228  48.2060  0.00  0.00     0.000 C
ATOM     79  C3  IDS C   5     169.552  31.468  48.9310  0.00  0.00     0.000 C
ATOM     80  C4  IDS C   5     169.891  31.359  50.4140  0.00  0.00     0.000 C
ATOM     81  C5  IDS C   5     171.270  30.702  50.5740  0.00  0.00     0.000 C
ATOM     82  O5  IDS C   5     172.052  30.882  49.3900  0.00  0.00     0.000 O
BRANCH 78 83
ATOM     83   O  IDS C   5     169.560  30.284  46.8060  0.00  0.00     0.000 O
ATOM     84   S  IDS C   5     168.590  29.144  46.2540  0.00  0.00     0.000 S
ATOM     85   O  IDS C   5     169.197  27.894  46.6270  0.00  0.00     0.000 OA
ATOM     86   O  IDS C   5     167.323  29.377  46.9070  0.00  0.00     0.000 OA
ATOM     87   O  IDS C   5     168.525  29.343  44.8270  0.00  0.00     0.000 OA
ENDBRANCH 78 83
BRANCH 81 88
ATOM     88   C  IDS C   5     172.077  31.241  51.7410  0.00  0.00     0.000 C
ATOM     89   O  IDS C   5     173.038  31.934  51.5360  0.00  0.00     0.000 OA
ATOM     90   O  IDS C   5     171.747  30.971  52.8730  0.00  0.00     0.000 OA
ENDBRANCH 81 88
ENDBRANCH 76 80
ENDBRANCH 56 76
ENDBRANCH 55 59
ENDBRANCH 39 55
ENDBRANCH 38 42
ENDBRANCH 18 38
ENDBRANCH 17 21
ENDBRANCH 1 17
TORSDOF 18
ENDMDL
MODEL 8
REMARK VINA RESULT:      -7.4      6.566     16.112
ROOT
ATOM      1  C1  IDS C   1     156.957  39.532  52.9660  0.00  0.00     0.000 C
ATOM      2  C2  IDS C   1     155.473  39.586  53.3390  0.00  0.00     0.000 C
ATOM      3  C3  IDS C   1     154.874  40.938  52.9790  0.00  0.00     0.000 C
ATOM      4  C4  IDS C   1     155.613  42.060  53.6940  0.00  0.00     0.000 C
ATOM      5  C5  IDS C   1     157.110  41.767  53.7220  0.00  0.00     0.000 C
ATOM      6  O5  IDS C   1     157.447  40.838  52.6910  0.00  0.00     0.000 O
ATOM      7   O  IDS C   1     153.484  40.963  53.3330  0.00  0.00     0.000 O
ATOM      9  HD  IDS C   1     153.151  40.178  53.1830  0.00  0.00     0.000 HD
ENDROOT
BRANCH 2 9
ATOM      9   O  IDS C   1     154.707  38.551  52.6080  0.00  0.00     0.000 O
ATOM     10   S  IDS C   1     153.998  37.379  53.4250  0.00  0.00     0.000 S
ATOM     11   O  IDS C   1     153.333  36.555  52.4390  0.00  0.00     0.000 OA
ATOM     12   O  IDS C   1     155.065  36.683  54.1140  0.00  0.00     0.000 OA
ATOM     13   O  IDS C   1     153.074  38.030  54.3270  0.00  0.00     0.000 OA
ENDBRANCH 2 9
BRANCH 5 14
ATOM     14   C  IDS C   1     157.944  43.022  53.5290  0.00  0.00     0.000 C
ATOM     15   O  IDS C   1     158.182  43.411  52.4120  0.00  0.00     0.000 OA
ATOM     16   O  IDS C   1     158.366  43.624  54.5030  0.00  0.00     0.000 OA
ENDBRANCH 5 14
BRANCH 1 17
ATOM     17  O4  SGN C   2     157.522  38.471  52.3820  0.00  0.00     0.000 O
BRANCH 17 21
ATOM     18  C1  SGN C   2     159.470  36.773  49.0880  0.00  0.00     0.000 C
ATOM     19  C2  SGN C   2     158.959  38.210  48.9190  0.00  0.00     0.000 C
ATOM     20  C3  SGN C   2     158.669  38.823  50.2940  0.00  0.00     0.000 C
ATOM     21  C4  SGN C   2     157.729  37.920  51.0840  0.00  0.00     0.000 C
ATOM     22  C5  SGN C   2     158.345  36.529  51.1880  0.00  0.00     0.000 C
ATOM     23  O5  SGN C   2     158.580  35.997  49.8640  0.00  0.00     0.000 O
ATOM     24   O  SGN C   2     158.115  40.119  50.1370  0.00  0.00     0.000 O
ATOM     26  HD  SGN C   2     158.623  39.510  50.4850  0.00  0.00     0.000 HD
BRANCH 19 28
ATOM     26   N  SGN C   2     159.730  38.658  47.7510  0.00  0.00     0.000 N
ATOM     28  HD  SGN C   2     159.568  37.824  47.5830  0.00  0.00     0.000 HD
ATOM     28   O  SGN C   2     160.326  40.481  46.1560  0.00  0.00     0.000 OA
ATOM     29   S  SGN C   2     159.103  39.624  46.6280  0.00  0.00     0.000 S
ATOM     30   O  SGN C   2     158.681  38.810  45.5540  0.00  0.00     0.000 OA
ATOM     31   O  SGN C   2     158.168  40.482  47.2700  0.00  0.00     0.000 OA
ENDBRANCH 19 28
BRANCH 22 32
ATOM     32   C  SGN C   2     157.464  35.535  51.9050  0.00  0.00     0.000 C
ATOM     33   S  SGN C   2     157.688  33.652  53.6500  0.00  0.00     0.000 S
ATOM     34   O  SGN C   2     158.225  32.727  52.6840  0.00  0.00     0.000 OA
ATOM     35   O  SGN C   2     158.308  33.554  54.9550  0.00  0.00     0.000 OA
ATOM     36   O  SGN C   2     156.245  33.679  53.7000  0.00  0.00     0.000 OA
ATOM     37   O  SGN C   2     158.116  35.088  53.1000  0.00  0.00     0.000 O
ENDBRANCH 22 32
BRANCH 18 38
ATOM     38  O4  IDS C   3     160.678  36.324  49.4340  0.00  0.00     0.000 O
BRANCH 38 42
ATOM     39  C1  IDS C   3     163.916  35.054  49.6080  0.00  0.00     0.000 C
ATOM     40  C2  IDS C   3     162.782  34.449  50.4510  0.00  0.00     0.000 C
ATOM     41  C3  IDS C   3     162.052  35.528  51.2500  0.00  0.00     0.000 C
ATOM     42  C4  IDS C   3     161.690  36.716  50.3690  0.00  0.00     0.000 C
ATOM     43  C5  IDS C   3     162.935  37.204  49.6180  0.00  0.00     0.000 C
ATOM     44  O5  IDS C   3     163.448  36.137  48.8220  0.00  0.00     0.000 O
ATOM     45   O  IDS C   3     162.882  35.963  52.3280  0.00  0.00     0.000 O
ATOM     47  HD  IDS C   3     163.686  36.280  52.3920  0.00  0.00     0.000 HD
BRANCH 40 47
ATOM     47   O  IDS C   3     161.783  33.787  49.5800  0.00  0.00     0.000 O
ATOM     48   S  IDS C   3     161.846  32.204  49.3580  0.00  0.00     0.000 S
ATOM     49   O  IDS C   3     162.922  31.978  48.4180  0.00  0.00     0.000 OA
ATOM     50   O  IDS C   3     160.554  31.845  48.8160  0.00  0.00     0.000 OA
ATOM     51   O  IDS C   3     162.100  31.622  50.6480  0.00  0.00     0.000 OA
ENDBRANCH 40 47
BRANCH 43 52
ATOM     52   C  IDS C   3     162.657  38.404  48.7400  0.00  0.00     0.000 C
ATOM     53   O  IDS C   3     162.343  39.458  49.2420  0.00  0.00     0.000 OA
ATOM     54   O  IDS C   3     162.750  38.303  47.5430  0.00  0.00     0.000 OA
ENDBRANCH 43 52
BRANCH 39 55
ATOM     55  O4  SGN C   4     165.165  35.204  50.0490  0.00  0.00     0.000 O
BRANCH 55 59
ATOM     56  C1  SGN C   4     168.098  35.112  53.0320  0.00  0.00     0.000 C
ATOM     57  C2  SGN C   4     167.350  33.795  52.7620  0.00  0.00     0.000 C
ATOM     58  C3  SGN C   4     166.617  33.853  51.4250  0.00  0.00     0.000 C
ATOM     59  C4  SGN C   4     165.759  35.110  51.3370  0.00  0.00     0.000 C
ATOM     60  C5  SGN C   4     166.644  36.328  51.5930  0.00  0.00     0.000 C
ATOM     61  O5  SGN C   4     167.206  36.209  52.9140  0.00  0.00     0.000 O
ATOM     62   O  SGN C   4     165.817  32.688  51.2700  0.00  0.00     0.000 O
ATOM     64  HD  SGN C   4     166.472  32.436  51.7770  0.00  0.00     0.000 HD
BRANCH 57 66
ATOM     64   N  SGN C   4     167.248  32.416  53.2670  0.00  0.00     0.000 N
ATOM     66  HD  SGN C   4     167.745  31.708  53.2550  0.00  0.00     0.000 HD
ATOM     66   S  SGN C   4     168.394  31.805  54.1930  0.00  0.00     0.000 S
ATOM     67   O  SGN C   4     168.048  30.457  54.4640  0.00  0.00     0.000 OA
ATOM     68   O  SGN C   4     169.637  32.094  53.5640  0.00  0.00     0.000 OA
ATOM     69   O  SGN C   4     168.293  32.641  55.5090  0.00  0.00     0.000 OA
ENDBRANCH 57 66
BRANCH 60 70
ATOM     70   C  SGN C   4     165.905  37.646  51.5220  0.00  0.00     0.000 C
ATOM     71   O  SGN C   4     164.690  39.709  54.4160  0.00  0.00     0.000 OA
ATOM     72   O  SGN C   4     166.664  40.078  53.0690  0.00  0.00     0.000 OA
ATOM     73   O  SGN C   4     165.425  38.026  52.8260  0.00  0.00     0.000 O
ATOM     74   S  SGN C   4     165.303  39.595  53.1130  0.00  0.00     0.000 S
ATOM     75   O  SGN C   4     164.474  40.105  52.0380  0.00  0.00     0.000 OA
ENDBRANCH 60 70
BRANCH 56 76
ATOM     76  O4  IDS C   5     169.343  35.574  52.8110  0.00  0.00     0.000 O
BRANCH 76 80
ATOM     77  C1  IDS C   5     172.891  34.770  54.6600  0.00  0.00     0.000 C
ATOM     78  C2  IDS C   5     171.992  35.750  55.4120  0.00  0.00     0.000 C
ATOM     79  C3  IDS C   5     170.570  35.643  54.8980  0.00  0.00     0.000 C
ATOM     80  C4  IDS C   5     170.516  36.105  53.4450  0.00  0.00     0.000 C
ATOM     81  C5  IDS C   5     171.781  35.632  52.7140  0.00  0.00     0.000 C
ATOM     82  O5  IDS C   5     172.345  34.493  53.3710  0.00  0.00     0.000 O
BRANCH 78 83
ATOM     83   O  IDS C   5     171.988  35.451  56.8640  0.00  0.00     0.000 O
ATOM     84   S  IDS C   5     172.271  36.617  57.9150  0.00  0.00     0.000 S
ATOM     85   O  IDS C   5     173.453  37.292  57.4480  0.00  0.00     0.000 OA
ATOM     86   O  IDS C   5     171.091  37.449  57.8820  0.00  0.00     0.000 OA
ATOM     87   O  IDS C   5     172.454  35.961  59.1860  0.00  0.00     0.000 OA
ENDBRANCH 78 83
BRANCH 81 88
ATOM     88   C  IDS C   5     171.548  35.254  51.2620  0.00  0.00     0.000 C
ATOM     89   O  IDS C   5     171.227  34.130  50.9800  0.00  0.00     0.000 OA
ATOM     90   O  IDS C   5     171.686  36.087  50.3970  0.00  0.00     0.000 OA
ENDBRANCH 81 88
ENDBRANCH 76 80
ENDBRANCH 56 76
ENDBRANCH 55 59
ENDBRANCH 39 55
ENDBRANCH 38 42
ENDBRANCH 18 38
ENDBRANCH 17 21
ENDBRANCH 1 17
TORSDOF 18
ENDMDL
MODEL 9
REMARK VINA RESULT:      -7.4      5.084      9.307
ROOT
ATOM      1  C1  IDS C   1     162.953  35.376  49.9210  0.00  0.00     0.000 C
ATOM      2  C2  IDS C   1     163.443  33.997  49.4710  0.00  0.00     0.000 C
ATOM      3  C3  IDS C   1     164.251  33.325  50.5710  0.00  0.00     0.000 C
ATOM      4  C4  IDS C   1     165.448  34.182  50.9580  0.00  0.00     0.000 C
ATOM      5  C5  IDS C   1     165.057  35.657  50.9620  0.00  0.00     0.000 C
ATOM      6  O5  IDS C   1     163.641  35.788  51.0940  0.00  0.00     0.000 O
ATOM      7   O  IDS C   1     164.695  32.035  50.1280  0.00  0.00     0.000 O
ATOM      9  HD  IDS C   1     164.072  31.686  49.6390  0.00  0.00     0.000 HD
ENDROOT
BRANCH 2 9
ATOM      9   O  IDS C   1     162.301  33.111  49.1500  0.00  0.00     0.000 O
ATOM     10   S  IDS C   1     162.261  32.363  47.7420  0.00  0.00     0.000 S
ATOM     11   O  IDS C   1     161.046  31.578  47.7450  0.00  0.00     0.000 OA
ATOM     12   O  IDS C   1     162.251  33.413  46.7440  0.00  0.00     0.000 OA
ATOM     13   O  IDS C   1     163.455  31.549  47.6920  0.00  0.00     0.000 OA
ENDBRANCH 2 9
BRANCH 5 14
ATOM     14   C  IDS C   1     165.719  36.422  52.0950  0.00  0.00     0.000 C
ATOM     15   O  IDS C   1     165.062  37.187  52.7590  0.00  0.00     0.000 OA
ATOM     16   O  IDS C   1     166.906  36.260  52.3230  0.00  0.00     0.000 OA
ENDBRANCH 5 14
BRANCH 1 17
ATOM     17  O4  SGN C   2     161.716  35.823  49.6810  0.00  0.00     0.000 O
BRANCH 17 21
ATOM     18  C1  SGN C   2     157.626  36.253  50.4630  0.00  0.00     0.000 C
ATOM     19  C2  SGN C   2     158.491  35.716  51.6090  0.00  0.00     0.000 C
ATOM     20  C3  SGN C   2     159.969  36.013  51.3280  0.00  0.00     0.000 C
ATOM     21  C4  SGN C   2     160.360  35.480  49.9540  0.00  0.00     0.000 C
ATOM     22  C5  SGN C   2     159.436  36.087  48.9030  0.00  0.00     0.000 C
ATOM     23  O5  SGN C   2     158.061  35.760  49.2130  0.00  0.00     0.000 O
ATOM     24   O  SGN C   2     160.778  35.442  52.3430  0.00  0.00     0.000 O
ATOM     26  HD  SGN C   2     160.520  36.048  51.7810  0.00  0.00     0.000 HD
BRANCH 19 28
ATOM     26   N  SGN C   2     157.624  35.960  52.7700  0.00  0.00     0.000 N
ATOM     28  HD  SGN C   2     157.067  35.779  52.1310  0.00  0.00     0.000 HD
ATOM     28   O  SGN C   2     157.263  35.827  55.2340  0.00  0.00     0.000 OA
ATOM     29   S  SGN C   2     157.497  34.914  53.9840  0.00  0.00     0.000 S
ATOM     30   O  SGN C   2     156.334  34.143  53.7630  0.00  0.00     0.000 OA
ATOM     31   O  SGN C   2     158.754  34.264  54.1260  0.00  0.00     0.000 OA
ENDBRANCH 19 28
BRANCH 22 32
ATOM     32   C  SGN C   2     159.701  35.579  47.5080  0.00  0.00     0.000 C
ATOM     33   S  SGN C   2     160.210  36.523  45.1640  0.00  0.00     0.000 S
ATOM     34   O  SGN C   2     158.838  36.903  44.9440  0.00  0.00     0.000 OA
ATOM     35   O  SGN C   2     161.168  37.480  44.6490  0.00  0.00     0.000 OA
ATOM     36   O  SGN C   2     160.510  35.158  44.8020  0.00  0.00     0.000 OA
ATOM     37   O  SGN C   2     160.385  36.584  46.7500  0.00  0.00     0.000 O
ENDBRANCH 22 32
BRANCH 18 38
ATOM     38  O4  IDS C   3     157.223  37.497  50.1980  0.00  0.00     0.000 O
BRANCH 38 42
ATOM     39  C1  IDS C   3     155.244  40.350  50.4690  0.00  0.00     0.000 C
ATOM     40  C2  IDS C   3     154.630  38.947  50.5850  0.00  0.00     0.000 C
ATOM     41  C3  IDS C   3     155.022  38.071  49.3950  0.00  0.00     0.000 C
ATOM     42  C4  IDS C   3     156.520  38.142  49.1300  0.00  0.00     0.000 C
ATOM     43  C5  IDS C   3     156.960  39.607  49.0240  0.00  0.00     0.000 C
ATOM     44  O5  IDS C   3     156.642  40.280  50.2410  0.00  0.00     0.000 O
ATOM     45   O  IDS C   3     154.307  38.500  48.2350  0.00  0.00     0.000 O
ATOM     47  HD  IDS C   3     154.216  39.252  47.8150  0.00  0.00     0.000 HD
BRANCH 40 47
ATOM     47   O  IDS C   3     155.108  38.268  51.8130  0.00  0.00     0.000 O
ATOM     48   S  IDS C   3     154.138  38.137  53.0780  0.00  0.00     0.000 S
ATOM     49   O  IDS C   3     154.133  39.438  53.7110  0.00  0.00     0.000 OA
ATOM     50   O  IDS C   3     154.738  37.119  53.9120  0.00  0.00     0.000 OA
ATOM     51   O  IDS C   3     152.848  37.761  52.5650  0.00  0.00     0.000 OA
ENDBRANCH 40 47
BRANCH 43 52
ATOM     52   C  IDS C   3     158.437  39.756  48.7320  0.00  0.00     0.000 C
ATOM     53   O  IDS C   3     158.869  39.461  47.6420  0.00  0.00     0.000 OA
ATOM     54   O  IDS C   3     159.176  40.169  49.5890  0.00  0.00     0.000 OA
ENDBRANCH 43 52
BRANCH 39 55
ATOM     55  O4  SGN C   4     154.645  41.371  49.8550  0.00  0.00     0.000 O
BRANCH 55 59
ATOM     56  C1  SGN C   4     152.287  43.720  52.3900  0.00  0.00     0.000 C
ATOM     57  C2  SGN C   4     151.548  42.677  51.5340  0.00  0.00     0.000 C
ATOM     58  C3  SGN C   4     152.525  41.647  50.9730  0.00  0.00     0.000 C
ATOM     59  C4  SGN C   4     153.694  42.336  50.2790  0.00  0.00     0.000 C
ATOM     60  C5  SGN C   4     154.342  43.310  51.2610  0.00  0.00     0.000 C
ATOM     61  O5  SGN C   4     153.355  44.287  51.6480  0.00  0.00     0.000 O
ATOM     62   O  SGN C   4     151.843  40.787  50.0700  0.00  0.00     0.000 O
ATOM     64  HD  SGN C   4     151.232  41.043  50.6290  0.00  0.00     0.000 HD
BRANCH 57 66
ATOM     64   N  SGN C   4     150.488  42.886  52.5340  0.00  0.00     0.000 N
ATOM     66  HD  SGN C   4     149.744  43.326  52.5730  0.00  0.00     0.000 HD
ATOM     66   S  SGN C   4     148.962  42.592  52.1720  0.00  0.00     0.000 S
ATOM     67   O  SGN C   4     148.182  42.942  53.3030  0.00  0.00     0.000 OA
ATOM     68   O  SGN C   4     148.702  43.219  50.9220  0.00  0.00     0.000 OA
ATOM     69   O  SGN C   4     148.920  41.043  51.9720  0.00  0.00     0.000 OA
ENDBRANCH 57 66
BRANCH 60 70
ATOM     70   C  SGN C   4     155.529  44.055  50.6890  0.00  0.00     0.000 C
ATOM     71   O  SGN C   4     158.368  45.590  52.6100  0.00  0.00     0.000 OA
ATOM     72   O  SGN C   4     158.365  43.491  51.4100  0.00  0.00     0.000 OA
ATOM     73   O  SGN C   4     156.293  44.673  51.7430  0.00  0.00     0.000 O
ATOM     74   S  SGN C   4     157.861  44.843  51.4820  0.00  0.00     0.000 S
ATOM     75   O  SGN C   4     157.952  45.561  50.2260  0.00  0.00     0.000 OA
ENDBRANCH 60 70
BRANCH 56 76
ATOM     76  O4  IDS C   5     152.580  43.860  53.6960  0.00  0.00     0.000 O
BRANCH 76 80
ATOM     77  C1  IDS C   5     154.716  44.333  57.1410  0.00  0.00     0.000 C
ATOM     78  C2  IDS C   5     155.277  43.279  56.1870  0.00  0.00     0.000 C
ATOM     79  C3  IDS C   5     154.703  43.485  54.7990  0.00  0.00     0.000 C
ATOM     80  C4  IDS C   5     153.200  43.224  54.8240  0.00  0.00     0.000 C
ATOM     81  C5  IDS C   5     152.612  43.765  56.1350  0.00  0.00     0.000 C
ATOM     82  O5  IDS C   5     153.448  44.793  56.6750  0.00  0.00     0.000 O
BRANCH 78 83
ATOM     83   O  IDS C   5     156.753  43.380  56.1040  0.00  0.00     0.000 O
ATOM     84   S  IDS C   5     157.665  42.412  56.9840  0.00  0.00     0.000 S
ATOM     85   O  IDS C   5     157.138  42.479  58.3210  0.00  0.00     0.000 OA
ATOM     86   O  IDS C   5     157.522  41.107  56.3830  0.00  0.00     0.000 OA
ATOM     87   O  IDS C   5     159.006  42.931  56.8740  0.00  0.00     0.000 OA
ENDBRANCH 78 83
BRANCH 81 88
ATOM     88   C  IDS C   5     151.214  44.340  55.9920  0.00  0.00     0.000 C
ATOM     89   O  IDS C   5     151.035  45.519  56.1360  0.00  0.00     0.000 OA
ATOM     90   O  IDS C   5     150.289  43.606  55.7310  0.00  0.00     0.000 OA
ENDBRANCH 81 88
ENDBRANCH 76 80
ENDBRANCH 56 76
ENDBRANCH 55 59
ENDBRANCH 39 55
ENDBRANCH 38 42
ENDBRANCH 18 38
ENDBRANCH 17 21
ENDBRANCH 1 17
TORSDOF 18
ENDMDL
MODEL 10
REMARK VINA RESULT:      -7.3     13.490     22.258
ROOT
ATOM      1  C1  IDS C   1     139.915  34.457  44.7420  0.00  0.00     0.000 C
ATOM      2  C2  IDS C   1     141.278  34.245  44.0770  0.00  0.00     0.000 C
ATOM      3  C3  IDS C   1     142.400  34.345  45.1000  0.00  0.00     0.000 C
ATOM      4  C4  IDS C   1     142.382  35.705  45.7850  0.00  0.00     0.000 C
ATOM      5  C5  IDS C   1     140.943  36.140  46.0470  0.00  0.00     0.000 C
ATOM      6  O5  IDS C   1     140.079  35.003  46.0440  0.00  0.00     0.000 O
ATOM      7   O  IDS C   1     143.665  34.139  44.4550  0.00  0.00     0.000 O
ATOM      9  HD  IDS C   1     143.561  33.540  43.8390  0.00  0.00     0.000 HD
ENDROOT
BRANCH 2 9
ATOM      9   O  IDS C   1     141.359  32.903  43.4570  0.00  0.00     0.000 O
ATOM     10   S  IDS C   1     141.848  32.766  41.9460  0.00  0.00     0.000 S
ATOM     11   O  IDS C   1     141.829  31.351  41.6490  0.00  0.00     0.000 OA
ATOM     12   O  IDS C   1     140.894  33.520  41.1580  0.00  0.00     0.000 OA
ATOM     13   O  IDS C   1     143.179  33.329  41.9090  0.00  0.00     0.000 OA
ENDBRANCH 2 9
BRANCH 5 14
ATOM     14   C  IDS C   1     140.794  36.855  47.3790  0.00  0.00     0.000 C
ATOM     15   O  IDS C   1     141.574  37.726  47.6760  0.00  0.00     0.000 OA
ATOM     16   O  IDS C   1     139.891  36.542  48.1360  0.00  0.00     0.000 OA
ENDBRANCH 5 14
BRANCH 1 17
ATOM     17  O4  SGN C   2     138.845  33.708  44.4620  0.00  0.00     0.000 O
BRANCH 17 21
ATOM     18  C1  SGN C   2     136.282  30.412  44.7760  0.00  0.00     0.000 C
ATOM     19  C2  SGN C   2     137.179  30.703  45.9860  0.00  0.00     0.000 C
ATOM     20  C3  SGN C   2     137.722  32.134  45.8990  0.00  0.00     0.000 C
ATOM     21  C4  SGN C   2     138.405  32.355  44.5540  0.00  0.00     0.000 C
ATOM     22  C5  SGN C   2     137.416  32.040  43.4350  0.00  0.00     0.000 C
ATOM     23  O5  SGN C   2     136.953  30.676  43.5620  0.00  0.00     0.000 O
ATOM     24   O  SGN C   2     138.619  32.376  46.9690  0.00  0.00     0.000 O
ATOM     26  HD  SGN C   2     137.978  32.556  46.4150  0.00  0.00     0.000 HD
BRANCH 19 28
ATOM     26   N  SGN C   2     136.430  30.068  47.0800  0.00  0.00     0.000 N
ATOM     28  HD  SGN C   2     136.124  29.680  46.3680  0.00  0.00     0.000 HD
ATOM     28   O  SGN C   2     136.365  29.266  49.4410  0.00  0.00     0.000 OA
ATOM     29   S  SGN C   2     137.109  29.013  48.0860  0.00  0.00     0.000 S
ATOM     30   O  SGN C   2     136.785  27.717  47.6270  0.00  0.00     0.000 OA
ATOM     31   O  SGN C   2     138.473  29.383  48.2430  0.00  0.00     0.000 OA
ENDBRANCH 19 28
BRANCH 22 32
ATOM     32   C  SGN C   2     138.012  32.172  42.0550  0.00  0.00     0.000 C
ATOM     33   S  SGN C   2     138.132  30.827  39.8600  0.00  0.00     0.000 S
ATOM     34   O  SGN C   2     139.129  29.928  40.3840  0.00  0.00     0.000 OA
ATOM     35   O  SGN C   2     137.148  30.177  39.0200  0.00  0.00     0.000 OA
ATOM     36   O  SGN C   2     138.674  32.034  39.2810  0.00  0.00     0.000 OA
ATOM     37   O  SGN C   2     137.319  31.307  41.1470  0.00  0.00     0.000 O
ENDBRANCH 22 32
BRANCH 18 38
ATOM     38  O4  IDS C   3     135.020  30.771  44.5330  0.00  0.00     0.000 O
BRANCH 38 42
ATOM     39  C1  IDS C   3     131.556  31.120  44.4550  0.00  0.00     0.000 C
ATOM     40  C2  IDS C   3     132.217  29.745  44.2740  0.00  0.00     0.000 C
ATOM     41  C3  IDS C   3     133.284  29.784  43.1800  0.00  0.00     0.000 C
ATOM     42  C4  IDS C   3     134.218  30.973  43.3640  0.00  0.00     0.000 C
ATOM     43  C5  IDS C   3     133.397  32.260  43.5090  0.00  0.00     0.000 C
ATOM     44  O5  IDS C   3     132.529  32.136  44.6340  0.00  0.00     0.000 O
ATOM     45   O  IDS C   3     132.650  29.863  41.9030  0.00  0.00     0.000 O
ATOM     47  HD  IDS C   3     132.074  30.396  41.5370  0.00  0.00     0.000 HD
BRANCH 40 47
ATOM     47   O  IDS C   3     132.881  29.317  45.5280  0.00  0.00     0.000 O
ATOM     48   S  IDS C   3     132.206  28.191  46.4410  0.00  0.00     0.000 S
ATOM     49   O  IDS C   3     131.128  28.847  47.1500  0.00  0.00     0.000 OA
ATOM     50   O  IDS C   3     133.257  27.740  47.3280  0.00  0.00     0.000 OA
ATOM     51   O  IDS C   3     131.742  27.165  45.5460  0.00  0.00     0.000 OA
ENDBRANCH 40 47
BRANCH 43 52
ATOM     52   C  IDS C   3     134.262  33.491  43.6680  0.00  0.00     0.000 C
ATOM     53   O  IDS C   3     134.535  33.897  44.7740  0.00  0.00     0.000 OA
ATOM     54   O  IDS C   3     134.675  34.061  42.6910  0.00  0.00     0.000 OA
ENDBRANCH 43 52
BRANCH 39 55
ATOM     55  O4  SGN C   4     130.476  31.516  43.7800  0.00  0.00     0.000 O
BRANCH 55 59
ATOM     56  C1  SGN C   4     126.878  30.642  45.7280  0.00  0.00     0.000 C
ATOM     57  C2  SGN C   4     127.072  30.026  44.3320  0.00  0.00     0.000 C
ATOM     58  C3  SGN C   4     128.538  30.084  43.9120  0.00  0.00     0.000 C
ATOM     59  C4  SGN C   4     129.087  31.498  44.0730  0.00  0.00     0.000 C
ATOM     60  C5  SGN C   4     128.852  31.955  45.5110  0.00  0.00     0.000 C
ATOM     61  O5  SGN C   4     127.432  31.948  45.7620  0.00  0.00     0.000 O
ATOM     62   O  SGN C   4     128.665  29.647  42.5660  0.00  0.00     0.000 O
ATOM     64  HD  SGN C   4     127.967  29.230  42.8640  0.00  0.00     0.000 HD
BRANCH 57 66
ATOM     64   N  SGN C   4     125.662  29.641  44.5110  0.00  0.00     0.000 N
ATOM     66  HD  SGN C   4     124.984  29.493  43.9930  0.00  0.00     0.000 HD
ATOM     66   S  SGN C   4     125.061  28.379  43.7400  0.00  0.00     0.000 S
ATOM     67   O  SGN C   4     123.683  28.301  44.0620  0.00  0.00     0.000 OA
ATOM     68   O  SGN C   4     125.455  28.498  42.3780  0.00  0.00     0.000 OA
ATOM     69   O  SGN C   4     125.813  27.165  44.3740  0.00  0.00     0.000 OA
ENDBRANCH 57 66
BRANCH 60 70
ATOM     70   C  SGN C   4     129.365  33.349  45.8000  0.00  0.00     0.000 C
ATOM     71   O  SGN C   4     130.557  34.673  49.1060  0.00  0.00     0.000 OA
ATOM     72   O  SGN C   4     131.907  33.933  47.2420  0.00  0.00     0.000 OA
ATOM     73   O  SGN C   4     129.530  33.542  47.2180  0.00  0.00     0.000 O
ATOM     74   S  SGN C   4     130.677  34.559  47.6710  0.00  0.00     0.000 S
ATOM     75   O  SGN C   4     130.381  35.791  46.9670  0.00  0.00     0.000 OA
ENDBRANCH 60 70
BRANCH 56 76
ATOM     76  O4  IDS C   5     126.856  30.177  46.9910  0.00  0.00     0.000 O
BRANCH 76 80
ATOM     77  C1  IDS C   5     126.832  28.582  50.7470  0.00  0.00     0.000 C
ATOM     78  C2  IDS C   5     127.905  28.009  49.8220  0.00  0.00     0.000 C
ATOM     79  C3  IDS C   5     128.120  28.941  48.6450  0.00  0.00     0.000 C
ATOM     80  C4  IDS C   5     126.856  28.986  47.7920  0.00  0.00     0.000 C
ATOM     81  C5  IDS C   5     125.624  28.954  48.7060  0.00  0.00     0.000 C
ATOM     82  O5  IDS C   5     125.954  29.435  50.0130  0.00  0.00     0.000 O
BRANCH 78 83
ATOM     83   O  IDS C   5     129.192  27.859  50.5410  0.00  0.00     0.000 O
ATOM     84   S  IDS C   5     129.961  26.461  50.5070  0.00  0.00     0.000 S
ATOM     85   O  IDS C   5     128.978  25.461  50.8280  0.00  0.00     0.000 OA
ATOM     86   O  IDS C   5     130.472  26.344  49.1610  0.00  0.00     0.000 OA
ATOM     87   O  IDS C   5     131.008  26.568  51.4930  0.00  0.00     0.000 OA
ENDBRANCH 78 83
BRANCH 81 88
ATOM     88   C  IDS C   5     124.457  29.780  48.1970  0.00  0.00     0.000 C
ATOM     89   O  IDS C   5     123.868  29.437  47.2070  0.00  0.00     0.000 OA
ATOM     90   O  IDS C   5     124.126  30.780  48.7920  0.00  0.00     0.000 OA
ENDBRANCH 81 88
ENDBRANCH 76 80
ENDBRANCH 56 76
ENDBRANCH 55 59
ENDBRANCH 39 55
ENDBRANCH 38 42
ENDBRANCH 18 38
ENDBRANCH 17 21
ENDBRANCH 1 17
TORSDOF 18
ENDMDL
MODEL 11
REMARK VINA RESULT:      -7.2      5.269      8.769
ROOT
ATOM      1  C1  IDS C   1     152.646  43.415  54.2180  0.00  0.00     0.000 C
ATOM      2  C2  IDS C   1     152.699  44.659  55.1090  0.00  0.00     0.000 C
ATOM      3  C3  IDS C   1     154.114  44.901  55.6160  0.00  0.00     0.000 C
ATOM      4  C4  IDS C   1     154.615  43.698  56.4030  0.00  0.00     0.000 C
ATOM      5  C5  IDS C   1     154.154  42.407  55.7350  0.00  0.00     0.000 C
ATOM      6  O5  IDS C   1     153.835  42.650  54.3640  0.00  0.00     0.000 O
ATOM      7   O  IDS C   1     154.139  46.073  56.4430  0.00  0.00     0.000 O
ATOM      9  HD  IDS C   1     153.588  46.653  56.1110  0.00  0.00     0.000 HD
ENDROOT
BRANCH 2 9
ATOM      9   O  IDS C   1     152.283  45.864  54.3560  0.00  0.00     0.000 O
ATOM     10   S  IDS C   1     151.060  46.738  54.8900  0.00  0.00     0.000 S
ATOM     11   O  IDS C   1     150.917  47.832  53.9560  0.00  0.00     0.000 OA
ATOM     12   O  IDS C   1     149.917  45.847  54.8930  0.00  0.00     0.000 OA
ATOM     13   O  IDS C   1     151.436  47.176  56.2160  0.00  0.00     0.000 OA
ENDBRANCH 2 9
BRANCH 5 14
ATOM     14   C  IDS C   1     155.214  41.320  55.7970  0.00  0.00     0.000 C
ATOM     15   O  IDS C   1     155.282  40.506  54.9080  0.00  0.00     0.000 OA
ATOM     16   O  IDS C   1     155.983  41.278  56.7420  0.00  0.00     0.000 OA
ENDBRANCH 5 14
BRANCH 1 17
ATOM     17  O4  SGN C   2     151.960  43.369  53.0730  0.00  0.00     0.000 O
BRANCH 17 21
ATOM     18  C1  SGN C   2     151.589  42.986  48.9210  0.00  0.00     0.000 C
ATOM     19  C2  SGN C   2     152.959  42.646  49.5220  0.00  0.00     0.000 C
ATOM     20  C3  SGN C   2     152.821  42.422  51.0330  0.00  0.00     0.000 C
ATOM     21  C4  SGN C   2     152.139  43.621  51.6820  0.00  0.00     0.000 C
ATOM     22  C5  SGN C   2     150.792  43.854  51.0050  0.00  0.00     0.000 C
ATOM     23  O5  SGN C   2     150.988  44.075  49.5890  0.00  0.00     0.000 O
ATOM     24   O  SGN C   2     154.098  42.194  51.6050  0.00  0.00     0.000 O
ATOM     26  HD  SGN C   2     153.250  42.068  51.4810  0.00  0.00     0.000 HD
BRANCH 19 28
ATOM     26   N  SGN C   2     153.564  41.855  48.4420  0.00  0.00     0.000 N
ATOM     28  HD  SGN C   2     153.079  42.437  48.0240  0.00  0.00     0.000 HD
ATOM     28   O  SGN C   2     155.501  40.537  47.5860  0.00  0.00     0.000 OA
ATOM     29   S  SGN C   2     155.118  41.983  48.0500  0.00  0.00     0.000 S
ATOM     30   O  SGN C   2     155.207  42.852  46.9410  0.00  0.00     0.000 OA
ATOM     31   O  SGN C   2     155.839  42.284  49.2380  0.00  0.00     0.000 OA
ENDBRANCH 19 28
BRANCH 22 32
ATOM     32   C  SGN C   2     150.056  45.060  51.5350  0.00  0.00     0.000 C
ATOM     33   S  SGN C   2     147.692  46.084  51.4440  0.00  0.00     0.000 S
ATOM     34   O  SGN C   2     147.887  46.585  50.1070  0.00  0.00     0.000 OA
ATOM     35   O  SGN C   2     146.360  45.569  51.6840  0.00  0.00     0.000 OA
ATOM     36   O  SGN C   2     148.160  46.974  52.4800  0.00  0.00     0.000 OA
ATOM     37   O  SGN C   2     148.646  44.806  51.5280  0.00  0.00     0.000 O
ENDBRANCH 22 32
BRANCH 18 38
ATOM     38  O4  IDS C   3     150.564  42.190  48.6090  0.00  0.00     0.000 O
BRANCH 38 42
ATOM     39  C1  IDS C   3     148.717  39.344  47.8240  0.00  0.00     0.000 C
ATOM     40  C2  IDS C   3     150.120  39.565  47.2360  0.00  0.00     0.000 C
ATOM     41  C3  IDS C   3     150.233  40.938  46.5750  0.00  0.00     0.000 C
ATOM     42  C4  IDS C   3     149.692  42.033  47.4840  0.00  0.00     0.000 C
ATOM     43  C5  IDS C   3     148.283  41.663  47.9620  0.00  0.00     0.000 C
ATOM     44  O5  IDS C   3     148.338  40.422  48.6630  0.00  0.00     0.000 O
ATOM     45   O  IDS C   3     149.508  40.931  45.3440  0.00  0.00     0.000 O
ATOM     47  HD  IDS C   3     148.693  40.746  45.1140  0.00  0.00     0.000 HD
BRANCH 40 47
ATOM     47   O  IDS C   3     151.147  39.499  48.3030  0.00  0.00     0.000 O
ATOM     48   S  IDS C   3     152.269  38.360  48.2590  0.00  0.00     0.000 S
ATOM     49   O  IDS C   3     151.620  37.146  48.7070  0.00  0.00     0.000 OA
ATOM     50   O  IDS C   3     153.299  38.805  49.1700  0.00  0.00     0.000 OA
ATOM     51   O  IDS C   3     152.715  38.282  46.8940  0.00  0.00     0.000 OA
ENDBRANCH 40 47
BRANCH 43 52
ATOM     52   C  IDS C   3     147.668  42.722  48.8500  0.00  0.00     0.000 C
ATOM     53   O  IDS C   3     147.258  42.424  49.9480  0.00  0.00     0.000 OA
ATOM     54   O  IDS C   3     147.591  43.859  48.4590  0.00  0.00     0.000 OA
ENDBRANCH 43 52
BRANCH 39 55
ATOM     55  O4  SGN C   4     147.706  38.808  47.1400  0.00  0.00     0.000 O
BRANCH 55 59
ATOM     56  C1  SGN C   4     146.022  35.685  44.9220  0.00  0.00     0.000 C
ATOM     57  C2  SGN C   4     146.928  35.283  46.0990  0.00  0.00     0.000 C
ATOM     58  C3  SGN C   4     147.146  36.463  47.0420  0.00  0.00     0.000 C
ATOM     59  C4  SGN C   4     147.607  37.692  46.2670  0.00  0.00     0.000 C
ATOM     60  C5  SGN C   4     146.595  37.983  45.1610  0.00  0.00     0.000 C
ATOM     61  O5  SGN C   4     146.542  36.841  44.2840  0.00  0.00     0.000 O
ATOM     62   O  SGN C   4     148.101  36.108  48.0340  0.00  0.00     0.000 O
ATOM     64  HD  SGN C   4     147.727  35.358  47.8140  0.00  0.00     0.000 HD
BRANCH 57 66
ATOM     64   N  SGN C   4     147.353  33.949  45.6460  0.00  0.00     0.000 N
ATOM     66  HD  SGN C   4     147.757  33.268  45.9980  0.00  0.00     0.000 HD
ATOM     66   S  SGN C   4     146.909  32.640  46.4440  0.00  0.00     0.000 S
ATOM     67   O  SGN C   4     147.518  31.528  45.8100  0.00  0.00     0.000 OA
ATOM     68   O  SGN C   4     147.165  32.886  47.8210  0.00  0.00     0.000 OA
ATOM     69   O  SGN C   4     145.363  32.580  46.2260  0.00  0.00     0.000 OA
ENDBRANCH 57 66
BRANCH 60 70
ATOM     70   C  SGN C   4     146.938  39.195  44.3220  0.00  0.00     0.000 C
ATOM     71   O  SGN C   4     144.831  42.262  43.8200  0.00  0.00     0.000 OA
ATOM     72   O  SGN C   4     146.740  42.009  45.2830  0.00  0.00     0.000 OA
ATOM     73   O  SGN C   4     145.799  40.069  44.2070  0.00  0.00     0.000 O
ATOM     74   S  SGN C   4     146.110  41.628  44.0380  0.00  0.00     0.000 S
ATOM     75   O  SGN C   4     146.997  41.708  42.8950  0.00  0.00     0.000 OA
ENDBRANCH 60 70
BRANCH 56 76
ATOM     76  O4  IDS C   5     144.703  35.636  44.6630  0.00  0.00     0.000 O
BRANCH 76 80
ATOM     77  C1  IDS C   5     140.736  35.003  43.9410  0.00  0.00     0.000 C
ATOM     78  C2  IDS C   5     141.621  33.773  43.7440  0.00  0.00     0.000 C
ATOM     79  C3  IDS C   5     142.951  33.979  44.4410  0.00  0.00     0.000 C
ATOM     80  C4  IDS C   5     143.712  35.115  43.7650  0.00  0.00     0.000 C
ATOM     81  C5  IDS C   5     142.723  36.218  43.3580  0.00  0.00     0.000 C
ATOM     82  O5  IDS C   5     141.544  36.158  44.1660  0.00  0.00     0.000 O
BRANCH 78 83
ATOM     83   O  IDS C   5     140.975  32.567  44.3130  0.00  0.00     0.000 O
ATOM     84   S  IDS C   5     140.986  31.199  43.4910  0.00  0.00     0.000 S
ATOM     85   O  IDS C   5     140.555  31.534  42.1600  0.00  0.00     0.000 OA
ATOM     86   O  IDS C   5     142.353  30.736  43.5450  0.00  0.00     0.000 OA
ATOM     87   O  IDS C   5     140.073  30.321  44.1820  0.00  0.00     0.000 OA
ENDBRANCH 78 83
BRANCH 81 88
ATOM     88   C  IDS C   5     143.286  37.623  43.4740  0.00  0.00     0.000 C
ATOM     89   O  IDS C   5     143.983  38.063  42.5990  0.00  0.00     0.000 OA
ATOM     90   O  IDS C   5     143.029  38.293  44.4480  0.00  0.00     0.000 OA
ENDBRANCH 81 88
ENDBRANCH 76 80
ENDBRANCH 56 76
ENDBRANCH 55 59
ENDBRANCH 39 55
ENDBRANCH 38 42
ENDBRANCH 18 38
ENDBRANCH 17 21
ENDBRANCH 1 17
TORSDOF 18
ENDMDL
MODEL 12
REMARK VINA RESULT:      -7.2      4.958      7.760
ROOT
ATOM      1  C1  IDS C   1     159.652  35.425  47.8080  0.00  0.00     0.000 C
ATOM      2  C2  IDS C   1     160.054  33.951  47.9100  0.00  0.00     0.000 C
ATOM      3  C3  IDS C   1     161.434  33.725  47.3100  0.00  0.00     0.000 C
ATOM      4  C4  IDS C   1     161.461  34.153  45.8490  0.00  0.00     0.000 C
ATOM      5  C5  IDS C   1     160.646  35.429  45.6630  0.00  0.00     0.000 C
ATOM      6  O5  IDS C   1     160.512  36.113  46.9090  0.00  0.00     0.000 O
ATOM      7   O  IDS C   1     161.790  32.339  47.4210  0.00  0.00     0.000 O
ATOM      9  HD  IDS C   1     161.482  32.039  48.1730  0.00  0.00     0.000 HD
ENDROOT
BRANCH 2 9
ATOM      9   O  IDS C   1     160.105  33.515  49.3240  0.00  0.00     0.000 O
ATOM     10   S  IDS C   1     159.292  32.220  49.7750  0.00  0.00     0.000 S
ATOM     11   O  IDS C   1     159.556  32.057  51.1870  0.00  0.00     0.000 OA
ATOM     12   O  IDS C   1     157.902  32.514  49.4910  0.00  0.00     0.000 OA
ATOM     13   O  IDS C   1     159.811  31.131  48.9780  0.00  0.00     0.000 OA
ENDBRANCH 2 9
BRANCH 5 14
ATOM     14   C  IDS C   1     161.284  36.375  44.6600  0.00  0.00     0.000 C
ATOM     15   O  IDS C   1     161.850  35.924  43.6940  0.00  0.00     0.000 OA
ATOM     16   O  IDS C   1     161.221  37.579  44.8400  0.00  0.00     0.000 OA
ENDBRANCH 5 14
BRANCH 1 17
ATOM     17  O4  SGN C   2     159.063  36.089  48.8070  0.00  0.00     0.000 O
BRANCH 17 21
ATOM     18  C1  SGN C   2     158.887  38.688  52.0850  0.00  0.00     0.000 C
ATOM     19  C2  SGN C   2     160.097  38.837  51.1540  0.00  0.00     0.000 C
ATOM     20  C3  SGN C   2     159.812  38.144  49.8160  0.00  0.00     0.000 C
ATOM     21  C4  SGN C   2     159.388  36.699  50.0530  0.00  0.00     0.000 C
ATOM     22  C5  SGN C   2     158.180  36.682  50.9850  0.00  0.00     0.000 C
ATOM     23  O5  SGN C   2     158.514  37.333  52.2320  0.00  0.00     0.000 O
ATOM     24   O  SGN C   2     160.959  38.206  48.9860  0.00  0.00     0.000 O
ATOM     26  HD  SGN C   2     160.116  38.245  49.1780  0.00  0.00     0.000 HD
BRANCH 19 28
ATOM     26   N  SGN C   2     160.642  40.137  51.5710  0.00  0.00     0.000 N
ATOM     28  HD  SGN C   2     160.474  39.734  52.3190  0.00  0.00     0.000 HD
ATOM     28   O  SGN C   2     162.198  42.039  51.1410  0.00  0.00     0.000 OA
ATOM     29   S  SGN C   2     162.202  40.499  51.4280  0.00  0.00     0.000 S
ATOM     30   O  SGN C   2     162.808  40.275  52.6840  0.00  0.00     0.000 OA
ATOM     31   O  SGN C   2     162.698  39.825  50.2780  0.00  0.00     0.000 OA
ENDBRANCH 19 28
BRANCH 22 32
ATOM     32   C  SGN C   2     157.713  35.289  51.3340  0.00  0.00     0.000 C
ATOM     33   S  SGN C   2     156.156  34.135  53.0330  0.00  0.00     0.000 S
ATOM     34   O  SGN C   2     157.117  34.258  54.1000  0.00  0.00     0.000 OA
ATOM     35   O  SGN C   2     154.788  34.350  53.4550  0.00  0.00     0.000 OA
ATOM     36   O  SGN C   2     156.328  32.955  52.2190  0.00  0.00     0.000 OA
ATOM     37   O  SGN C   2     156.483  35.362  52.0650  0.00  0.00     0.000 O
ENDBRANCH 22 32
BRANCH 18 38
ATOM     38  O4  IDS C   3     157.727  39.347  52.1030  0.00  0.00     0.000 O
BRANCH 38 42
ATOM     39  C1  IDS C   3     155.340  41.807  51.4880  0.00  0.00     0.000 C
ATOM     40  C2  IDS C   3     156.806  42.178  51.7630  0.00  0.00     0.000 C
ATOM     41  C3  IDS C   3     157.309  41.525  53.0510  0.00  0.00     0.000 C
ATOM     42  C4  IDS C   3     156.959  40.044  53.0900  0.00  0.00     0.000 C
ATOM     43  C5  IDS C   3     155.461  39.856  52.8160  0.00  0.00     0.000 C
ATOM     44  O5  IDS C   3     155.149  40.403  51.5360  0.00  0.00     0.000 O
ATOM     45   O  IDS C   3     156.728  42.188  54.1750  0.00  0.00     0.000 O
ATOM     47  HD  IDS C   3     155.920  42.366  54.4310  0.00  0.00     0.000 HD
BRANCH 40 47
ATOM     47   O  IDS C   3     157.677  41.711  50.6590  0.00  0.00     0.000 O
ATOM     48   S  IDS C   3     158.637  42.748  49.9090  0.00  0.00     0.000 S
ATOM     49   O  IDS C   3     157.785  43.504  49.0160  0.00  0.00     0.000 OA
ATOM     50   O  IDS C   3     159.598  41.933  49.1990  0.00  0.00     0.000 OA
ATOM     51   O  IDS C   3     159.233  43.563  50.9340  0.00  0.00     0.000 OA
ENDBRANCH 40 47
BRANCH 43 52
ATOM     52   C  IDS C   3     155.033  38.406  52.8670  0.00  0.00     0.000 C
ATOM     53   O  IDS C   3     154.387  37.936  51.9600  0.00  0.00     0.000 OA
ATOM     54   O  IDS C   3     155.340  37.726  53.8130  0.00  0.00     0.000 OA
ENDBRANCH 43 52
BRANCH 39 55
ATOM     55  O4  SGN C   4     154.303  42.511  51.9410  0.00  0.00     0.000 O
BRANCH 55 59
ATOM     56  C1  SGN C   4     150.527  44.266  51.5260  0.00  0.00     0.000 C
ATOM     57  C2  SGN C   4     150.610  42.748  51.2900  0.00  0.00     0.000 C
ATOM     58  C3  SGN C   4     151.914  42.183  51.8480  0.00  0.00     0.000 C
ATOM     59  C4  SGN C   4     153.107  42.980  51.3330  0.00  0.00     0.000 C
ATOM     60  C5  SGN C   4     152.895  44.455  51.6700  0.00  0.00     0.000 C
ATOM     61  O5  SGN C   4     151.690  44.899  51.0160  0.00  0.00     0.000 O
ATOM     62   O  SGN C   4     152.032  40.814  51.4870  0.00  0.00     0.000 O
ATOM     64  HD  SGN C   4     151.178  40.955  51.5220  0.00  0.00     0.000 HD
BRANCH 57 66
ATOM     64   N  SGN C   4     149.402  42.123  51.8550  0.00  0.00     0.000 N
ATOM     66  HD  SGN C   4     148.551  42.280  51.8370  0.00  0.00     0.000 HD
ATOM     66   S  SGN C   4     148.182  41.717  50.9110  0.00  0.00     0.000 S
ATOM     67   O  SGN C   4     147.155  41.203  51.7420  0.00  0.00     0.000 OA
ATOM     68   O  SGN C   4     147.911  42.835  50.0760  0.00  0.00     0.000 OA
ATOM     69   O  SGN C   4     148.762  40.564  50.0310  0.00  0.00     0.000 OA
ENDBRANCH 57 66
BRANCH 60 70
ATOM     70   C  SGN C   4     154.025  45.353  51.2160  0.00  0.00     0.000 C
ATOM     71   O  SGN C   4     156.046  47.690  53.3520  0.00  0.00     0.000 OA
ATOM     72   O  SGN C   4     156.686  45.501  52.5480  0.00  0.00     0.000 OA
ATOM     73   O  SGN C   4     154.413  46.250  52.2750  0.00  0.00     0.000 O
ATOM     74   S  SGN C   4     155.943  46.714  52.2920  0.00  0.00     0.000 S
ATOM     75   O  SGN C   4     156.178  47.266  50.9730  0.00  0.00     0.000 OA
ENDBRANCH 60 70
BRANCH 56 76
ATOM     76  O4  IDS C   5     150.013  45.065  52.4780  0.00  0.00     0.000 O
BRANCH 76 80
ATOM     77  C1  IDS C   5     152.320  46.200  55.6480  0.00  0.00     0.000 C
ATOM     78  C2  IDS C   5     151.422  44.993  55.9170  0.00  0.00     0.000 C
ATOM     79  C3  IDS C   5     150.959  44.393  54.6040  0.00  0.00     0.000 C
ATOM     80  C4  IDS C   5     150.061  45.389  53.8760  0.00  0.00     0.000 C
ATOM     81  C5  IDS C   5     150.609  46.809  54.0780  0.00  0.00     0.000 C
ATOM     82  O5  IDS C   5     152.007  46.771  54.3770  0.00  0.00     0.000 O
BRANCH 78 83
ATOM     83   O  IDS C   5     152.155  43.952  56.6750  0.00  0.00     0.000 O
ATOM     84   S  IDS C   5     151.666  43.544  58.1370  0.00  0.00     0.000 S
ATOM     85   O  IDS C   5     151.478  44.778  58.8510  0.00  0.00     0.000 OA
ATOM     86   O  IDS C   5     150.438  42.812  57.9350  0.00  0.00     0.000 OA
ATOM     87   O  IDS C   5     152.719  42.724  58.6860  0.00  0.00     0.000 OA
ENDBRANCH 78 83
BRANCH 81 88
ATOM     88   C  IDS C   5     150.423  47.718  52.8760  0.00  0.00     0.000 C
ATOM     89   O  IDS C   5     149.334  48.157  52.6200  0.00  0.00     0.000 OA
ATOM     90   O  IDS C   5     151.375  47.995  52.1830  0.00  0.00     0.000 OA
ENDBRANCH 81 88
ENDBRANCH 76 80
ENDBRANCH 56 76
ENDBRANCH 55 59
ENDBRANCH 39 55
ENDBRANCH 38 42
ENDBRANCH 18 38
ENDBRANCH 17 21
ENDBRANCH 1 17
TORSDOF 18
ENDMDL
MODEL 13
REMARK VINA RESULT:      -7.2     13.233     20.902
ROOT
ATOM      1  C1  IDS C   1     140.316  34.467  44.4790  0.00  0.00     0.000 C
ATOM      2  C2  IDS C   1     141.692  34.301  43.8280  0.00  0.00     0.000 C
ATOM      3  C3  IDS C   1     142.798  34.414  44.8670  0.00  0.00     0.000 C
ATOM      4  C4  IDS C   1     142.736  35.762  45.5730  0.00  0.00     0.000 C
ATOM      5  C5  IDS C   1     141.283  36.155  45.8230  0.00  0.00     0.000 C
ATOM      6  O5  IDS C   1     140.449  34.997  45.7920  0.00  0.00     0.000 O
ATOM      7   O  IDS C   1     144.075  34.250  44.2350  0.00  0.00     0.000 O
ATOM      9  HD  IDS C   1     143.995  33.659  43.6080  0.00  0.00     0.000 HD
ENDROOT
BRANCH 2 9
ATOM      9   O  IDS C   1     141.815  32.971  43.1880  0.00  0.00     0.000 O
ATOM     10   S  IDS C   1     142.159  32.879  41.6340  0.00  0.00     0.000 S
ATOM     11   O  IDS C   1     142.222  31.467  41.3250  0.00  0.00     0.000 OA
ATOM     12   O  IDS C   1     141.076  33.558  40.9530  0.00  0.00     0.000 OA
ATOM     13   O  IDS C   1     143.433  33.546  41.4720  0.00  0.00     0.000 OA
ENDBRANCH 2 9
BRANCH 5 14
ATOM     14   C  IDS C   1     141.099  36.844  47.1640  0.00  0.00     0.000 C
ATOM     15   O  IDS C   1     140.166  36.539  47.8660  0.00  0.00     0.000 OA
ATOM     16   O  IDS C   1     141.892  37.700  47.5190  0.00  0.00     0.000 OA
ENDBRANCH 5 14
BRANCH 1 17
ATOM     17  O4  SGN C   2     139.268  33.696  44.1740  0.00  0.00     0.000 O
BRANCH 17 21
ATOM     18  C1  SGN C   2     136.439  30.710  44.9540  0.00  0.00     0.000 C
ATOM     19  C2  SGN C   2     137.284  31.184  46.1440  0.00  0.00     0.000 C
ATOM     20  C3  SGN C   2     137.943  32.528  45.8110  0.00  0.00     0.000 C
ATOM     21  C4  SGN C   2     138.718  32.423  44.5030  0.00  0.00     0.000 C
ATOM     22  C5  SGN C   2     137.774  31.950  43.4010  0.00  0.00     0.000 C
ATOM     23  O5  SGN C   2     137.198  30.674  43.7640  0.00  0.00     0.000 O
ATOM     24   O  SGN C   2     138.793  32.925  46.8740  0.00  0.00     0.000 O
ATOM     26  HD  SGN C   2     138.202  33.028  46.2490  0.00  0.00     0.000 HD
BRANCH 19 28
ATOM     26   N  SGN C   2     136.426  31.116  47.3350  0.00  0.00     0.000 N
ATOM     28  HD  SGN C   2     135.881  30.963  46.6790  0.00  0.00     0.000 HD
ATOM     28   O  SGN C   2     136.160  30.543  49.7480  0.00  0.00     0.000 OA
ATOM     29   S  SGN C   2     136.480  29.883  48.3640  0.00  0.00     0.000 S
ATOM     30   O  SGN C   2     135.427  29.002  48.0300  0.00  0.00     0.000 OA
ATOM     31   O  SGN C   2     137.818  29.401  48.3910  0.00  0.00     0.000 OA
ENDBRANCH 19 28
BRANCH 22 32
ATOM     32   C  SGN C   2     138.458  31.756  42.0690  0.00  0.00     0.000 C
ATOM     33   S  SGN C   2     138.180  30.336  39.9370  0.00  0.00     0.000 S
ATOM     34   O  SGN C   2     138.715  29.157  40.5700  0.00  0.00     0.000 OA
ATOM     35   O  SGN C   2     137.074  30.064  39.0430  0.00  0.00     0.000 OA
ATOM     36   O  SGN C   2     139.183  31.203  39.3640  0.00  0.00     0.000 OA
ATOM     37   O  SGN C   2     137.541  31.171  41.1380  0.00  0.00     0.000 O
ENDBRANCH 22 32
BRANCH 18 38
ATOM     38  O4  IDS C   3     135.225  31.093  44.5530  0.00  0.00     0.000 O
BRANCH 38 42
ATOM     39  C1  IDS C   3     132.376  32.841  43.5740  0.00  0.00     0.000 C
ATOM     40  C2  IDS C   3     133.105  33.184  44.8830  0.00  0.00     0.000 C
ATOM     41  C3  IDS C   3     133.308  31.939  45.7460  0.00  0.00     0.000 C
ATOM     42  C4  IDS C   3     133.877  30.788  44.9280  0.00  0.00     0.000 C
ATOM     43  C5  IDS C   3     133.023  30.570  43.6730  0.00  0.00     0.000 C
ATOM     44  O5  IDS C   3     133.013  31.768  42.9000  0.00  0.00     0.000 O
ATOM     45   O  IDS C   3     132.057  31.551  46.3180  0.00  0.00     0.000 O
ATOM     47  HD  IDS C   3     131.273  31.361  46.0030  0.00  0.00     0.000 HD
BRANCH 40 47
ATOM     47   O  IDS C   3     134.445  33.751  44.5990  0.00  0.00     0.000 O
ATOM     48   S  IDS C   3     134.595  35.309  44.2680  0.00  0.00     0.000 S
ATOM     49   O  IDS C   3     134.157  35.468  42.8980  0.00  0.00     0.000 OA
ATOM     50   O  IDS C   3     136.002  35.599  44.4370  0.00  0.00     0.000 OA
ATOM     51   O  IDS C   3     133.757  36.007  45.2060  0.00  0.00     0.000 OA
ENDBRANCH 40 47
BRANCH 43 52
ATOM     52   C  IDS C   3     133.514  29.420  42.8230  0.00  0.00     0.000 C
ATOM     53   O  IDS C   3     134.086  29.642  41.7800  0.00  0.00     0.000 OA
ATOM     54   O  IDS C   3     133.333  28.286  43.1880  0.00  0.00     0.000 OA
ENDBRANCH 43 52
BRANCH 39 55
ATOM     55  O4  SGN C   4     131.050  32.853  43.4420  0.00  0.00     0.000 O
BRANCH 55 59
ATOM     56  C1  SGN C   4     129.459  36.621  42.5620  0.00  0.00     0.000 C
ATOM     57  C2  SGN C   4     129.430  36.190  44.0380  0.00  0.00     0.000 C
ATOM     58  C3  SGN C   4     130.371  35.013  44.2770  0.00  0.00     0.000 C
ATOM     59  C4  SGN C   4     130.100  33.896  43.2760  0.00  0.00     0.000 C
ATOM     60  C5  SGN C   4     130.197  34.469  41.8630  0.00  0.00     0.000 C
ATOM     61  O5  SGN C   4     129.203  35.504  41.7260  0.00  0.00     0.000 O
ATOM     62   O  SGN C   4     130.214  34.541  45.6090  0.00  0.00     0.000 O
ATOM     64  HD  SGN C   4     130.008  35.381  45.6510  0.00  0.00     0.000 HD
BRANCH 57 66
ATOM     64   N  SGN C   4     128.737  36.622  45.2630  0.00  0.00     0.000 N
ATOM     66  HD  SGN C   4     128.914  37.145  45.9300  0.00  0.00     0.000 HD
ATOM     66   S  SGN C   4     128.548  38.174  45.5840  0.00  0.00     0.000 S
ATOM     67   O  SGN C   4     127.908  38.272  46.8450  0.00  0.00     0.000 OA
ATOM     68   O  SGN C   4     129.812  38.796  45.3920  0.00  0.00     0.000 OA
ATOM     69   O  SGN C   4     127.572  38.667  44.4680  0.00  0.00     0.000 OA
ENDBRANCH 57 66
BRANCH 60 70
ATOM     70   C  SGN C   4     129.955  33.448  40.7720  0.00  0.00     0.000 C
ATOM     71   O  SGN C   4     132.488  31.129  39.2520  0.00  0.00     0.000 OA
ATOM     72   O  SGN C   4     130.820  30.600  40.9210  0.00  0.00     0.000 OA
ATOM     73   O  SGN C   4     131.204  32.899  40.3100  0.00  0.00     0.000 O
ATOM     74   S  SGN C   4     131.164  31.396  39.7650  0.00  0.00     0.000 S
ATOM     75   O  SGN C   4     130.138  31.400  38.7410  0.00  0.00     0.000 OA
ENDBRANCH 60 70
BRANCH 56 76
ATOM     76  O4  IDS C   5     130.145  37.524  41.8360  0.00  0.00     0.000 O
BRANCH 76 80
ATOM     77  C1  IDS C   5     132.867  39.406  39.4480  0.00  0.00     0.000 C
ATOM     78  C2  IDS C   5     133.474  38.429  40.4540  0.00  0.00     0.000 C
ATOM     79  C3  IDS C   5     132.404  37.485  40.9650  0.00  0.00     0.000 C
ATOM     80  C4  IDS C   5     131.369  38.270  41.7640  0.00  0.00     0.000 C
ATOM     81  C5  IDS C   5     131.129  39.629  41.0900  0.00  0.00     0.000 C
ATOM     82  O5  IDS C   5     131.471  39.568  39.7020  0.00  0.00     0.000 O
BRANCH 78 83
ATOM     83   O  IDS C   5     134.546  37.625  39.8230  0.00  0.00     0.000 O
ATOM     84   S  IDS C   5     136.075  37.953  40.1390  0.00  0.00     0.000 S
ATOM     85   O  IDS C   5     136.218  39.374  39.9690  0.00  0.00     0.000 OA
ATOM     86   O  IDS C   5     136.281  37.521  41.5010  0.00  0.00     0.000 OA
ATOM     87   O  IDS C   5     136.844  37.186  39.1900  0.00  0.00     0.000 OA
ENDBRANCH 78 83
BRANCH 81 88
ATOM     88   C  IDS C   5     129.696  40.120  41.1860  0.00  0.00     0.000 C
ATOM     89   O  IDS C   5     128.986  40.090  40.2160  0.00  0.00     0.000 OA
ATOM     90   O  IDS C   5     129.276  40.538  42.2410  0.00  0.00     0.000 OA
ENDBRANCH 81 88
ENDBRANCH 76 80
ENDBRANCH 56 76
ENDBRANCH 55 59
ENDBRANCH 39 55
ENDBRANCH 38 42
ENDBRANCH 18 38
ENDBRANCH 17 21
ENDBRANCH 1 17
TORSDOF 18
ENDMDL
MODEL 14
REMARK VINA RESULT:      -7.2      6.744     13.539
ROOT
ATOM      1  C1  IDS C   1     150.197  36.576  43.6210  0.00  0.00     0.000 C
ATOM      2  C2  IDS C   1     150.862  37.120  44.8890  0.00  0.00     0.000 C
ATOM      3  C3  IDS C   1     151.612  38.412  44.5940  0.00  0.00     0.000 C
ATOM      4  C4  IDS C   1     152.674  38.184  43.5280  0.00  0.00     0.000 C
ATOM      5  C5  IDS C   1     152.145  37.239  42.4540  0.00  0.00     0.000 C
ATOM      6  O5  IDS C   1     150.717  37.229  42.4700  0.00  0.00     0.000 O
ATOM      7   O  IDS C   1     152.222  38.903  45.7960  0.00  0.00     0.000 O
ATOM      9  HD  IDS C   1     151.689  38.738  46.4590  0.00  0.00     0.000 HD
ENDROOT
BRANCH 2 9
ATOM      9   O  IDS C   1     149.851  37.419  45.9280  0.00  0.00     0.000 O
ATOM     10   S  IDS C   1     149.964  36.717  47.3550  0.00  0.00     0.000 S
ATOM     11   O  IDS C   1     148.854  37.220  48.1330  0.00  0.00     0.000 OA
ATOM     12   O  IDS C   1     149.873  35.294  47.0980  0.00  0.00     0.000 OA
ATOM     13   O  IDS C   1     151.248  37.112  47.8900  0.00  0.00     0.000 OA
ENDBRANCH 2 9
BRANCH 5 14
ATOM     14   C  IDS C   1     152.608  37.634  41.0630  0.00  0.00     0.000 C
ATOM     15   O  IDS C   1     153.782  37.574  40.7890  0.00  0.00     0.000 OA
ATOM     16   O  IDS C   1     151.793  38.009  40.2370  0.00  0.00     0.000 OA
ENDBRANCH 5 14
BRANCH 1 17
ATOM     17  O4  SGN C   2     148.956  36.084  43.6050  0.00  0.00     0.000 O
BRANCH 17 21
ATOM     18  C1  SGN C   2     144.789  36.381  43.3330  0.00  0.00     0.000 C
ATOM     19  C2  SGN C   2     145.592  37.636  42.9680  0.00  0.00     0.000 C
ATOM     20  C3  SGN C   2     147.055  37.257  42.7050  0.00  0.00     0.000 C
ATOM     21  C4  SGN C   2     147.618  36.484  43.8920  0.00  0.00     0.000 C
ATOM     22  C5  SGN C   2     146.741  35.263  44.1530  0.00  0.00     0.000 C
ATOM     23  O5  SGN C   2     145.381  35.684  44.4090  0.00  0.00     0.000 O
ATOM     24   O  SGN C   2     147.817  38.426  42.4530  0.00  0.00     0.000 O
ATOM     26  HD  SGN C   2     147.556  37.608  42.3370  0.00  0.00     0.000 HD
BRANCH 19 28
ATOM     26   N  SGN C   2     144.918  38.897  42.6320  0.00  0.00     0.000 N
ATOM     28  HD  SGN C   2     145.366  39.088  43.3480  0.00  0.00     0.000 HD
ATOM     28   O  SGN C   2     144.031  40.448  40.8910  0.00  0.00     0.000 OA
ATOM     29   S  SGN C   2     145.372  39.808  41.3860  0.00  0.00     0.000 S
ATOM     30   O  SGN C   2     146.203  40.833  41.8900  0.00  0.00     0.000 OA
ATOM     31   O  SGN C   2     145.862  38.940  40.3730  0.00  0.00     0.000 OA
ENDBRANCH 19 28
BRANCH 22 32
ATOM     32   C  SGN C   2     147.180  34.456  45.3500  0.00  0.00     0.000 C
ATOM     33   S  SGN C   2     147.288  31.989  46.0900  0.00  0.00     0.000 S
ATOM     34   O  SGN C   2     145.874  31.939  46.3660  0.00  0.00     0.000 OA
ATOM     35   O  SGN C   2     147.806  30.778  45.4900  0.00  0.00     0.000 OA
ATOM     36   O  SGN C   2     148.087  32.472  47.1920  0.00  0.00     0.000 OA
ATOM     37   O  SGN C   2     147.427  33.102  44.9530  0.00  0.00     0.000 O
ENDBRANCH 22 32
BRANCH 18 38
ATOM     38  O4  IDS C   3     144.296  35.416  42.5540  0.00  0.00     0.000 O
BRANCH 38 42
ATOM     39  C1  IDS C   3     141.754  33.061  42.2090  0.00  0.00     0.000 C
ATOM     40  C2  IDS C   3     142.299  33.440  43.5950  0.00  0.00     0.000 C
ATOM     41  C3  IDS C   3     143.822  33.317  43.6420  0.00  0.00     0.000 C
ATOM     42  C4  IDS C   3     144.467  33.999  42.4440  0.00  0.00     0.000 C
ATOM     43  C5  IDS C   3     143.821  33.493  41.1480  0.00  0.00     0.000 C
ATOM     44  O5  IDS C   3     142.423  33.775  41.1830  0.00  0.00     0.000 O
ATOM     45   O  IDS C   3     144.184  31.935  43.6640  0.00  0.00     0.000 O
ATOM     47  HD  IDS C   3     144.017  31.251  43.1610  0.00  0.00     0.000 HD
BRANCH 40 47
ATOM     47   O  IDS C   3     141.956  34.845  43.9230  0.00  0.00     0.000 O
ATOM     48   S  IDS C   3     141.328  35.198  45.3500  0.00  0.00     0.000 S
ATOM     49   O  IDS C   3     139.939  34.797  45.2830  0.00  0.00     0.000 OA
ATOM     50   O  IDS C   3     141.485  36.629  45.4920  0.00  0.00     0.000 OA
ATOM     51   O  IDS C   3     142.078  34.447  46.3220  0.00  0.00     0.000 OA
ENDBRANCH 40 47
BRANCH 43 52
ATOM     52   C  IDS C   3     144.433  34.108  39.9090  0.00  0.00     0.000 C
ATOM     53   O  IDS C   3     143.732  34.699  39.1210  0.00  0.00     0.000 OA
ATOM     54   O  IDS C   3     145.617  34.005  39.7140  0.00  0.00     0.000 OA
ENDBRANCH 43 52
BRANCH 39 55
ATOM     55  O4  SGN C   4     141.403  31.821  41.8670  0.00  0.00     0.000 O
BRANCH 55 59
ATOM     56  C1  SGN C   4     137.830  30.563  43.6440  0.00  0.00     0.000 C
ATOM     57  C2  SGN C   4     139.125  29.930  44.1810  0.00  0.00     0.000 C
ATOM     58  C3  SGN C   4     140.344  30.740  43.7470  0.00  0.00     0.000 C
ATOM     59  C4  SGN C   4     140.321  30.980  42.2420  0.00  0.00     0.000 C
ATOM     60  C5  SGN C   4     138.995  31.639  41.8700  0.00  0.00     0.000 C
ATOM     61  O5  SGN C   4     137.926  30.747  42.2410  0.00  0.00     0.000 O
ATOM     62   O  SGN C   4     141.530  30.056  44.1280  0.00  0.00     0.000 O
ATOM     64  HD  SGN C   4     140.940  29.807  44.7110  0.00  0.00     0.000 HD
BRANCH 57 66
ATOM     64   N  SGN C   4     138.272  28.917  44.8220  0.00  0.00     0.000 N
ATOM     66  HD  SGN C   4     138.389  28.139  45.1840  0.00  0.00     0.000 HD
ATOM     66   S  SGN C   4     138.615  28.372  46.2820  0.00  0.00     0.000 S
ATOM     67   O  SGN C   4     137.660  27.374  46.5990  0.00  0.00     0.000 OA
ATOM     68   O  SGN C   4     139.999  28.043  46.2890  0.00  0.00     0.000 OA
ATOM     69   O  SGN C   4     138.393  29.614  47.2040  0.00  0.00     0.000 OA
ENDBRANCH 57 66
BRANCH 60 70
ATOM     70   C  SGN C   4     138.855  31.939  40.3930  0.00  0.00     0.000 C
ATOM     71   O  SGN C   4     137.946  29.511  37.6750  0.00  0.00     0.000 OA
ATOM     72   O  SGN C   4     136.509  31.141  38.7370  0.00  0.00     0.000 OA
ATOM     73   O  SGN C   4     138.702  30.719  39.6430  0.00  0.00     0.000 O
ATOM     74   S  SGN C   4     137.846  30.812  38.2950  0.00  0.00     0.000 S
ATOM     75   O  SGN C   4     138.476  31.868  37.5280  0.00  0.00     0.000 OA
ENDBRANCH 60 70
BRANCH 56 76
ATOM     76  O4  IDS C   5     136.926  31.445  44.1090  0.00  0.00     0.000 O
BRANCH 76 80
ATOM     77  C1  IDS C   5     134.645  34.823  44.3230  0.00  0.00     0.000 C
ATOM     78  C2  IDS C   5     136.131  35.076  44.0690  0.00  0.00     0.000 C
ATOM     79  C3  IDS C   5     136.793  33.804  43.5770  0.00  0.00     0.000 C
ATOM     80  C4  IDS C   5     136.762  32.751  44.6810  0.00  0.00     0.000 C
ATOM     81  C5  IDS C   5     135.427  32.843  45.4340  0.00  0.00     0.000 C
ATOM     82  O5  IDS C   5     134.424  33.442  44.6080  0.00  0.00     0.000 O
BRANCH 78 83
ATOM     83   O  IDS C   5     136.316  36.128  43.0420  0.00  0.00     0.000 O
ATOM     84   S  IDS C   5     137.733  36.843  42.8860  0.00  0.00     0.000 S
ATOM     85   O  IDS C   5     138.130  37.230  44.2130  0.00  0.00     0.000 OA
ATOM     86   O  IDS C   5     138.599  35.844  42.3030  0.00  0.00     0.000 OA
ATOM     87   O  IDS C   5     137.509  37.965  42.0080  0.00  0.00     0.000 OA
ENDBRANCH 78 83
BRANCH 81 88
ATOM     88   C  IDS C   5     134.892  31.503  45.9050  0.00  0.00     0.000 C
ATOM     89   O  IDS C   5     135.397  30.955  46.8480  0.00  0.00     0.000 OA
ATOM     90   O  IDS C   5     133.958  30.995  45.3280  0.00  0.00     0.000 OA
ENDBRANCH 81 88
ENDBRANCH 76 80
ENDBRANCH 56 76
ENDBRANCH 55 59
ENDBRANCH 39 55
ENDBRANCH 38 42
ENDBRANCH 18 38
ENDBRANCH 17 21
ENDBRANCH 1 17
TORSDOF 18
ENDMDL
MODEL 15
REMARK VINA RESULT:      -7.2      8.473     15.675
ROOT
ATOM      1  C1  IDS C   1     146.563  36.186  45.5000  0.00  0.00     0.000 C
ATOM      2  C2  IDS C   1     147.966  36.668  45.1210  0.00  0.00     0.000 C
ATOM      3  C3  IDS C   1     148.934  35.498  45.0310  0.00  0.00     0.000 C
ATOM      4  C4  IDS C   1     149.001  34.752  46.3570  0.00  0.00     0.000 C
ATOM      5  C5  IDS C   1     147.611  34.667  46.9800  0.00  0.00     0.000 C
ATOM      6  O5  IDS C   1     146.611  34.847  45.9760  0.00  0.00     0.000 O
ATOM      7   O  IDS C   1     150.238  35.973  44.6700  0.00  0.00     0.000 O
ATOM      9  HD  IDS C   1     150.144  36.629  44.1120  0.00  0.00     0.000 HD
ENDROOT
BRANCH 2 9
ATOM      9   O  IDS C   1     147.953  37.340  43.8020  0.00  0.00     0.000 O
ATOM     10   S  IDS C   1     148.337  38.885  43.7050  0.00  0.00     0.000 S
ATOM     11   O  IDS C   1     148.244  39.229  42.3040  0.00  0.00     0.000 OA
ATOM     12   O  IDS C   1     147.363  39.579  44.5230  0.00  0.00     0.000 OA
ATOM     13   O  IDS C   1     149.684  38.990  44.2200  0.00  0.00     0.000 OA
ENDBRANCH 2 9
BRANCH 5 14
ATOM     14   C  IDS C   1     147.371  33.333  47.6650  0.00  0.00     0.000 C
ATOM     15   O  IDS C   1     147.855  33.128  48.7510  0.00  0.00     0.000 OA
ATOM     16   O  IDS C   1     146.694  32.482  47.1130  0.00  0.00     0.000 OA
ENDBRANCH 5 14
BRANCH 1 17
ATOM     17  O4  SGN C   2     145.453  36.647  44.9180  0.00  0.00     0.000 O
BRANCH 17 21
ATOM     18  C1  SGN C   2     142.508  36.283  41.9650  0.00  0.00     0.000 C
ATOM     19  C2  SGN C   2     143.680  35.296  41.8910  0.00  0.00     0.000 C
ATOM     20  C3  SGN C   2     144.421  35.269  43.2340  0.00  0.00     0.000 C
ATOM     21  C4  SGN C   2     144.825  36.682  43.6390  0.00  0.00     0.000 C
ATOM     22  C5  SGN C   2     143.579  37.563  43.6820  0.00  0.00     0.000 C
ATOM     23  O5  SGN C   2     142.935  37.561  42.3870  0.00  0.00     0.000 O
ATOM     24   O  SGN C   2     145.556  34.424  43.1410  0.00  0.00     0.000 O
ATOM     26  HD  SGN C   2     144.849  34.767  43.5060  0.00  0.00     0.000 HD
BRANCH 19 28
ATOM     26   N  SGN C   2     143.105  34.218  41.0760  0.00  0.00     0.000 N
ATOM     28  HD  SGN C   2     142.682  34.925  40.8100  0.00  0.00     0.000 HD
ATOM     28   O  SGN C   2     143.404  32.043  39.8900  0.00  0.00     0.000 OA
ATOM     29   S  SGN C   2     143.917  33.523  39.8740  0.00  0.00     0.000 S
ATOM     30   O  SGN C   2     143.500  34.133  38.6700  0.00  0.00     0.000 OA
ATOM     31   O  SGN C   2     145.295  33.529  40.2250  0.00  0.00     0.000 OA
ENDBRANCH 19 28
BRANCH 22 32
ATOM     32   C  SGN C   2     143.876  39.004  44.0180  0.00  0.00     0.000 C
ATOM     33   S  SGN C   2     144.066  41.276  42.8170  0.00  0.00     0.000 S
ATOM     34   O  SGN C   2     145.366  40.961  42.2790  0.00  0.00     0.000 OA
ATOM     35   O  SGN C   2     143.218  42.003  41.8960  0.00  0.00     0.000 OA
ATOM     36   O  SGN C   2     144.099  41.847  44.1420  0.00  0.00     0.000 OA
ATOM     37   O  SGN C   2     143.358  39.856  42.9900  0.00  0.00     0.000 O
ENDBRANCH 22 32
BRANCH 18 38
ATOM     38  O4  IDS C   3     141.300  36.146  42.5170  0.00  0.00     0.000 O
BRANCH 38 42
ATOM     39  C1  IDS C   3     137.990  35.454  43.3510  0.00  0.00     0.000 C
ATOM     40  C2  IDS C   3     138.530  36.893  43.3800  0.00  0.00     0.000 C
ATOM     41  C3  IDS C   3     139.807  36.988  44.2140  0.00  0.00     0.000 C
ATOM     42  C4  IDS C   3     140.796  35.894  43.8330  0.00  0.00     0.000 C
ATOM     43  C5  IDS C   3     140.101  34.528  43.8740  0.00  0.00     0.000 C
ATOM     44  O5  IDS C   3     139.000  34.537  42.9660  0.00  0.00     0.000 O
ATOM     45   O  IDS C   3     139.477  36.878  45.6000  0.00  0.00     0.000 O
ATOM     47  HD  IDS C   3     139.052  36.299  46.0840  0.00  0.00     0.000 HD
BRANCH 40 47
ATOM     47   O  IDS C   3     138.858  37.353  42.0100  0.00  0.00     0.000 O
ATOM     48   S  IDS C   3     137.681  37.697  40.9830  0.00  0.00     0.000 S
ATOM     49   O  IDS C   3     137.179  36.424  40.5140  0.00  0.00     0.000 OA
ATOM     50   O  IDS C   3     138.307  38.467  39.9310  0.00  0.00     0.000 OA
ATOM     51   O  IDS C   3     136.700  38.445  41.7240  0.00  0.00     0.000 OA
ENDBRANCH 40 47
BRANCH 43 52
ATOM     52   C  IDS C   3     141.032  33.386  43.5330  0.00  0.00     0.000 C
ATOM     53   O  IDS C   3     140.906  32.798  42.4830  0.00  0.00     0.000 OA
ATOM     54   O  IDS C   3     141.896  33.068  44.3090  0.00  0.00     0.000 OA
ENDBRANCH 43 52
BRANCH 39 55
ATOM     55  O4  SGN C   4     137.130  34.970  44.2470  0.00  0.00     0.000 O
BRANCH 55 59
ATOM     56  C1  SGN C   4     134.273  32.230  42.8910  0.00  0.00     0.000 C
ATOM     57  C2  SGN C   4     134.002  33.714  42.5870  0.00  0.00     0.000 C
ATOM     58  C3  SGN C   4     135.269  34.545  42.7710  0.00  0.00     0.000 C
ATOM     59  C4  SGN C   4     135.899  34.271  44.1320  0.00  0.00     0.000 C
ATOM     60  C5  SGN C   4     136.137  32.769  44.2700  0.00  0.00     0.000 C
ATOM     61  O5  SGN C   4     134.865  32.098  44.1740  0.00  0.00     0.000 O
ATOM     62   O  SGN C   4     134.958  35.924  42.6300  0.00  0.00     0.000 O
ATOM     64  HD  SGN C   4     134.369  35.518  42.1420  0.00  0.00     0.000 HD
BRANCH 57 66
ATOM     64   N  SGN C   4     133.423  33.911  41.2490  0.00  0.00     0.000 N
ATOM     66  HD  SGN C   4     132.838  33.506  40.7540  0.00  0.00     0.000 HD
ATOM     66   S  SGN C   4     131.841  33.984  41.0520  0.00  0.00     0.000 S
ATOM     67   O  SGN C   4     131.591  34.115  39.6630  0.00  0.00     0.000 OA
ATOM     68   O  SGN C   4     131.282  32.885  41.7610  0.00  0.00     0.000 OA
ATOM     69   O  SGN C   4     131.437  35.306  41.7790  0.00  0.00     0.000 OA
ENDBRANCH 57 66
BRANCH 60 70
ATOM     70   C  SGN C   4     136.771  32.370  45.5840  0.00  0.00     0.000 C
ATOM     71   O  SGN C   4     138.613  29.181  46.3230  0.00  0.00     0.000 OA
ATOM     72   O  SGN C   4     139.561  31.357  45.8590  0.00  0.00     0.000 OA
ATOM     73   O  SGN C   4     137.200  30.995  45.5410  0.00  0.00     0.000 O
ATOM     74   S  SGN C   4     138.466  30.613  46.4400  0.00  0.00     0.000 S
ATOM     75   O  SGN C   4     138.117  31.051  47.7770  0.00  0.00     0.000 OA
ENDBRANCH 60 70
BRANCH 56 76
ATOM     76  O4  IDS C   5     134.621  31.149  42.1700  0.00  0.00     0.000 O
BRANCH 76 80
ATOM     77  C1  IDS C   5     138.542  30.176  41.5870  0.00  0.00     0.000 C
ATOM     78  C2  IDS C   5     137.925  31.019  40.4710  0.00  0.00     0.000 C
ATOM     79  C3  IDS C   5     136.656  31.682  40.9690  0.00  0.00     0.000 C
ATOM     80  C4  IDS C   5     135.608  30.616  41.2730  0.00  0.00     0.000 C
ATOM     81  C5  IDS C   5     136.294  29.392  41.8980  0.00  0.00     0.000 C
ATOM     82  O5  IDS C   5     137.532  29.767  42.5090  0.00  0.00     0.000 O
BRANCH 78 83
ATOM     83   O  IDS C   5     138.865  32.077  40.0330  0.00  0.00     0.000 O
ATOM     84   S  IDS C   5     139.426  32.070  38.5390  0.00  0.00     0.000 S
ATOM     85   O  IDS C   5     139.882  30.728  38.2940  0.00  0.00     0.000 OA
ATOM     86   O  IDS C   5     138.304  32.448  37.7120  0.00  0.00     0.000 OA
ATOM     87   O  IDS C   5     140.487  33.047  38.5160  0.00  0.00     0.000 OA
ENDBRANCH 78 83
BRANCH 81 88
ATOM     88   C  IDS C   5     135.458  28.688  42.9510  0.00  0.00     0.000 C
ATOM     89   O  IDS C   5     135.820  28.683  44.0970  0.00  0.00     0.000 OA
ATOM     90   O  IDS C   5     134.430  28.137  42.6300  0.00  0.00     0.000 OA
ENDBRANCH 81 88
ENDBRANCH 76 80
ENDBRANCH 56 76
ENDBRANCH 55 59
ENDBRANCH 39 55
ENDBRANCH 38 42
ENDBRANCH 18 38
ENDBRANCH 17 21
ENDBRANCH 1 17
TORSDOF 18
ENDMDL
MODEL 16
REMARK VINA RESULT:      -7.2      8.470     15.863
ROOT
ATOM      1  C1  IDS C   1     147.057  34.115  35.3380  0.00  0.00     0.000 C
ATOM      2  C2  IDS C   1     147.575  35.004  34.2040  0.00  0.00     0.000 C
ATOM      3  C3  IDS C   1     148.023  34.162  33.0190  0.00  0.00     0.000 C
ATOM      4  C4  IDS C   1     149.119  33.190  33.4350  0.00  0.00     0.000 C
ATOM      5  C5  IDS C   1     148.820  32.627  34.8210  0.00  0.00     0.000 C
ATOM      6  O5  IDS C   1     147.429  32.761  35.1160  0.00  0.00     0.000 O
ATOM      7   O  IDS C   1     148.499  35.016  31.9690  0.00  0.00     0.000 O
ATOM      9  HD  IDS C   1     148.011  35.731  31.9570  0.00  0.00     0.000 HD
ENDROOT
BRANCH 2 9
ATOM      9   O  IDS C   1     146.514  35.919  33.7250  0.00  0.00     0.000 O
ATOM     10   S  IDS C   1     146.776  37.492  33.7250  0.00  0.00     0.000 S
ATOM     11   O  IDS C   1     145.573  38.095  33.1950  0.00  0.00     0.000 OA
ATOM     12   O  IDS C   1     147.023  37.846  35.1080  0.00  0.00     0.000 OA
ATOM     13   O  IDS C   1     147.929  37.700  32.8760  0.00  0.00     0.000 OA
ENDBRANCH 2 9
BRANCH 5 14
ATOM     14   C  IDS C   1     149.197  31.160  34.9370  0.00  0.00     0.000 C
ATOM     15   O  IDS C   1     148.331  30.320  34.9040  0.00  0.00     0.000 OA
ATOM     16   O  IDS C   1     150.367  30.844  35.0650  0.00  0.00     0.000 OA
ENDBRANCH 5 14
BRANCH 1 17
ATOM     17  O4  SGN C   2     145.955  34.398  36.0390  0.00  0.00     0.000 O
BRANCH 17 21
ATOM     18  C1  SGN C   2     142.005  33.722  37.2500  0.00  0.00     0.000 C
ATOM     19  C2  SGN C   2     142.662  32.623  36.4070  0.00  0.00     0.000 C
ATOM     20  C3  SGN C   2     144.185  32.807  36.4080  0.00  0.00     0.000 C
ATOM     21  C4  SGN C   2     144.542  34.223  35.9690  0.00  0.00     0.000 C
ATOM     22  C5  SGN C   2     143.836  35.220  36.8820  0.00  0.00     0.000 C
ATOM     23  O5  SGN C   2     142.406  35.008  36.8260  0.00  0.00     0.000 O
ATOM     24   O  SGN C   2     144.788  31.845  35.5590  0.00  0.00     0.000 O
ATOM     26  HD  SGN C   2     144.700  32.333  36.2690  0.00  0.00     0.000 HD
BRANCH 19 28
ATOM     26   N  SGN C   2     142.257  31.288  36.8680  0.00  0.00     0.000 N
ATOM     28  HD  SGN C   2     142.127  31.792  37.5600  0.00  0.00     0.000 HD
ATOM     28   O  SGN C   2     141.253  29.063  36.3540  0.00  0.00     0.000 OA
ATOM     29   S  SGN C   2     140.895  30.587  36.3790  0.00  0.00     0.000 S
ATOM     30   O  SGN C   2     139.921  30.805  37.3790  0.00  0.00     0.000 OA
ATOM     31   O  SGN C   2     140.642  31.016  35.0470  0.00  0.00     0.000 OA
ENDBRANCH 19 28
BRANCH 22 32
ATOM     32   C  SGN C   2     144.077  36.659  36.4960  0.00  0.00     0.000 C
ATOM     33   S  SGN C   2     143.862  39.007  37.5360  0.00  0.00     0.000 S
ATOM     34   O  SGN C   2     142.431  39.028  37.3630  0.00  0.00     0.000 OA
ATOM     35   O  SGN C   2     144.305  39.604  38.7790  0.00  0.00     0.000 OA
ATOM     36   O  SGN C   2     144.602  39.464  36.3840  0.00  0.00     0.000 OA
ATOM     37   O  SGN C   2     144.219  37.458  37.6770  0.00  0.00     0.000 O
ENDBRANCH 22 32
BRANCH 18 38
ATOM     38  O4  IDS C   3     141.891  33.839  38.5750  0.00  0.00     0.000 O
BRANCH 38 42
ATOM     39  C1  IDS C   3     142.846  34.057  41.9170  0.00  0.00     0.000 C
ATOM     40  C2  IDS C   3     143.577  33.119  40.9440  0.00  0.00     0.000 C
ATOM     41  C3  IDS C   3     142.593  32.210  40.2080  0.00  0.00     0.000 C
ATOM     42  C4  IDS C   3     141.425  33.006  39.6420  0.00  0.00     0.000 C
ATOM     43  C5  IDS C   3     140.802  33.869  40.7460  0.00  0.00     0.000 C
ATOM     44  O5  IDS C   3     141.795  34.751  41.2660  0.00  0.00     0.000 O
ATOM     45   O  IDS C   3     142.106  31.212  41.1080  0.00  0.00     0.000 O
ATOM     47  HD  IDS C   3     141.715  31.224  41.8800  0.00  0.00     0.000 HD
BRANCH 40 47
ATOM     47   O  IDS C   3     144.312  33.900  39.9210  0.00  0.00     0.000 O
ATOM     48   S  IDS C   3     145.536  34.832  40.3580  0.00  0.00     0.000 S
ATOM     49   O  IDS C   3     144.944  36.016  40.9430  0.00  0.00     0.000 OA
ATOM     50   O  IDS C   3     146.252  35.118  39.1350  0.00  0.00     0.000 OA
ATOM     51   O  IDS C   3     146.309  34.071  41.3030  0.00  0.00     0.000 OA
ENDBRANCH 40 47
BRANCH 43 52
ATOM     52   C  IDS C   3     139.613  34.670  40.2630  0.00  0.00     0.000 C
ATOM     53   O  IDS C   3     138.556  34.118  40.0620  0.00  0.00     0.000 OA
ATOM     54   O  IDS C   3     139.727  35.855  40.0800  0.00  0.00     0.000 OA
ENDBRANCH 43 52
BRANCH 39 55
ATOM     55  O4  SGN C   4     142.586  33.747  43.1870  0.00  0.00     0.000 O
BRANCH 55 59
ATOM     56  C1  SGN C   4     145.676  34.747  45.8250  0.00  0.00     0.000 C
ATOM     57  C2  SGN C   4     145.577  33.268  45.4110  0.00  0.00     0.000 C
ATOM     58  C3  SGN C   4     144.693  33.110  44.1770  0.00  0.00     0.000 C
ATOM     59  C4  SGN C   4     143.355  33.813  44.3800  0.00  0.00     0.000 C
ATOM     60  C5  SGN C   4     143.618  35.271  44.7510  0.00  0.00     0.000 C
ATOM     61  O5  SGN C   4     144.377  35.296  45.9760  0.00  0.00     0.000 O
ATOM     62   O  SGN C   4     144.498  31.729  43.9050  0.00  0.00     0.000 O
ATOM     64  HD  SGN C   4     145.268  31.765  44.3000  0.00  0.00     0.000 HD
BRANCH 57 66
ATOM     64   N  SGN C   4     146.106  32.353  46.4350  0.00  0.00     0.000 N
ATOM     66  HD  SGN C   4     146.519  31.591  46.4400  0.00  0.00     0.000 HD
ATOM     66   S  SGN C   4     147.627  31.874  46.3870  0.00  0.00     0.000 S
ATOM     67   O  SGN C   4     147.819  30.961  47.4540  0.00  0.00     0.000 OA
ATOM     68   O  SGN C   4     147.890  31.456  45.0530  0.00  0.00     0.000 OA
ATOM     69   O  SGN C   4     148.436  33.180  46.6710  0.00  0.00     0.000 OA
ENDBRANCH 57 66
BRANCH 60 70
ATOM     70   C  SGN C   4     142.359  36.081  44.9700  0.00  0.00     0.000 C
ATOM     71   O  SGN C   4     140.135  36.020  47.9970  0.00  0.00     0.000 OA
ATOM     72   O  SGN C   4     141.801  37.677  47.4240  0.00  0.00     0.000 OA
ATOM     73   O  SGN C   4     141.671  35.634  46.1540  0.00  0.00     0.000 O
ATOM     74   S  SGN C   4     140.818  36.733  46.9420  0.00  0.00     0.000 S
ATOM     75   O  SGN C   4     139.922  37.290  45.9480  0.00  0.00     0.000 OA
ENDBRANCH 60 70
BRANCH 56 76
ATOM     76  O4  IDS C   5     146.520  35.763  45.5690  0.00  0.00     0.000 O
BRANCH 76 80
ATOM     77  C1  IDS C   5     148.619  38.689  43.6470  0.00  0.00     0.000 C
ATOM     78  C2  IDS C   5     148.545  37.362  42.8930  0.00  0.00     0.000 C
ATOM     79  C3  IDS C   5     147.416  36.516  43.4490  0.00  0.00     0.000 C
ATOM     80  C4  IDS C   5     147.732  36.126  44.8900  0.00  0.00     0.000 C
ATOM     81  C5  IDS C   5     148.411  37.306  45.5990  0.00  0.00     0.000 C
ATOM     82  O5  IDS C   5     148.073  38.540  44.9580  0.00  0.00     0.000 O
BRANCH 78 83
ATOM     83   O  IDS C   5     148.293  37.591  41.4520  0.00  0.00     0.000 O
ATOM     84   S  IDS C   5     149.345  37.074  40.3700  0.00  0.00     0.000 S
ATOM     85   O  IDS C   5     150.634  37.519  40.8280  0.00  0.00     0.000 OA
ATOM     86   O  IDS C   5     149.209  35.636  40.3680  0.00  0.00     0.000 OA
ATOM     87   O  IDS C   5     148.947  37.672  39.1200  0.00  0.00     0.000 OA
ENDBRANCH 78 83
BRANCH 81 88
ATOM     88   C  IDS C   5     148.044  37.437  47.0660  0.00  0.00     0.000 C
ATOM     89   O  IDS C   5     147.530  38.447  47.4670  0.00  0.00     0.000 OA
ATOM     90   O  IDS C   5     148.270  36.522  47.8240  0.00  0.00     0.000 OA
ENDBRANCH 81 88
ENDBRANCH 76 80
ENDBRANCH 56 76
ENDBRANCH 55 59
ENDBRANCH 39 55
ENDBRANCH 38 42
ENDBRANCH 18 38
ENDBRANCH 17 21
ENDBRANCH 1 17
TORSDOF 18
ENDMDL
MODEL 17
REMARK VINA RESULT:      -7.1      6.670     16.926
ROOT
ATOM      1  C1  IDS C   1     156.765  38.654  50.6090  0.00  0.00     0.000 C
ATOM      2  C2  IDS C   1     155.424  38.718  51.3450  0.00  0.00     0.000 C
ATOM      3  C3  IDS C   1     154.372  39.413  50.4930  0.00  0.00     0.000 C
ATOM      4  C4  IDS C   1     154.817  40.825  50.1370  0.00  0.00     0.000 C
ATOM      5  C5  IDS C   1     156.312  40.841  49.8330  0.00  0.00     0.000 C
ATOM      6  O5  IDS C   1     156.758  39.530  49.4890  0.00  0.00     0.000 O
ATOM      7   O  IDS C   1     153.125  39.457  51.2010  0.00  0.00     0.000 O
ATOM      9  HD  IDS C   1     153.042  38.722  51.6520  0.00  0.00     0.000 HD
ENDROOT
BRANCH 2 9
ATOM      9   O  IDS C   1     154.924  37.358  51.6490  0.00  0.00     0.000 O
ATOM     10   S  IDS C   1     154.657  36.942  53.1650  0.00  0.00     0.000 S
ATOM     11   O  IDS C   1     154.170  35.581  53.1230  0.00  0.00     0.000 OA
ATOM     12   O  IDS C   1     155.936  37.063  53.8340  0.00  0.00     0.000 OA
ATOM     13   O  IDS C   1     153.670  37.876  53.6630  0.00  0.00     0.000 OA
ENDBRANCH 2 9
BRANCH 5 14
ATOM     14   C  IDS C   1     156.655  41.782  48.6900  0.00  0.00     0.000 C
ATOM     15   O  IDS C   1     156.512  42.971  48.8370  0.00  0.00     0.000 OA
ATOM     16   O  IDS C   1     157.067  41.328  47.6360  0.00  0.00     0.000 OA
ENDBRANCH 5 14
BRANCH 1 17
ATOM     17  O4  SGN C   2     157.539  37.565  50.6000  0.00  0.00     0.000 O
BRANCH 17 21
ATOM     18  C1  SGN C   2     159.895  34.685  48.6810  0.00  0.00     0.000 C
ATOM     19  C2  SGN C   2     159.390  35.846  47.8160  0.00  0.00     0.000 C
ATOM     20  C3  SGN C   2     158.926  37.000  48.7140  0.00  0.00     0.000 C
ATOM     21  C4  SGN C   2     157.909  36.497  49.7320  0.00  0.00     0.000 C
ATOM     22  C5  SGN C   2     158.527  35.352  50.5300  0.00  0.00     0.000 C
ATOM     23  O5  SGN C   2     158.928  34.291  49.6320  0.00  0.00     0.000 O
ATOM     24   O  SGN C   2     158.379  38.039  47.9200  0.00  0.00     0.000 O
ATOM     26  HD  SGN C   2     158.848  37.693  48.5600  0.00  0.00     0.000 HD
BRANCH 19 28
ATOM     26   N  SGN C   2     160.270  35.745  46.6440  0.00  0.00     0.000 N
ATOM     28  HD  SGN C   2     160.099  34.920  46.8450  0.00  0.00     0.000 HD
ATOM     28   O  SGN C   2     161.052  36.689  44.4710  0.00  0.00     0.000 OA
ATOM     29   S  SGN C   2     159.770  36.112  45.1600  0.00  0.00     0.000 S
ATOM     30   O  SGN C   2     159.418  34.903  44.5190  0.00  0.00     0.000 OA
ATOM     31   O  SGN C   2     158.808  37.153  45.2740  0.00  0.00     0.000 OA
ENDBRANCH 19 28
BRANCH 22 32
ATOM     32   C  SGN C   2     157.578  34.740  51.5310  0.00  0.00     0.000 C
ATOM     33   S  SGN C   2     157.675  33.529  53.8040  0.00  0.00     0.000 S
ATOM     34   O  SGN C   2     158.102  32.290  53.2030  0.00  0.00     0.000 OA
ATOM     35   O  SGN C   2     158.317  33.811  55.0710  0.00  0.00     0.000 OA
ATOM     36   O  SGN C   2     156.242  33.706  53.8330  0.00  0.00     0.000 OA
ATOM     37   O  SGN C   2     158.217  34.655  52.8100  0.00  0.00     0.000 O
ENDBRANCH 22 32
BRANCH 18 38
ATOM     38  O4  IDS C   3     161.058  34.526  49.3170  0.00  0.00     0.000 O
BRANCH 38 42
ATOM     39  C1  IDS C   3     164.377  33.770  50.0540  0.00  0.00     0.000 C
ATOM     40  C2  IDS C   3     163.514  32.813  49.2160  0.00  0.00     0.000 C
ATOM     41  C3  IDS C   3     162.199  32.491  49.9250  0.00  0.00     0.000 C
ATOM     42  C4  IDS C   3     161.521  33.756  50.4320  0.00  0.00     0.000 C
ATOM     43  C5  IDS C   3     162.513  34.580  51.2610  0.00  0.00     0.000 C
ATOM     44  O5  IDS C   3     163.637  34.914  50.4480  0.00  0.00     0.000 O
ATOM     45   O  IDS C   3     162.455  31.609  51.0200  0.00  0.00     0.000 O
ATOM     47  HD  IDS C   3     162.972  31.631  51.7150  0.00  0.00     0.000 HD
BRANCH 40 47
ATOM     47   O  IDS C   3     163.176  33.426  47.9100  0.00  0.00     0.000 O
ATOM     48   S  IDS C   3     162.714  32.499  46.6910  0.00  0.00     0.000 S
ATOM     49   O  IDS C   3     163.921  31.890  46.1760  0.00  0.00     0.000 OA
ATOM     50   O  IDS C   3     162.099  33.399  45.7400  0.00  0.00     0.000 OA
ATOM     51   O  IDS C   3     161.793  31.538  47.2380  0.00  0.00     0.000 OA
ENDBRANCH 40 47
BRANCH 43 52
ATOM     52   C  IDS C   3     161.900  35.844  51.8230  0.00  0.00     0.000 C
ATOM     53   O  IDS C   3     161.158  35.781  52.7760  0.00  0.00     0.000 OA
ATOM     54   O  IDS C   3     162.154  36.907  51.3180  0.00  0.00     0.000 OA
ENDBRANCH 43 52
BRANCH 39 55
ATOM     55  O4  SGN C   4     165.267  33.362  50.9580  0.00  0.00     0.000 O
BRANCH 55 59
ATOM     56  C1  SGN C   4     169.383  33.381  51.7100  0.00  0.00     0.000 C
ATOM     57  C2  SGN C   4     168.460  33.507  52.9340  0.00  0.00     0.000 C
ATOM     58  C3  SGN C   4     167.033  33.095  52.5810  0.00  0.00     0.000 C
ATOM     59  C4  SGN C   4     166.554  33.831  51.3350  0.00  0.00     0.000 C
ATOM     60  C5  SGN C   4     167.550  33.584  50.2050  0.00  0.00     0.000 C
ATOM     61  O5  SGN C   4     168.834  34.095  50.6140  0.00  0.00     0.000 O
ATOM     62   O  SGN C   4     166.175  33.361  53.6820  0.00  0.00     0.000 O
ATOM     64  HD  SGN C   4     166.950  33.218  54.0410  0.00  0.00     0.000 HD
BRANCH 57 66
ATOM     64   N  SGN C   4     168.535  33.770  54.3800  0.00  0.00     0.000 N
ATOM     66  HD  SGN C   4     168.742  33.317  55.0880  0.00  0.00     0.000 HD
ATOM     66   S  SGN C   4     169.874  33.462  55.1920  0.00  0.00     0.000 S
ATOM     67   O  SGN C   4     169.621  33.757  56.5560  0.00  0.00     0.000 OA
ATOM     68   O  SGN C   4     170.291  32.153  54.8260  0.00  0.00     0.000 OA
ATOM     69   O  SGN C   4     170.900  34.492  54.6210  0.00  0.00     0.000 OA
ENDBRANCH 57 66
BRANCH 60 70
ATOM     70   C  SGN C   4     167.177  34.259  48.9030  0.00  0.00     0.000 C
ATOM     71   O  SGN C   4     167.034  37.953  48.2380  0.00  0.00     0.000 OA
ATOM     72   O  SGN C   4     168.786  36.409  47.6100  0.00  0.00     0.000 OA
ATOM     73   O  SGN C   4     167.034  35.680  49.0940  0.00  0.00     0.000 O
ATOM     74   S  SGN C   4     167.372  36.607  47.8360  0.00  0.00     0.000 S
ATOM     75   O  SGN C   4     166.539  36.097  46.7660  0.00  0.00     0.000 OA
ENDBRANCH 60 70
BRANCH 56 76
ATOM     76  O4  IDS C   5     170.194  32.430  51.2110  0.00  0.00     0.000 O
BRANCH 76 80
ATOM     77  C1  IDS C   5     173.540  31.083  53.1220  0.00  0.00     0.000 C
ATOM     78  C2  IDS C   5     173.776  32.272  52.1910  0.00  0.00     0.000 C
ATOM     79  C3  IDS C   5     172.459  32.958  51.8890  0.00  0.00     0.000 C
ATOM     80  C4  IDS C   5     171.563  32.015  51.0910  0.00  0.00     0.000 C
ATOM     81  C5  IDS C   5     171.737  30.583  51.6160  0.00  0.00     0.000 C
ATOM     82  O5  IDS C   5     172.206  30.597  52.9680  0.00  0.00     0.000 O
BRANCH 78 83
ATOM     83   O  IDS C   5     174.684  33.259  52.8230  0.00  0.00     0.000 O
ATOM     84   S  IDS C   5     176.071  33.621  52.1230  0.00  0.00     0.000 S
ATOM     85   O  IDS C   5     176.690  32.365  51.7980  0.00  0.00     0.000 OA
ATOM     86   O  IDS C   5     175.715  34.398  50.9580  0.00  0.00     0.000 OA
ATOM     87   O  IDS C   5     176.811  34.386  53.0960  0.00  0.00     0.000 OA
ENDBRANCH 78 83
BRANCH 81 88
ATOM     88   C  IDS C   5     170.465  29.756  51.5820  0.00  0.00     0.000 C
ATOM     89   O  IDS C   5     170.005  29.409  50.5280  0.00  0.00     0.000 OA
ATOM     90   O  IDS C   5     169.922  29.449  52.6190  0.00  0.00     0.000 OA
ENDBRANCH 81 88
ENDBRANCH 76 80
ENDBRANCH 56 76
ENDBRANCH 55 59
ENDBRANCH 39 55
ENDBRANCH 38 42
ENDBRANCH 18 38
ENDBRANCH 17 21
ENDBRANCH 1 17
TORSDOF 18
ENDMDL
MODEL 18
REMARK VINA RESULT:      -7.0      8.354     14.310
ROOT
ATOM      1  C1  IDS C   1     172.431  36.969  54.9510  0.00  0.00     0.000 C
ATOM      2  C2  IDS C   1     173.909  36.604  55.1210  0.00  0.00     0.000 C
ATOM      3  C3  IDS C   1     174.166  36.021  56.5030  0.00  0.00     0.000 C
ATOM      4  C4  IDS C   1     173.764  37.011  57.5870  0.00  0.00     0.000 C
ATOM      5  C5  IDS C   1     172.481  37.732  57.1880  0.00  0.00     0.000 C
ATOM      6  O5  IDS C   1     171.772  36.970  56.2110  0.00  0.00     0.000 O
ATOM      7   O  IDS C   1     175.554  35.684  56.6360  0.00  0.00     0.000 O
ATOM      9  HD  IDS C   1     175.836  35.386  55.8740  0.00  0.00     0.000 HD
ENDROOT
BRANCH 2 9
ATOM      9   O  IDS C   1     174.320  35.590  54.1240  0.00  0.00     0.000 O
ATOM     10   S  IDS C   1     175.391  35.977  53.0080  0.00  0.00     0.000 S
ATOM     11   O  IDS C   1     175.584  34.784  52.2140  0.00  0.00     0.000 OA
ATOM     12   O  IDS C   1     174.796  37.064  52.2580  0.00  0.00     0.000 OA
ATOM     13   O  IDS C   1     176.583  36.372  53.7250  0.00  0.00     0.000 OA
ENDBRANCH 2 9
BRANCH 5 14
ATOM     14   C  IDS C   1     171.562  37.965  58.3750  0.00  0.00     0.000 C
ATOM     15   O  IDS C   1     170.585  38.661  58.2420  0.00  0.00     0.000 OA
ATOM     16   O  IDS C   1     171.819  37.451  59.4500  0.00  0.00     0.000 OA
ENDBRANCH 5 14
BRANCH 1 17
ATOM     17  O4  SGN C   2     171.741  36.706  53.8370  0.00  0.00     0.000 O
BRANCH 17 21
ATOM     18  C1  SGN C   2     169.291  34.101  51.6620  0.00  0.00     0.000 C
ATOM     19  C2  SGN C   2     169.887  33.555  52.9650  0.00  0.00     0.000 C
ATOM     20  C3  SGN C   2     170.385  34.716  53.8350  0.00  0.00     0.000 C
ATOM     21  C4  SGN C   2     171.340  35.597  53.0370  0.00  0.00     0.000 C
ATOM     22  C5  SGN C   2     170.634  36.080  51.7740  0.00  0.00     0.000 C
ATOM     23  O5  SGN C   2     170.204  34.943  50.9900  0.00  0.00     0.000 O
ATOM     24   O  SGN C   2     171.014  34.210  55.0000  0.00  0.00     0.000 O
ATOM     26  HD  SGN C   2     170.506  34.738  54.5380  0.00  0.00     0.000 HD
BRANCH 19 28
ATOM     26   N  SGN C   2     169.025  32.392  53.2170  0.00  0.00     0.000 N
ATOM     28  HD  SGN C   2     169.112  32.401  52.3560  0.00  0.00     0.000 HD
ATOM     28   O  SGN C   2     168.382  30.490  54.6980  0.00  0.00     0.000 OA
ATOM     29   S  SGN C   2     169.589  31.028  53.8570  0.00  0.00     0.000 S
ATOM     30   O  SGN C   2     169.836  30.130  52.7950  0.00  0.00     0.000 OA
ATOM     31   O  SGN C   2     170.643  31.372  54.7460  0.00  0.00     0.000 OA
ENDBRANCH 19 28
BRANCH 22 32
ATOM     32   C  SGN C   2     171.515  36.917  50.8790  0.00  0.00     0.000 C
ATOM     33   S  SGN C   2     172.369  36.914  48.4470  0.00  0.00     0.000 S
ATOM     34   O  SGN C   2     173.340  35.884  48.7170  0.00  0.00     0.000 OA
ATOM     35   O  SGN C   2     171.730  36.786  47.1540  0.00  0.00     0.000 OA
ATOM     36   O  SGN C   2     172.835  38.252  48.7280  0.00  0.00     0.000 OA
ATOM     37   O  SGN C   2     171.205  36.645  49.5070  0.00  0.00     0.000 O
ENDBRANCH 22 32
BRANCH 18 38
ATOM     38  O4  IDS C   3     168.101  34.658  51.4250  0.00  0.00     0.000 O
BRANCH 38 42
ATOM     39  C1  IDS C   3     164.831  35.457  50.5350  0.00  0.00     0.000 C
ATOM     40  C2  IDS C   3     166.013  36.315  50.0570  0.00  0.00     0.000 C
ATOM     41  C3  IDS C   3     166.898  36.738  51.2300  0.00  0.00     0.000 C
ATOM     42  C4  IDS C   3     167.230  35.553  52.1250  0.00  0.00     0.000 C
ATOM     43  C5  IDS C   3     165.941  34.824  52.5230  0.00  0.00     0.000 C
ATOM     44  O5  IDS C   3     165.273  34.380  51.3430  0.00  0.00     0.000 O
ATOM     45   O  IDS C   3     166.225  37.744  51.9900  0.00  0.00     0.000 O
ATOM     47  HD  IDS C   3     165.456  37.801  52.3840  0.00  0.00     0.000 HD
BRANCH 40 47
ATOM     47   O  IDS C   3     166.862  35.550  49.1130  0.00  0.00     0.000 O
ATOM     48   S  IDS C   3     166.923  35.978  47.5730  0.00  0.00     0.000 S
ATOM     49   O  IDS C   3     165.697  35.492  46.9780  0.00  0.00     0.000 OA
ATOM     50   O  IDS C   3     168.096  35.318  47.0410  0.00  0.00     0.000 OA
ATOM     51   O  IDS C   3     167.023  37.413  47.5530  0.00  0.00     0.000 OA
ENDBRANCH 40 47
BRANCH 43 52
ATOM     52   C  IDS C   3     166.191  33.647  53.4390  0.00  0.00     0.000 C
ATOM     53   O  IDS C   3     166.537  33.836  54.5820  0.00  0.00     0.000 OA
ATOM     54   O  IDS C   3     166.044  32.526  53.0240  0.00  0.00     0.000 OA
ENDBRANCH 43 52
BRANCH 39 55
ATOM     55  O4  SGN C   4     163.653  35.962  50.9020  0.00  0.00     0.000 O
BRANCH 55 59
ATOM     56  C1  SGN C   4     159.648  34.817  51.2960  0.00  0.00     0.000 C
ATOM     57  C2  SGN C   4     160.568  33.848  50.5330  0.00  0.00     0.000 C
ATOM     58  C3  SGN C   4     162.036  34.174  50.7990  0.00  0.00     0.000 C
ATOM     59  C4  SGN C   4     162.311  35.652  50.5510  0.00  0.00     0.000 C
ATOM     60  C5  SGN C   4     161.347  36.480  51.3980  0.00  0.00     0.000 C
ATOM     61  O5  SGN C   4     160.001  36.157  50.9960  0.00  0.00     0.000 O
ATOM     62   O  SGN C   4     162.860  33.364  49.9710  0.00  0.00     0.000 O
ATOM     64  HD  SGN C   4     162.143  32.893  50.0900  0.00  0.00     0.000 HD
BRANCH 57 66
ATOM     64   N  SGN C   4     159.330  33.054  50.5770  0.00  0.00     0.000 N
ATOM     66  HD  SGN C   4     158.824  32.653  50.0000  0.00  0.00     0.000 HD
ATOM     66   S  SGN C   4     159.273  31.602  49.9160  0.00  0.00     0.000 S
ATOM     67   O  SGN C   4     157.948  31.120  50.0620  0.00  0.00     0.000 OA
ATOM     68   O  SGN C   4     159.836  31.716  48.6140  0.00  0.00     0.000 OA
ATOM     69   O  SGN C   4     160.236  30.752  50.8050  0.00  0.00     0.000 OA
ENDBRANCH 57 66
BRANCH 60 70
ATOM     70   C  SGN C   4     161.529  37.975  51.2460  0.00  0.00     0.000 C
ATOM     71   O  SGN C   4     163.941  40.157  53.1240  0.00  0.00     0.000 OA
ATOM     72   O  SGN C   4     164.165  39.312  50.8700  0.00  0.00     0.000 OA
ATOM     73   O  SGN C   4     162.394  38.486  52.2780  0.00  0.00     0.000 O
ATOM     74   S  SGN C   4     163.268  39.772  51.9050  0.00  0.00     0.000 S
ATOM     75   O  SGN C   4     162.306  40.752  51.4410  0.00  0.00     0.000 OA
ENDBRANCH 60 70
BRANCH 56 76
ATOM     76  O4  IDS C   5     159.030  34.816  52.4910  0.00  0.00     0.000 O
BRANCH 76 80
ATOM     77  C1  IDS C   5     155.055  35.306  53.2790  0.00  0.00     0.000 C
ATOM     78  C2  IDS C   5     155.831  36.610  53.0940  0.00  0.00     0.000 C
ATOM     79  C3  IDS C   5     157.144  36.332  52.3890  0.00  0.00     0.000 C
ATOM     80  C4  IDS C   5     158.034  35.476  53.2860  0.00  0.00     0.000 C
ATOM     81  C5  IDS C   5     157.169  34.446  54.0270  0.00  0.00     0.000 C
ATOM     82  O5  IDS C   5     155.956  34.199  53.3090  0.00  0.00     0.000 O
BRANCH 78 83
ATOM     83   O  IDS C   5     155.054  37.570  52.2750  0.00  0.00     0.000 O
ATOM     84   S  IDS C   5     154.681  39.002  52.8730  0.00  0.00     0.000 S
ATOM     85   O  IDS C   5     154.134  38.754  54.1800  0.00  0.00     0.000 OA
ATOM     86   O  IDS C   5     155.925  39.733  52.9070  0.00  0.00     0.000 OA
ATOM     87   O  IDS C   5     153.726  39.571  51.9540  0.00  0.00     0.000 OA
ENDBRANCH 78 83
BRANCH 81 88
ATOM     88   C  IDS C   5     157.853  33.109  54.2420  0.00  0.00     0.000 C
ATOM     89   O  IDS C   5     157.945  32.330  53.3320  0.00  0.00     0.000 OA
ATOM     90   O  IDS C   5     158.304  32.836  55.3310  0.00  0.00     0.000 OA
ENDBRANCH 81 88
ENDBRANCH 76 80
ENDBRANCH 56 76
ENDBRANCH 55 59
ENDBRANCH 39 55
ENDBRANCH 38 42
ENDBRANCH 18 38
ENDBRANCH 17 21
ENDBRANCH 1 17
TORSDOF 18
ENDMDL
MODEL 19
REMARK VINA RESULT:      -7.0      8.334     17.515
ROOT
ATOM      1  C1  IDS C   1     157.157  37.884  52.8910  0.00  0.00     0.000 C
ATOM      2  C2  IDS C   1     155.963  36.934  53.0220  0.00  0.00     0.000 C
ATOM      3  C3  IDS C   1     154.692  37.589  52.5040  0.00  0.00     0.000 C
ATOM      4  C4  IDS C   1     154.399  38.873  53.2690  0.00  0.00     0.000 C
ATOM      5  C5  IDS C   1     155.697  39.624  53.5470  0.00  0.00     0.000 C
ATOM      6  O5  IDS C   1     156.711  39.208  52.6320  0.00  0.00     0.000 O
ATOM      7   O  IDS C   1     153.590  36.680  52.6330  0.00  0.00     0.000 O
ATOM      9  HD  IDS C   1     153.878  35.879  52.4720  0.00  0.00     0.000 HD
ENDROOT
BRANCH 2 9
ATOM      9   O  IDS C   1     156.183  35.700  52.2340  0.00  0.00     0.000 O
ATOM     10   S  IDS C   1     156.122  34.283  52.9640  0.00  0.00     0.000 S
ATOM     11   O  IDS C   1     156.359  33.297  51.9330  0.00  0.00     0.000 OA
ATOM     12   O  IDS C   1     157.167  34.315  53.9660  0.00  0.00     0.000 OA
ATOM     13   O  IDS C   1     154.796  34.190  53.5350  0.00  0.00     0.000 OA
ENDBRANCH 2 9
BRANCH 5 14
ATOM     14   C  IDS C   1     155.526  41.129  53.4240  0.00  0.00     0.000 C
ATOM     15   O  IDS C   1     155.278  41.613  52.3470  0.00  0.00     0.000 OA
ATOM     16   O  IDS C   1     155.642  41.834  54.4130  0.00  0.00     0.000 OA
ENDBRANCH 5 14
BRANCH 1 17
ATOM     17  O4  SGN C   2     158.358  37.488  52.4590  0.00  0.00     0.000 O
BRANCH 17 21
ATOM     18  C1  SGN C   2     161.705  37.669  49.9510  0.00  0.00     0.000 C
ATOM     19  C2  SGN C   2     160.719  38.841  49.8660  0.00  0.00     0.000 C
ATOM     20  C3  SGN C   2     159.811  38.847  51.1020  0.00  0.00     0.000 C
ATOM     21  C4  SGN C   2     159.145  37.486  51.2710  0.00  0.00     0.000 C
ATOM     22  C5  SGN C   2     160.223  36.409  51.3470  0.00  0.00     0.000 C
ATOM     23  O5  SGN C   2     161.033  36.443  50.1500  0.00  0.00     0.000 O
ATOM     24   O  SGN C   2     158.843  39.875  50.9850  0.00  0.00     0.000 O
ATOM     26  HD  SGN C   2     159.431  39.381  51.3840  0.00  0.00     0.000 HD
BRANCH 19 28
ATOM     26   N  SGN C   2     161.545  39.871  49.2220  0.00  0.00     0.000 N
ATOM     28  HD  SGN C   2     161.824  39.132  48.8670  0.00  0.00     0.000 HD
ATOM     28   O  SGN C   2     161.763  42.198  48.3490  0.00  0.00     0.000 OA
ATOM     29   S  SGN C   2     160.955  40.877  48.1150  0.00  0.00     0.000 S
ATOM     30   O  SGN C   2     161.294  40.359  46.8450  0.00  0.00     0.000 OA
ATOM     31   O  SGN C   2     159.590  41.117  48.4340  0.00  0.00     0.000 OA
ENDBRANCH 19 28
BRANCH 22 32
ATOM     32   C  SGN C   2     159.665  35.011  51.4570  0.00  0.00     0.000 C
ATOM     33   S  SGN C   2     159.928  32.723  50.3010  0.00  0.00     0.000 S
ATOM     34   O  SGN C   2     159.135  33.128  49.1670  0.00  0.00     0.000 OA
ATOM     35   O  SGN C   2     161.063  31.895  49.9500  0.00  0.00     0.000 OA
ATOM     36   O  SGN C   2     159.156  32.202  51.4040  0.00  0.00     0.000 OA
ATOM     37   O  SGN C   2     160.566  34.083  50.8400  0.00  0.00     0.000 O
ENDBRANCH 22 32
BRANCH 18 38
ATOM     38  O4  IDS C   3     162.831  37.539  50.6550  0.00  0.00     0.000 O
BRANCH 38 42
ATOM     39  C1  IDS C   3     165.631  38.455  52.5110  0.00  0.00     0.000 C
ATOM     40  C2  IDS C   3     165.157  39.306  51.3220  0.00  0.00     0.000 C
ATOM     41  C3  IDS C   3     164.984  38.452  50.0660  0.00  0.00     0.000 C
ATOM     42  C4  IDS C   3     164.188  37.189  50.3640  0.00  0.00     0.000 C
ATOM     43  C5  IDS C   3     164.807  36.455  51.5610  0.00  0.00     0.000 C
ATOM     44  O5  IDS C   3     164.800  37.322  52.6940  0.00  0.00     0.000 O
ATOM     45   O  IDS C   3     166.270  38.102  49.5520  0.00  0.00     0.000 O
ATOM     47  HD  IDS C   3     166.973  37.712  49.8740  0.00  0.00     0.000 HD
BRANCH 40 47
ATOM     47   O  IDS C   3     163.846  39.930  51.6190  0.00  0.00     0.000 O
ATOM     48   S  IDS C   3     163.717  41.524  51.6680  0.00  0.00     0.000 S
ATOM     49   O  IDS C   3     164.280  41.929  52.9380  0.00  0.00     0.000 OA
ATOM     50   O  IDS C   3     162.298  41.793  51.5810  0.00  0.00     0.000 OA
ATOM     51   O  IDS C   3     164.459  42.027  50.5430  0.00  0.00     0.000 OA
ENDBRANCH 40 47
BRANCH 43 52
ATOM     52   C  IDS C   3     164.083  35.171  51.8990  0.00  0.00     0.000 C
ATOM     53   O  IDS C   3     164.302  34.169  51.2580  0.00  0.00     0.000 OA
ATOM     54   O  IDS C   3     163.291  35.153  52.8070  0.00  0.00     0.000 OA
ENDBRANCH 43 52
BRANCH 39 55
ATOM     55  O4  SGN C   4     166.915  38.239  52.7990  0.00  0.00     0.000 O
BRANCH 55 59
ATOM     56  C1  SGN C   4     170.005  37.382  55.4860  0.00  0.00     0.000 C
ATOM     57  C2  SGN C   4     169.346  36.179  54.7900  0.00  0.00     0.000 C
ATOM     58  C3  SGN C   4     168.538  36.631  53.5770  0.00  0.00     0.000 C
ATOM     59  C4  SGN C   4     167.583  37.757  53.9560  0.00  0.00     0.000 C
ATOM     60  C5  SGN C   4     168.386  38.885  54.6010  0.00  0.00     0.000 C
ATOM     61  O5  SGN C   4     169.027  38.366  55.7830  0.00  0.00     0.000 O
ATOM     62   O  SGN C   4     167.823  35.526  53.0420  0.00  0.00     0.000 O
ATOM     64  HD  SGN C   4     168.522  35.173  53.4130  0.00  0.00     0.000 HD
BRANCH 57 66
ATOM     64   N  SGN C   4     170.507  35.511  55.3990  0.00  0.00     0.000 N
ATOM     66  HD  SGN C   4     170.633  34.898  55.9990  0.00  0.00     0.000 HD
ATOM     66   S  SGN C   4     170.616  33.919  55.4060  0.00  0.00     0.000 S
ATOM     67   O  SGN C   4     171.799  33.576  56.1080  0.00  0.00     0.000 OA
ATOM     68   O  SGN C   4     169.365  33.418  55.8590  0.00  0.00     0.000 OA
ATOM     69   O  SGN C   4     170.785  33.552  53.8970  0.00  0.00     0.000 OA
ENDBRANCH 57 66
BRANCH 60 70
ATOM     70   C  SGN C   4     167.545  40.073  55.0160  0.00  0.00     0.000 C
ATOM     71   O  SGN C   4     165.800  40.563  58.3050  0.00  0.00     0.000 OA
ATOM     72   O  SGN C   4     167.885  41.552  57.5810  0.00  0.00     0.000 OA
ATOM     73   O  SGN C   4     166.874  39.806  56.2630  0.00  0.00     0.000 O
ATOM     74   S  SGN C   4     166.577  41.069  57.1980  0.00  0.00     0.000 S
ATOM     75   O  SGN C   4     165.846  41.992  56.3530  0.00  0.00     0.000 OA
ENDBRANCH 60 70
BRANCH 56 76
ATOM     76  O4  IDS C   5     171.197  38.003  55.4110  0.00  0.00     0.000 O
BRANCH 76 80
ATOM     77  C1  IDS C   5     174.257  36.887  57.8700  0.00  0.00     0.000 C
ATOM     78  C2  IDS C   5     173.442  38.079  58.3730  0.00  0.00     0.000 C
ATOM     79  C3  IDS C   5     172.110  38.131  57.6510  0.00  0.00     0.000 C
ATOM     80  C4  IDS C   5     172.342  38.418  56.1700  0.00  0.00     0.000 C
ATOM     81  C5  IDS C   5     173.598  37.670  55.6980  0.00  0.00     0.000 C
ATOM     82  O5  IDS C   5     173.859  36.545  56.5430  0.00  0.00     0.000 O
BRANCH 78 83
ATOM     83   O  IDS C   5     173.182  37.961  59.8260  0.00  0.00     0.000 O
ATOM     84   S  IDS C   5     173.616  39.141  60.8080  0.00  0.00     0.000 S
ATOM     85   O  IDS C   5     174.978  39.457  60.4700  0.00  0.00     0.000 OA
ATOM     86   O  IDS C   5     172.697  40.220  60.5310  0.00  0.00     0.000 OA
ATOM     87   O  IDS C   5     173.468  38.614  62.1420  0.00  0.00     0.000 OA
ENDBRANCH 78 83
BRANCH 81 88
ATOM     88   C  IDS C   5     173.511  37.160  54.2710  0.00  0.00     0.000 C
ATOM     89   O  IDS C   5     173.691  37.915  53.3540  0.00  0.00     0.000 OA
ATOM     90   O  IDS C   5     173.262  35.994  54.0660  0.00  0.00     0.000 OA
ENDBRANCH 81 88
ENDBRANCH 76 80
ENDBRANCH 56 76
ENDBRANCH 55 59
ENDBRANCH 39 55
ENDBRANCH 38 42
ENDBRANCH 18 38
ENDBRANCH 17 21
ENDBRANCH 1 17
TORSDOF 18
ENDMDL
MODEL 20
REMARK VINA RESULT:      -7.0     11.526     15.689
ROOT
ATOM      1  C1  IDS C   1     146.710  33.547  35.2400  0.00  0.00     0.000 C
ATOM      2  C2  IDS C   1     147.143  32.200  34.6560  0.00  0.00     0.000 C
ATOM      3  C3  IDS C   1     148.651  32.156  34.4570  0.00  0.00     0.000 C
ATOM      4  C4  IDS C   1     149.102  33.275  33.5280  0.00  0.00     0.000 C
ATOM      5  C5  IDS C   1     148.313  34.548  33.8190  0.00  0.00     0.000 C
ATOM      6  O5  IDS C   1     147.765  34.495  35.1360  0.00  0.00     0.000 O
ATOM      7   O  IDS C   1     149.032  30.884  33.9140  0.00  0.00     0.000 O
ATOM      9  HD  IDS C   1     148.526  30.276  34.2650  0.00  0.00     0.000 HD
ENDROOT
BRANCH 2 9
ATOM      9   O  IDS C   1     146.781  31.090  35.5670  0.00  0.00     0.000 O
ATOM     10   S  IDS C   1     145.870  29.898  35.0260  0.00  0.00     0.000 S
ATOM     11   O  IDS C   1     145.713  28.984  36.1360  0.00  0.00     0.000 OA
ATOM     12   O  IDS C   1     144.623  30.513  34.6210  0.00  0.00     0.000 OA
ATOM     13   O  IDS C   1     146.598  29.316  33.9190  0.00  0.00     0.000 OA
ENDBRANCH 2 9
BRANCH 5 14
ATOM     14   C  IDS C   1     149.175  35.794  33.7060  0.00  0.00     0.000 C
ATOM     15   O  IDS C   1     149.931  35.911  32.7730  0.00  0.00     0.000 OA
ATOM     16   O  IDS C   1     149.097  36.663  34.5580  0.00  0.00     0.000 OA
ENDBRANCH 5 14
BRANCH 1 17
ATOM     17  O4  SGN C   2     145.806  33.660  36.2170  0.00  0.00     0.000 O
BRANCH 17 21
ATOM     18  C1  SGN C   2     144.653  34.417  40.1700  0.00  0.00     0.000 C
ATOM     19  C2  SGN C   2     146.121  34.688  39.8180  0.00  0.00     0.000 C
ATOM     20  C3  SGN C   2     146.283  34.778  38.2960  0.00  0.00     0.000 C
ATOM     21  C4  SGN C   2     145.707  33.532  37.6330  0.00  0.00     0.000 C
ATOM     22  C5  SGN C   2     144.249  33.373  38.0530  0.00  0.00     0.000 C
ATOM     23  O5  SGN C   2     144.163  33.278  39.4940  0.00  0.00     0.000 O
ATOM     24   O  SGN C   2     147.652  34.941  37.9650  0.00  0.00     0.000 O
ATOM     26  HD  SGN C   2     146.800  35.086  37.9110  0.00  0.00     0.000 HD
BRANCH 19 28
ATOM     26   N  SGN C   2     146.539  35.541  40.9400  0.00  0.00     0.000 N
ATOM     28  HD  SGN C   2     146.004  34.966  41.3060  0.00  0.00     0.000 HD
ATOM     28   O  SGN C   2     148.299  36.938  42.0220  0.00  0.00     0.000 OA
ATOM     29   S  SGN C   2     148.015  35.465  41.5730  0.00  0.00     0.000 S
ATOM     30   O  SGN C   2     147.944  34.648  42.7230  0.00  0.00     0.000 OA
ATOM     31   O  SGN C   2     148.917  35.129  40.5260  0.00  0.00     0.000 OA
ENDBRANCH 19 28
BRANCH 22 32
ATOM     32   C  SGN C   2     143.597  32.132  37.4950  0.00  0.00     0.000 C
ATOM     33   S  SGN C   2     141.281  31.364  36.6660  0.00  0.00     0.000 S
ATOM     34   O  SGN C   2     140.769  31.231  38.0070  0.00  0.00     0.000 OA
ATOM     35   O  SGN C   2     140.317  31.900  35.7270  0.00  0.00     0.000 OA
ATOM     36   O  SGN C   2     141.968  30.192  36.1780  0.00  0.00     0.000 OA
ATOM     37   O  SGN C   2     142.406  32.491  36.7850  0.00  0.00     0.000 O
ENDBRANCH 22 32
BRANCH 18 38
ATOM     38  O4  IDS C   3     143.608  35.247  40.2060  0.00  0.00     0.000 O
BRANCH 38 42
ATOM     39  C1  IDS C   3     141.194  35.714  42.6720  0.00  0.00     0.000 C
ATOM     40  C2  IDS C   3     141.773  34.320  42.3850  0.00  0.00     0.000 C
ATOM     41  C3  IDS C   3     141.679  33.977  40.8990  0.00  0.00     0.000 C
ATOM     42  C4  IDS C   3     142.192  35.122  40.0360  0.00  0.00     0.000 C
ATOM     43  C5  IDS C   3     141.499  36.429  40.4400  0.00  0.00     0.000 C
ATOM     44  O5  IDS C   3     141.764  36.691  41.8170  0.00  0.00     0.000 O
ATOM     45   O  IDS C   3     140.319  33.694  40.5640  0.00  0.00     0.000 O
ATOM     47  HD  IDS C   3     139.568  34.117  40.6450  0.00  0.00     0.000 HD
BRANCH 40 47
ATOM     47   O  IDS C   3     143.205  34.263  42.7650  0.00  0.00     0.000 O
ATOM     48   S  IDS C   3     143.731  33.087  43.7120  0.00  0.00     0.000 S
ATOM     49   O  IDS C   3     143.315  33.439  45.0520  0.00  0.00     0.000 OA
ATOM     50   O  IDS C   3     145.170  33.091  43.5610  0.00  0.00     0.000 OA
ATOM     51   O  IDS C   3     143.115  31.876  43.2370  0.00  0.00     0.000 OA
ENDBRANCH 40 47
BRANCH 43 52
ATOM     52   C  IDS C   3     141.940  37.609  39.6040  0.00  0.00     0.000 C
ATOM     53   O  IDS C   3     141.524  37.738  38.4760  0.00  0.00     0.000 OA
ATOM     54   O  IDS C   3     142.705  38.416  40.0670  0.00  0.00     0.000 OA
ENDBRANCH 43 52
BRANCH 39 55
ATOM     55  O4  SGN C   4     139.914  35.935  42.9710  0.00  0.00     0.000 O
BRANCH 55 59
ATOM     56  C1  SGN C   4     138.168  32.887  45.2430  0.00  0.00     0.000 C
ATOM     57  C2  SGN C   4     137.484  33.226  43.9070  0.00  0.00     0.000 C
ATOM     58  C3  SGN C   4     138.414  34.045  43.0160  0.00  0.00     0.000 C
ATOM     59  C4  SGN C   4     138.971  35.243  43.7770  0.00  0.00     0.000 C
ATOM     60  C5  SGN C   4     139.644  34.744  45.0540  0.00  0.00     0.000 C
ATOM     61  O5  SGN C   4     138.652  34.071  45.8550  0.00  0.00     0.000 O
ATOM     62   O  SGN C   4     137.710  34.470  41.8570  0.00  0.00     0.000 O
ATOM     64  HD  SGN C   4     137.320  33.732  42.0890  0.00  0.00     0.000 HD
BRANCH 57 66
ATOM     64   N  SGN C   4     137.045  31.863  43.5660  0.00  0.00     0.000 N
ATOM     66  HD  SGN C   4     136.497  31.281  43.8990  0.00  0.00     0.000 HD
ATOM     66   S  SGN C   4     135.493  31.527  43.4060  0.00  0.00     0.000 S
ATOM     67   O  SGN C   4     135.384  30.139  43.1400  0.00  0.00     0.000 OA
ATOM     68   O  SGN C   4     134.830  32.076  44.5380  0.00  0.00     0.000 OA
ATOM     69   O  SGN C   4     135.068  32.333  42.1370  0.00  0.00     0.000 OA
ENDBRANCH 57 66
BRANCH 60 70
ATOM     70   C  SGN C   4     140.248  35.847  45.8960  0.00  0.00     0.000 C
ATOM     71   O  SGN C   4     143.889  36.368  46.6550  0.00  0.00     0.000 OA
ATOM     72   O  SGN C   4     142.537  37.549  45.0350  0.00  0.00     0.000 OA
ATOM     73   O  SGN C   4     141.647  35.595  46.1280  0.00  0.00     0.000 O
ATOM     74   S  SGN C   4     142.581  36.880  46.3150  0.00  0.00     0.000 S
ATOM     75   O  SGN C   4     141.961  37.636  47.3850  0.00  0.00     0.000 OA
ENDBRANCH 60 70
BRANCH 56 76
ATOM     76  O4  IDS C   5     138.894  31.858  45.7180  0.00  0.00     0.000 O
BRANCH 76 80
ATOM     77  C1  IDS C   5     137.330  28.088  45.7210  0.00  0.00     0.000 C
ATOM     78  C2  IDS C   5     137.182  28.837  47.0450  0.00  0.00     0.000 C
ATOM     79  C3  IDS C   5     137.379  30.323  46.8200  0.00  0.00     0.000 C
ATOM     80  C4  IDS C   5     138.817  30.588  46.3830  0.00  0.00     0.000 C
ATOM     81  C5  IDS C   5     139.279  29.463  45.4470  0.00  0.00     0.000 C
ATOM     82  O5  IDS C   5     138.155  28.832  44.8250  0.00  0.00     0.000 O
BRANCH 78 83
ATOM     83   O  IDS C   5     135.833  28.625  47.6200  0.00  0.00     0.000 O
ATOM     84   S  IDS C   5     135.623  27.538  48.7680  0.00  0.00     0.000 S
ATOM     85   O  IDS C   5     136.267  26.340  48.3020  0.00  0.00     0.000 OA
ATOM     86   O  IDS C   5     136.250  28.101  49.9410  0.00  0.00     0.000 OA
ATOM     87   O  IDS C   5     134.195  27.397  48.9160  0.00  0.00     0.000 OA
ENDBRANCH 78 83
BRANCH 81 88
ATOM     88   C  IDS C   5     140.213  29.925  44.3430  0.00  0.00     0.000 C
ATOM     89   O  IDS C   5     139.761  30.409  43.3400  0.00  0.00     0.000 OA
ATOM     90   O  IDS C   5     141.409  29.804  44.4800  0.00  0.00     0.000 OA
ENDBRANCH 81 88
ENDBRANCH 76 80
ENDBRANCH 56 76
ENDBRANCH 55 59
ENDBRANCH 39 55
ENDBRANCH 38 42
ENDBRANCH 18 38
ENDBRANCH 17 21
ENDBRANCH 1 17
TORSDOF 18
ENDMDL
MODEL 21
REMARK VINA RESULT:      -6.9     10.521     16.402
ROOT
ATOM      1  C1  IDS C   1     146.292  35.545  39.7510  0.00  0.00     0.000 C
ATOM      2  C2  IDS C   1     147.086  34.823  38.6590  0.00  0.00     0.000 C
ATOM      3  C3  IDS C   1     148.579  34.879  38.9490  0.00  0.00     0.000 C
ATOM      4  C4  IDS C   1     149.053  36.322  39.0430  0.00  0.00     0.000 C
ATOM      5  C5  IDS C   1     148.009  37.171  39.7630  0.00  0.00     0.000 C
ATOM      6  O5  IDS C   1     147.159  36.338  40.5510  0.00  0.00     0.000 O
ATOM      7   O  IDS C   1     149.300  34.193  37.9160  0.00  0.00     0.000 O
ATOM      9  HD  IDS C   1     148.833  33.507  37.6670  0.00  0.00     0.000 HD
ENDROOT
BRANCH 2 9
ATOM      9   O  IDS C   1     146.700  33.395  38.5830  0.00  0.00     0.000 O
ATOM     10   S  IDS C   1     146.181  32.797  37.1990  0.00  0.00     0.000 S
ATOM     11   O  IDS C   1     145.904  31.400  37.4500  0.00  0.00     0.000 OA
ATOM     12   O  IDS C   1     144.993  33.556  36.8670  0.00  0.00     0.000 OA
ATOM     13   O  IDS C   1     147.258  32.994  36.2540  0.00  0.00     0.000 OA
ENDBRANCH 2 9
BRANCH 5 14
ATOM     14   C  IDS C   1     148.642  38.210  40.6720  0.00  0.00     0.000 C
ATOM     15   O  IDS C   1     148.759  39.347  40.2830  0.00  0.00     0.000 OA
ATOM     16   O  IDS C   1     149.029  37.888  41.7820  0.00  0.00     0.000 OA
ENDBRANCH 5 14
BRANCH 1 17
ATOM     17  O4  SGN C   2     145.163  35.057  40.2720  0.00  0.00     0.000 O
BRANCH 17 21
ATOM     18  C1  SGN C   2     142.962  32.668  42.9120  0.00  0.00     0.000 C
ATOM     19  C2  SGN C   2     144.464  32.795  43.1920  0.00  0.00     0.000 C
ATOM     20  C3  SGN C   2     145.033  34.000  42.4320  0.00  0.00     0.000 C
ATOM     21  C4  SGN C   2     144.684  33.899  40.9510  0.00  0.00     0.000 C
ATOM     22  C5  SGN C   2     143.170  33.782  40.8030  0.00  0.00     0.000 C
ATOM     23  O5  SGN C   2     142.697  32.622  41.5260  0.00  0.00     0.000 O
ATOM     24   O  SGN C   2     146.437  34.069  42.6190  0.00  0.00     0.000 O
ATOM     26  HD  SGN C   2     145.629  34.374  42.5540  0.00  0.00     0.000 HD
BRANCH 19 28
ATOM     26   N  SGN C   2     145.383  32.288  44.2200  0.00  0.00     0.000 N
ATOM     28  HD  SGN C   2     145.909  32.541  43.5810  0.00  0.00     0.000 HD
ATOM     28   O  SGN C   2     145.914  31.956  46.6350  0.00  0.00     0.000 OA
ATOM     29   S  SGN C   2     145.674  33.091  45.5830  0.00  0.00     0.000 S
ATOM     30   O  SGN C   2     146.880  33.805  45.4060  0.00  0.00     0.000 OA
ATOM     31   O  SGN C   2     144.488  33.792  45.9330  0.00  0.00     0.000 OA
ENDBRANCH 19 28
BRANCH 22 32
ATOM     32   C  SGN C   2     142.720  33.618  39.3720  0.00  0.00     0.000 C
ATOM     33   S  SGN C   2     140.522  33.384  38.0470  0.00  0.00     0.000 S
ATOM     34   O  SGN C   2     140.357  32.004  38.4310  0.00  0.00     0.000 OA
ATOM     35   O  SGN C   2     139.281  34.129  38.0120  0.00  0.00     0.000 OA
ATOM     36   O  SGN C   2     141.341  33.575  36.8730  0.00  0.00     0.000 OA
ATOM     37   O  SGN C   2     141.354  34.029  39.2470  0.00  0.00     0.000 O
ENDBRANCH 22 32
BRANCH 18 38
ATOM     38  O4  IDS C   3     141.930  33.348  43.4170  0.00  0.00     0.000 O
BRANCH 38 42
ATOM     39  C1  IDS C   3     138.609  34.340  43.7570  0.00  0.00     0.000 C
ATOM     40  C2  IDS C   3     139.761  35.312  44.0600  0.00  0.00     0.000 C
ATOM     41  C3  IDS C   3     140.761  34.697  45.0380  0.00  0.00     0.000 C
ATOM     42  C4  IDS C   3     141.149  33.287  44.6160  0.00  0.00     0.000 C
ATOM     43  C5  IDS C   3     139.887  32.450  44.3750  0.00  0.00     0.000 C
ATOM     44  O5  IDS C   3     139.102  33.072  43.3590  0.00  0.00     0.000 O
ATOM     45   O  IDS C   3     140.186  34.667  46.3460  0.00  0.00     0.000 O
ATOM     47  HD  IDS C   3     139.458  34.344  46.6880  0.00  0.00     0.000 HD
BRANCH 40 47
ATOM     47   O  IDS C   3     140.501  35.645  42.8190  0.00  0.00     0.000 O
ATOM     48   S  IDS C   3     139.767  36.448  41.6470  0.00  0.00     0.000 S
ATOM     49   O  IDS C   3     138.923  35.485  40.9730  0.00  0.00     0.000 OA
ATOM     50   O  IDS C   3     140.831  36.941  40.7990  0.00  0.00     0.000 OA
ATOM     51   O  IDS C   3     139.017  37.499  42.2820  0.00  0.00     0.000 OA
ENDBRANCH 40 47
BRANCH 43 52
ATOM     52   C  IDS C   3     140.196  31.024  43.9770  0.00  0.00     0.000 C
ATOM     53   O  IDS C   3     139.929  30.638  42.8630  0.00  0.00     0.000 OA
ATOM     54   O  IDS C   3     140.707  30.279  44.7740  0.00  0.00     0.000 OA
ENDBRANCH 43 52
BRANCH 39 55
ATOM     55  O4  SGN C   4     137.483  34.286  44.4680  0.00  0.00     0.000 O
BRANCH 55 59
ATOM     56  C1  SGN C   4     134.080  32.644  42.6710  0.00  0.00     0.000 C
ATOM     57  C2  SGN C   4     134.488  34.054  42.2100  0.00  0.00     0.000 C
ATOM     58  C3  SGN C   4     135.923  34.366  42.6280  0.00  0.00     0.000 C
ATOM     59  C4  SGN C   4     136.120  34.093  44.1150  0.00  0.00     0.000 C
ATOM     60  C5  SGN C   4     135.706  32.653  44.4090  0.00  0.00     0.000 C
ATOM     61  O5  SGN C   4     134.314  32.503  44.0630  0.00  0.00     0.000 O
ATOM     62   O  SGN C   4     136.223  35.721  42.3230  0.00  0.00     0.000 O
ATOM     64  HD  SGN C   4     135.624  35.495  41.7390  0.00  0.00     0.000 HD
BRANCH 57 66
ATOM     64   N  SGN C   4     133.220  33.952  41.4700  0.00  0.00     0.000 N
ATOM     66  HD  SGN C   4     132.597  34.499  41.2180  0.00  0.00     0.000 HD
ATOM     66   S  SGN C   4     132.949  34.872  40.1940  0.00  0.00     0.000 S
ATOM     67   O  SGN C   4     131.635  34.592  39.7400  0.00  0.00     0.000 OA
ATOM     68   O  SGN C   4     133.294  36.202  40.5590  0.00  0.00     0.000 OA
ATOM     69   O  SGN C   4     133.982  34.358  39.1410  0.00  0.00     0.000 OA
ENDBRANCH 57 66
BRANCH 60 70
ATOM     70   C  SGN C   4     135.866  32.255  45.8610  0.00  0.00     0.000 C
ATOM     71   O  SGN C   4     138.622  30.175  47.3380  0.00  0.00     0.000 OA
ATOM     72   O  SGN C   4     138.386  32.580  47.4170  0.00  0.00     0.000 OA
ATOM     73   O  SGN C   4     136.924  31.288  46.0050  0.00  0.00     0.000 O
ATOM     74   S  SGN C   4     137.717  31.299  47.3940  0.00  0.00     0.000 S
ATOM     75   O  SGN C   4     136.690  31.166  48.4080  0.00  0.00     0.000 OA
ENDBRANCH 60 70
BRANCH 56 76
ATOM     76  O4  IDS C   5     134.094  31.413  42.1290  0.00  0.00     0.000 O
BRANCH 76 80
ATOM     77  C1  IDS C   5     137.424  30.035  40.2140  0.00  0.00     0.000 C
ATOM     78  C2  IDS C   5     136.374  30.656  39.2930  0.00  0.00     0.000 C
ATOM     79  C3  IDS C   5     135.419  31.509  40.1040  0.00  0.00     0.000 C
ATOM     80  C4  IDS C   5     134.623  30.620  41.0550  0.00  0.00     0.000 C
ATOM     81  C5  IDS C   5     135.537  29.515  41.6040  0.00  0.00     0.000 C
ATOM     82  O5  IDS C   5     136.908  29.919  41.5400  0.00  0.00     0.000 O
BRANCH 78 83
ATOM     83   O  IDS C   5     137.016  31.515  38.2710  0.00  0.00     0.000 O
ATOM     84   S  IDS C   5     136.980  31.082  36.7360  0.00  0.00     0.000 S
ATOM     85   O  IDS C   5     137.395  29.705  36.7030  0.00  0.00     0.000 OA
ATOM     86   O  IDS C   5     135.610  31.272  36.3210  0.00  0.00     0.000 OA
ATOM     87   O  IDS C   5     137.895  31.969  36.0580  0.00  0.00     0.000 OA
ENDBRANCH 78 83
BRANCH 81 88
ATOM     88   C  IDS C   5     135.241  29.128  43.0410  0.00  0.00     0.000 C
ATOM     89   O  IDS C   5     136.114  29.175  43.8660  0.00  0.00     0.000 OA
ATOM     90   O  IDS C   5     134.125  28.776  43.3490  0.00  0.00     0.000 OA
ENDBRANCH 81 88
ENDBRANCH 76 80
ENDBRANCH 56 76
ENDBRANCH 55 59
ENDBRANCH 39 55
ENDBRANCH 38 42
ENDBRANCH 18 38
ENDBRANCH 17 21
ENDBRANCH 1 17
TORSDOF 18
ENDMDL
MODEL 22
REMARK VINA RESULT:      -6.9     10.147     15.724
ROOT
ATOM      1  C1  IDS C   1     146.687  35.313  39.6380  0.00  0.00     0.000 C
ATOM      2  C2  IDS C   1     147.260  34.613  38.4030  0.00  0.00     0.000 C
ATOM      3  C3  IDS C   1     148.781  34.618  38.4350  0.00  0.00     0.000 C
ATOM      4  C4  IDS C   1     149.312  36.044  38.4950  0.00  0.00     0.000 C
ATOM      5  C5  IDS C   1     148.433  36.891  39.4110  0.00  0.00     0.000 C
ATOM      6  O5  IDS C   1     147.703  36.051  40.3050  0.00  0.00     0.000 O
ATOM      7   O  IDS C   1     149.293  33.954  37.2720  0.00  0.00     0.000 O
ATOM      9  HD  IDS C   1     148.769  33.290  37.0840  0.00  0.00     0.000 HD
ENDROOT
BRANCH 2 9
ATOM      9   O  IDS C   1     146.819  33.200  38.3460  0.00  0.00     0.000 O
ATOM     10   S  IDS C   1     146.142  32.643  37.0150  0.00  0.00     0.000 S
ATOM     11   O  IDS C   1     145.845  31.252  37.2730  0.00  0.00     0.000 OA
ATOM     12   O  IDS C   1     144.953  33.447  36.8170  0.00  0.00     0.000 OA
ATOM     13   O  IDS C   1     147.123  32.823  35.9670  0.00  0.00     0.000 OA
ENDBRANCH 2 9
BRANCH 5 14
ATOM     14   C  IDS C   1     149.245  37.878  40.2320  0.00  0.00     0.000 C
ATOM     15   O  IDS C   1     148.694  38.824  40.7390  0.00  0.00     0.000 OA
ATOM     16   O  IDS C   1     150.445  37.707  40.3700  0.00  0.00     0.000 OA
ENDBRANCH 5 14
BRANCH 1 17
ATOM     17  O4  SGN C   2     145.647  34.836  40.3280  0.00  0.00     0.000 O
BRANCH 17 21
ATOM     18  C1  SGN C   2     143.824  33.023  43.6330  0.00  0.00     0.000 C
ATOM     19  C2  SGN C   2     145.278  33.478  43.8140  0.00  0.00     0.000 C
ATOM     20  C3  SGN C   2     145.652  34.474  42.7090  0.00  0.00     0.000 C
ATOM     21  C4  SGN C   2     145.356  33.874  41.3390  0.00  0.00     0.000 C
ATOM     22  C5  SGN C   2     143.887  33.467  41.2810  0.00  0.00     0.000 C
ATOM     23  O5  SGN C   2     143.600  32.518  42.3330  0.00  0.00     0.000 O
ATOM     24   O  SGN C   2     147.020  34.829  42.8230  0.00  0.00     0.000 O
ATOM     26  HD  SGN C   2     146.174  34.961  42.6940  0.00  0.00     0.000 HD
BRANCH 19 28
ATOM     26   N  SGN C   2     145.369  33.613  45.2740  0.00  0.00     0.000 N
ATOM     28  HD  SGN C   2     144.718  33.055  45.1590  0.00  0.00     0.000 HD
ATOM     28   O  SGN C   2     146.775  33.971  47.3030  0.00  0.00     0.000 OA
ATOM     29   S  SGN C   2     146.569  32.962  46.1240  0.00  0.00     0.000 S
ATOM     30   O  SGN C   2     146.101  31.739  46.6530  0.00  0.00     0.000 OA
ATOM     31   O  SGN C   2     147.733  32.975  45.3070  0.00  0.00     0.000 OA
ENDBRANCH 19 28
BRANCH 22 32
ATOM     32   C  SGN C   2     143.501  32.806  39.9800  0.00  0.00     0.000 C
ATOM     33   S  SGN C   2     141.465  32.668  38.4050  0.00  0.00     0.000 S
ATOM     34   O  SGN C   2     140.771  31.748  39.2710  0.00  0.00     0.000 OA
ATOM     35   O  SGN C   2     140.599  33.651  37.7890  0.00  0.00     0.000 OA
ATOM     36   O  SGN C   2     142.369  32.035  37.4750  0.00  0.00     0.000 OA
ATOM     37   O  SGN C   2     142.399  33.507  39.3920  0.00  0.00     0.000 O
ENDBRANCH 22 32
BRANCH 18 38
ATOM     38  O4  IDS C   3     142.683  33.642  43.9410  0.00  0.00     0.000 O
BRANCH 38 42
ATOM     39  C1  IDS C   3     139.648  35.343  44.0860  0.00  0.00     0.000 C
ATOM     40  C2  IDS C   3     140.900  35.898  44.7830  0.00  0.00     0.000 C
ATOM     41  C3  IDS C   3     141.540  34.847  45.6900  0.00  0.00     0.000 C
ATOM     42  C4  IDS C   3     141.692  33.516  44.9670  0.00  0.00     0.000 C
ATOM     43  C5  IDS C   3     140.350  33.103  44.3500  0.00  0.00     0.000 C
ATOM     44  O5  IDS C   3     139.925  34.113  43.4380  0.00  0.00     0.000 O
ATOM     45   O  IDS C   3     140.732  34.673  46.8550  0.00  0.00     0.000 O
ATOM     47  HD  IDS C   3     139.901  34.478  47.0010  0.00  0.00     0.000 HD
BRANCH 40 47
ATOM     47   O  IDS C   3     141.917  36.300  43.7820  0.00  0.00     0.000 O
ATOM     48   S  IDS C   3     142.948  37.474  44.1230  0.00  0.00     0.000 S
ATOM     49   O  IDS C   3     142.208  38.709  43.9740  0.00  0.00     0.000 OA
ATOM     50   O  IDS C   3     144.009  37.345  43.1480  0.00  0.00     0.000 OA
ATOM     51   O  IDS C   3     143.390  37.248  45.4730  0.00  0.00     0.000 OA
ENDBRANCH 40 47
BRANCH 43 52
ATOM     52   C  IDS C   3     140.418  31.771  43.6370  0.00  0.00     0.000 C
ATOM     53   O  IDS C   3     139.911  31.644  42.5470  0.00  0.00     0.000 OA
ATOM     54   O  IDS C   3     140.979  30.841  44.1600  0.00  0.00     0.000 OA
ENDBRANCH 43 52
BRANCH 39 55
ATOM     55  O4  SGN C   4     138.421  35.420  44.6020  0.00  0.00     0.000 O
BRANCH 55 59
ATOM     56  C1  SGN C   4     135.203  35.104  41.9470  0.00  0.00     0.000 C
ATOM     57  C2  SGN C   4     135.913  36.467  42.0070  0.00  0.00     0.000 C
ATOM     58  C3  SGN C   4     137.272  36.340  42.6890  0.00  0.00     0.000 C
ATOM     59  C4  SGN C   4     137.137  35.625  44.0280  0.00  0.00     0.000 C
ATOM     60  C5  SGN C   4     136.448  34.281  43.8000  0.00  0.00     0.000 C
ATOM     61  O5  SGN C   4     135.143  34.531  43.2430  0.00  0.00     0.000 O
ATOM     62   O  SGN C   4     137.839  37.631  42.8650  0.00  0.00     0.000 O
ATOM     64  HD  SGN C   4     137.334  37.710  42.1660  0.00  0.00     0.000 HD
BRANCH 57 66
ATOM     64   N  SGN C   4     134.745  37.045  41.3220  0.00  0.00     0.000 N
ATOM     66  HD  SGN C   4     134.447  37.841  41.1580  0.00  0.00     0.000 HD
ATOM     66   S  SGN C   4     134.937  38.124  40.1620  0.00  0.00     0.000 S
ATOM     67   O  SGN C   4     133.645  38.533  39.7440  0.00  0.00     0.000 OA
ATOM     68   O  SGN C   4     135.856  39.096  40.6450  0.00  0.00     0.000 OA
ATOM     69   O  SGN C   4     135.622  37.316  39.0130  0.00  0.00     0.000 OA
ENDBRANCH 57 66
BRANCH 60 70
ATOM     70   C  SGN C   4     136.264  33.467  45.0630  0.00  0.00     0.000 C
ATOM     71   O  SGN C   4     138.377  30.585  46.2180  0.00  0.00     0.000 OA
ATOM     72   O  SGN C   4     138.444  32.871  47.0050  0.00  0.00     0.000 OA
ATOM     73   O  SGN C   4     137.137  32.321  45.0570  0.00  0.00     0.000 O
ATOM     74   S  SGN C   4     137.633  31.795  46.4830  0.00  0.00     0.000 S
ATOM     75   O  SGN C   4     136.416  31.570  47.2380  0.00  0.00     0.000 OA
ENDBRANCH 60 70
BRANCH 56 76
ATOM     76  O4  IDS C   5     135.122  34.100  41.0540  0.00  0.00     0.000 O
BRANCH 76 80
ATOM     77  C1  IDS C   5     135.838  31.496  37.9940  0.00  0.00     0.000 C
ATOM     78  C2  IDS C   5     136.141  32.958  37.6670  0.00  0.00     0.000 C
ATOM     79  C3  IDS C   5     136.269  33.756  38.9490  0.00  0.00     0.000 C
ATOM     80  C4  IDS C   5     134.923  33.791  39.6660  0.00  0.00     0.000 C
ATOM     81  C5  IDS C   5     134.231  32.428  39.5150  0.00  0.00     0.000 C
ATOM     82  O5  IDS C   5     135.194  31.401  39.2650  0.00  0.00     0.000 O
BRANCH 78 83
ATOM     83   O  IDS C   5     137.411  33.074  36.9130  0.00  0.00     0.000 O
ATOM     84   S  IDS C   5     137.433  33.830  35.5080  0.00  0.00     0.000 S
ATOM     85   O  IDS C   5     136.338  33.287  34.7500  0.00  0.00     0.000 OA
ATOM     86   O  IDS C   5     137.265  35.228  35.8280  0.00  0.00     0.000 OA
ATOM     87   O  IDS C   5     138.724  33.543  34.9310  0.00  0.00     0.000 OA
ENDBRANCH 78 83
BRANCH 81 88
ATOM     88   C  IDS C   5     133.421  32.011  40.7290  0.00  0.00     0.000 C
ATOM     89   O  IDS C   5     132.341  32.500  40.9250  0.00  0.00     0.000 OA
ATOM     90   O  IDS C   5     133.868  31.185  41.4910  0.00  0.00     0.000 OA
ENDBRANCH 81 88
ENDBRANCH 76 80
ENDBRANCH 56 76
ENDBRANCH 55 59
ENDBRANCH 39 55
ENDBRANCH 38 42
ENDBRANCH 18 38
ENDBRANCH 17 21
ENDBRANCH 1 17
TORSDOF 18
ENDMDL
MODEL 23
REMARK VINA RESULT:      -6.8      4.103      5.981
ROOT
ATOM      1  C1  IDS C   1     159.449  35.174  47.5780  0.00  0.00     0.000 C
ATOM      2  C2  IDS C   1     159.860  33.704  47.7000  0.00  0.00     0.000 C
ATOM      3  C3  IDS C   1     161.157  33.441  46.9490  0.00  0.00     0.000 C
ATOM      4  C4  IDS C   1     161.007  33.800  45.4770  0.00  0.00     0.000 C
ATOM      5  C5  IDS C   1     160.176  35.071  45.3300  0.00  0.00     0.000 C
ATOM      6  O5  IDS C   1     160.195  35.813  46.5500  0.00  0.00     0.000 O
ATOM      7   O  IDS C   1     161.522  32.060  47.0810  0.00  0.00     0.000 O
ATOM      9  HD  IDS C   1     161.307  31.797  47.8780  0.00  0.00     0.000 HD
ENDROOT
BRANCH 2 9
ATOM      9   O  IDS C   1     160.081  33.335  49.1160  0.00  0.00     0.000 O
ATOM     10   S  IDS C   1     159.227  32.152  49.7610  0.00  0.00     0.000 S
ATOM     11   O  IDS C   1     159.684  32.032  51.1270  0.00  0.00     0.000 OA
ATOM     12   O  IDS C   1     157.844  32.573  49.6630  0.00  0.00     0.000 OA
ATOM     13   O  IDS C   1     159.516  30.978  48.9670  0.00  0.00     0.000 OA
ENDBRANCH 2 9
BRANCH 5 14
ATOM     14   C  IDS C   1     160.689  35.965  44.2140  0.00  0.00     0.000 C
ATOM     15   O  IDS C   1     160.565  37.162  44.3080  0.00  0.00     0.000 OA
ATOM     16   O  IDS C   1     161.218  35.468  43.2350  0.00  0.00     0.000 OA
ENDBRANCH 5 14
BRANCH 1 17
ATOM     17  O4  SGN C   2     158.986  35.888  48.6080  0.00  0.00     0.000 O
BRANCH 17 21
ATOM     18  C1  SGN C   2     159.369  38.635  51.7440  0.00  0.00     0.000 C
ATOM     19  C2  SGN C   2     160.561  38.515  50.7870  0.00  0.00     0.000 C
ATOM     20  C3  SGN C   2     160.121  37.819  49.4930  0.00  0.00     0.000 C
ATOM     21  C4  SGN C   2     159.448  36.490  49.8150  0.00  0.00     0.000 C
ATOM     22  C5  SGN C   2     158.281  36.740  50.7650  0.00  0.00     0.000 C
ATOM     23  O5  SGN C   2     158.760  37.381  51.9700  0.00  0.00     0.000 O
ATOM     24   O  SGN C   2     161.240  37.629  48.6430  0.00  0.00     0.000 O
ATOM     26  HD  SGN C   2     160.422  37.831  48.8460  0.00  0.00     0.000 HD
BRANCH 19 28
ATOM     26   N  SGN C   2     161.275  39.772  51.0500  0.00  0.00     0.000 N
ATOM     28  HD  SGN C   2     160.925  39.570  51.8160  0.00  0.00     0.000 HD
ATOM     28   O  SGN C   2     163.208  41.273  50.5690  0.00  0.00     0.000 OA
ATOM     29   S  SGN C   2     162.879  39.849  51.1300  0.00  0.00     0.000 S
ATOM     30   O  SGN C   2     163.239  39.807  52.4950  0.00  0.00     0.000 OA
ATOM     31   O  SGN C   2     163.403  38.877  50.2350  0.00  0.00     0.000 OA
ENDBRANCH 19 28
BRANCH 22 32
ATOM     32   C  SGN C   2     157.577  35.476  51.1950  0.00  0.00     0.000 C
ATOM     33   S  SGN C   2     156.028  34.668  53.0890  0.00  0.00     0.000 S
ATOM     34   O  SGN C   2     157.113  34.581  54.0340  0.00  0.00     0.000 OA
ATOM     35   O  SGN C   2     154.795  35.164  53.6650  0.00  0.00     0.000 OA
ATOM     36   O  SGN C   2     155.850  33.481  52.2860  0.00  0.00     0.000 OA
ATOM     37   O  SGN C   2     156.487  35.803  52.0650  0.00  0.00     0.000 O
ENDBRANCH 22 32
BRANCH 18 38
ATOM     38  O4  IDS C   3     158.348  39.496  51.7450  0.00  0.00     0.000 O
BRANCH 38 42
ATOM     39  C1  IDS C   3     156.481  42.329  50.9650  0.00  0.00     0.000 C
ATOM     40  C2  IDS C   3     158.004  42.412  51.1530  0.00  0.00     0.000 C
ATOM     41  C3  IDS C   3     158.431  41.790  52.4820  0.00  0.00     0.000 C
ATOM     42  C4  IDS C   3     157.790  40.424  52.6820  0.00  0.00     0.000 C
ATOM     43  C5  IDS C   3     156.274  40.526  52.4780  0.00  0.00     0.000 C
ATOM     44  O5  IDS C   3     156.012  41.006  51.1600  0.00  0.00     0.000 O
ATOM     45   O  IDS C   3     158.057  42.659  53.5530  0.00  0.00     0.000 O
ATOM     47  HD  IDS C   3     157.316  43.024  53.8150  0.00  0.00     0.000 HD
BRANCH 40 47
ATOM     47   O  IDS C   3     158.702  41.676  50.0730  0.00  0.00     0.000 O
ATOM     48   S  IDS C   3     158.625  42.210  48.5670  0.00  0.00     0.000 S
ATOM     49   O  IDS C   3     157.316  41.831  48.0790  0.00  0.00     0.000 OA
ATOM     50   O  IDS C   3     159.694  41.532  47.8680  0.00  0.00     0.000 OA
ATOM     51   O  IDS C   3     158.805  43.636  48.6310  0.00  0.00     0.000 OA
ENDBRANCH 40 47
BRANCH 43 52
ATOM     52   C  IDS C   3     155.564  39.207  52.6880  0.00  0.00     0.000 C
ATOM     53   O  IDS C   3     155.670  38.627  53.7440  0.00  0.00     0.000 OA
ATOM     54   O  IDS C   3     154.895  38.740  51.8010  0.00  0.00     0.000 OA
ENDBRANCH 43 52
BRANCH 39 55
ATOM     55  O4  SGN C   4     155.633  43.272  51.3780  0.00  0.00     0.000 O
BRANCH 55 59
ATOM     56  C1  SGN C   4     152.036  43.775  49.3010  0.00  0.00     0.000 C
ATOM     57  C2  SGN C   4     153.310  44.286  48.6050  0.00  0.00     0.000 C
ATOM     58  C3  SGN C   4     154.557  43.700  49.2610  0.00  0.00     0.000 C
ATOM     59  C4  SGN C   4     154.520  43.912  50.7700  0.00  0.00     0.000 C
ATOM     60  C5  SGN C   4     153.220  43.325  51.3160  0.00  0.00     0.000 C
ATOM     61  O5  SGN C   4     152.117  44.016  50.6960  0.00  0.00     0.000 O
ATOM     62   O  SGN C   4     155.717  44.301  48.6990  0.00  0.00     0.000 O
ATOM     64  HD  SGN C   4     155.126  44.337  48.0670  0.00  0.00     0.000 HD
BRANCH 57 66
ATOM     64   N  SGN C   4     152.510  45.141  47.7130  0.00  0.00     0.000 N
ATOM     66  HD  SGN C   4     152.673  45.737  47.1060  0.00  0.00     0.000 HD
ATOM     66   S  SGN C   4     152.764  45.132  46.1380  0.00  0.00     0.000 S
ATOM     67   O  SGN C   4     151.894  46.092  45.5620  0.00  0.00     0.000 OA
ATOM     68   O  SGN C   4     154.167  45.253  45.9410  0.00  0.00     0.000 OA
ATOM     69   O  SGN C   4     152.318  43.700  45.6990  0.00  0.00     0.000 OA
ENDBRANCH 57 66
BRANCH 60 70
ATOM     70   C  SGN C   4     153.069  43.465  52.8160  0.00  0.00     0.000 C
ATOM     71   O  SGN C   4     154.337  41.099  55.4410  0.00  0.00     0.000 OA
ATOM     72   O  SGN C   4     155.314  43.202  54.7570  0.00  0.00     0.000 OA
ATOM     73   O  SGN C   4     153.500  42.262  53.4810  0.00  0.00     0.000 O
ATOM     74   S  SGN C   4     154.103  42.437  54.9510  0.00  0.00     0.000 S
ATOM     75   O  SGN C   4     153.081  43.152  55.6890  0.00  0.00     0.000 OA
ENDBRANCH 60 70
BRANCH 56 76
ATOM     76  O4  IDS C   5     151.182  42.752  49.1130  0.00  0.00     0.000 O
BRANCH 76 80
ATOM     77  C1  IDS C   5     152.314  38.835  49.2970  0.00  0.00     0.000 C
ATOM     78  C2  IDS C   5     152.401  39.455  47.9030  0.00  0.00     0.000 C
ATOM     79  C3  IDS C   5     152.394  40.968  48.0120  0.00  0.00     0.000 C
ATOM     80  C4  IDS C   5     151.048  41.434  48.5600  0.00  0.00     0.000 C
ATOM     81  C5  IDS C   5     150.568  40.448  49.6340  0.00  0.00     0.000 C
ATOM     82  O5  IDS C   5     151.675  39.740  50.1980  0.00  0.00     0.000 O
BRANCH 78 83
ATOM     83   O  IDS C   5     153.649  39.041  47.2220  0.00  0.00     0.000 O
ATOM     84   S  IDS C   5     153.653  38.812  45.6430  0.00  0.00     0.000 S
ATOM     85   O  IDS C   5     152.515  37.978  45.3620  0.00  0.00     0.000 OA
ATOM     86   O  IDS C   5     153.545  40.133  45.0690  0.00  0.00     0.000 OA
ATOM     87   O  IDS C   5     154.913  38.177  45.3430  0.00  0.00     0.000 OA
ENDBRANCH 78 83
BRANCH 81 88
ATOM     88   C  IDS C   5     149.813  41.102  50.7780  0.00  0.00     0.000 C
ATOM     89   O  IDS C   5     150.391  41.380  51.7940  0.00  0.00     0.000 OA
ATOM     90   O  IDS C   5     148.634  41.341  50.6570  0.00  0.00     0.000 OA
ENDBRANCH 81 88
ENDBRANCH 76 80
ENDBRANCH 56 76
ENDBRANCH 55 59
ENDBRANCH 39 55
ENDBRANCH 38 42
ENDBRANCH 18 38
ENDBRANCH 17 21
ENDBRANCH 1 17
TORSDOF 18
ENDMDL
MODEL 24
REMARK VINA RESULT:      -6.7      7.434     16.696
ROOT
ATOM      1  C1  IDS C   1     156.905  37.875  52.8350  0.00  0.00     0.000 C
ATOM      2  C2  IDS C   1     155.700  36.959  53.0640  0.00  0.00     0.000 C
ATOM      3  C3  IDS C   1     154.414  37.633  52.6090  0.00  0.00     0.000 C
ATOM      4  C4  IDS C   1     154.200  38.941  53.3570  0.00  0.00     0.000 C
ATOM      5  C5  IDS C   1     155.530  39.667  53.5350  0.00  0.00     0.000 C
ATOM      6  O5  IDS C   1     156.474  39.204  52.5690  0.00  0.00     0.000 O
ATOM      7   O  IDS C   1     153.301  36.755  52.8290  0.00  0.00     0.000 O
ATOM      9  HD  IDS C   1     153.560  35.943  52.6710  0.00  0.00     0.000 HD
ENDROOT
BRANCH 2 9
ATOM      9   O  IDS C   1     155.841  35.701  52.2960  0.00  0.00     0.000 O
ATOM     10   S  IDS C   1     155.780  34.304  53.0620  0.00  0.00     0.000 S
ATOM     11   O  IDS C   1     155.932  33.287  52.0460  0.00  0.00     0.000 OA
ATOM     12   O  IDS C   1     156.879  34.328  54.0050  0.00  0.00     0.000 OA
ATOM     13   O  IDS C   1     154.485  34.263  53.7070  0.00  0.00     0.000 OA
ENDBRANCH 2 9
BRANCH 5 14
ATOM     14   C  IDS C   1     155.386  41.172  53.3840  0.00  0.00     0.000 C
ATOM     15   O  IDS C   1     155.042  41.632  52.3230  0.00  0.00     0.000 OA
ATOM     16   O  IDS C   1     155.622  41.900  54.3330  0.00  0.00     0.000 OA
ENDBRANCH 5 14
BRANCH 1 17
ATOM     17  O4  SGN C   2     158.067  37.439  52.3400  0.00  0.00     0.000 O
BRANCH 17 21
ATOM     18  C1  SGN C   2     161.146  37.244  49.5100  0.00  0.00     0.000 C
ATOM     19  C2  SGN C   2     160.173  38.424  49.3870  0.00  0.00     0.000 C
ATOM     20  C3  SGN C   2     159.396  38.595  50.6970  0.00  0.00     0.000 C
ATOM     21  C4  SGN C   2     158.729  37.281  51.0880  0.00  0.00     0.000 C
ATOM     22  C5  SGN C   2     159.794  36.192  51.1830  0.00  0.00     0.000 C
ATOM     23  O5  SGN C   2     160.480  36.067  49.9160  0.00  0.00     0.000 O
ATOM     24   O  SGN C   2     158.436  39.629  50.5570  0.00  0.00     0.000 O
ATOM     26  HD  SGN C   2     159.054  39.168  50.9520  0.00  0.00     0.000 HD
BRANCH 19 28
ATOM     26   N  SGN C   2     160.953  39.361  48.5660  0.00  0.00     0.000 N
ATOM     28  HD  SGN C   2     161.211  38.581  48.2900  0.00  0.00     0.000 HD
ATOM     28   O  SGN C   2     161.108  41.557  47.3940  0.00  0.00     0.000 OA
ATOM     29   S  SGN C   2     160.290  40.222  47.3810  0.00  0.00     0.000 S
ATOM     30   O  SGN C   2     160.549  39.546  46.1680  0.00  0.00     0.000 OA
ATOM     31   O  SGN C   2     158.948  40.508  47.7540  0.00  0.00     0.000 OA
ENDBRANCH 19 28
BRANCH 22 32
ATOM     32   C  SGN C   2     159.230  34.831  51.5090  0.00  0.00     0.000 C
ATOM     33   S  SGN C   2     159.402  32.406  50.6530  0.00  0.00     0.000 S
ATOM     34   O  SGN C   2     158.547  32.671  49.5230  0.00  0.00     0.000 OA
ATOM     35   O  SGN C   2     160.505  31.518  50.3510  0.00  0.00     0.000 OA
ATOM     36   O  SGN C   2     158.690  32.049  51.8580  0.00  0.00     0.000 OA
ATOM     37   O  SGN C   2     160.083  33.814  50.9710  0.00  0.00     0.000 O
ENDBRANCH 22 32
BRANCH 18 38
ATOM     38  O4  IDS C   3     162.335  37.167  50.1100  0.00  0.00     0.000 O
BRANCH 38 42
ATOM     39  C1  IDS C   3     165.424  38.122  51.4040  0.00  0.00     0.000 C
ATOM     40  C2  IDS C   3     164.910  38.699  50.0760  0.00  0.00     0.000 C
ATOM     41  C3  IDS C   3     164.491  37.586  49.1150  0.00  0.00     0.000 C
ATOM     42  C4  IDS C   3     163.599  36.566  49.8090  0.00  0.00     0.000 C
ATOM     43  C5  IDS C   3     164.270  36.082  51.1010  0.00  0.00     0.000 C
ATOM     44  O5  IDS C   3     164.497  37.202  51.9550  0.00  0.00     0.000 O
ATOM     45   O  IDS C   3     165.658  36.938  48.6050  0.00  0.00     0.000 O
ATOM     47  HD  IDS C   3     166.346  36.549  48.9590  0.00  0.00     0.000 HD
BRANCH 40 47
ATOM     47   O  IDS C   3     163.723  39.557  50.3060  0.00  0.00     0.000 O
ATOM     48   S  IDS C   3     163.907  41.135  50.4920  0.00  0.00     0.000 S
ATOM     49   O  IDS C   3     164.394  41.321  51.8420  0.00  0.00     0.000 OA
ATOM     50   O  IDS C   3     162.588  41.697  50.2970  0.00  0.00     0.000 OA
ATOM     51   O  IDS C   3     164.854  41.555  49.4940  0.00  0.00     0.000 OA
ENDBRANCH 40 47
BRANCH 43 52
ATOM     52   C  IDS C   3     163.451  35.042  51.8320  0.00  0.00     0.000 C
ATOM     53   O  IDS C   3     163.305  33.942  51.3510  0.00  0.00     0.000 OA
ATOM     54   O  IDS C   3     162.948  35.316  52.8930  0.00  0.00     0.000 OA
ENDBRANCH 43 52
BRANCH 39 55
ATOM     55  O4  SGN C   4     166.700  37.807  51.6280  0.00  0.00     0.000 O
BRANCH 55 59
ATOM     56  C1  SGN C   4     168.692  39.431  54.9300  0.00  0.00     0.000 C
ATOM     57  C2  SGN C   4     168.336  40.406  53.7940  0.00  0.00     0.000 C
ATOM     58  C3  SGN C   4     167.292  39.794  52.8630  0.00  0.00     0.000 C
ATOM     59  C4  SGN C   4     167.726  38.406  52.4070  0.00  0.00     0.000 C
ATOM     60  C5  SGN C   4     168.010  37.551  53.6400  0.00  0.00     0.000 C
ATOM     61  O5  SGN C   4     169.071  38.175  54.3900  0.00  0.00     0.000 O
ATOM     62   O  SGN C   4     167.092  40.649  51.7460  0.00  0.00     0.000 O
ATOM     64  HD  SGN C   4     167.335  41.181  52.3850  0.00  0.00     0.000 HD
BRANCH 57 66
ATOM     64   N  SGN C   4     168.803  41.358  54.8150  0.00  0.00     0.000 N
ATOM     66  HD  SGN C   4     169.428  41.954  54.8740  0.00  0.00     0.000 HD
ATOM     66   S  SGN C   4     168.941  42.910  54.4730  0.00  0.00     0.000 S
ATOM     67   O  SGN C   4     169.466  43.553  55.6230  0.00  0.00     0.000 OA
ATOM     68   O  SGN C   4     169.641  43.005  53.2390  0.00  0.00     0.000 OA
ATOM     69   O  SGN C   4     167.466  43.373  54.2490  0.00  0.00     0.000 OA
ENDBRANCH 57 66
BRANCH 60 70
ATOM     70   C  SGN C   4     168.443  36.137  53.3160  0.00  0.00     0.000 C
ATOM     71   O  SGN C   4     166.224  33.135  52.9070  0.00  0.00     0.000 OA
ATOM     72   O  SGN C   4     167.238  34.467  51.1620  0.00  0.00     0.000 OA
ATOM     73   O  SGN C   4     167.334  35.227  53.4470  0.00  0.00     0.000 O
ATOM     74   S  SGN C   4     167.355  33.937  52.5020  0.00  0.00     0.000 S
ATOM     75   O  SGN C   4     168.634  33.307  52.7630  0.00  0.00     0.000 OA
ENDBRANCH 60 70
BRANCH 56 76
ATOM     76  O4  IDS C   5     168.260  39.220  56.1870  0.00  0.00     0.000 O
BRANCH 76 80
ATOM     77  C1  IDS C   5     170.254  40.817  59.3700  0.00  0.00     0.000 C
ATOM     78  C2  IDS C   5     170.651  39.381  59.0290  0.00  0.00     0.000 C
ATOM     79  C3  IDS C   5     170.206  39.046  57.6190  0.00  0.00     0.000 C
ATOM     80  C4  IDS C   5     168.682  39.053  57.5490  0.00  0.00     0.000 C
ATOM     81  C5  IDS C   5     168.138  40.194  58.4220  0.00  0.00     0.000 C
ATOM     82  O5  IDS C   5     169.127  41.214  58.5890  0.00  0.00     0.000 O
BRANCH 78 83
ATOM     83   O  IDS C   5     172.121  39.210  59.1090  0.00  0.00     0.000 O
ATOM     84   S  IDS C   5     172.739  38.116  60.0910  0.00  0.00     0.000 S
ATOM     85   O  IDS C   5     172.092  38.313  61.3610  0.00  0.00     0.000 OA
ATOM     86   O  IDS C   5     172.425  36.843  59.4850  0.00  0.00     0.000 OA
ATOM     87   O  IDS C   5     174.157  38.380  60.1270  0.00  0.00     0.000 OA
ENDBRANCH 78 83
BRANCH 81 88
ATOM     88   C  IDS C   5     166.890  40.854  57.8650  0.00  0.00     0.000 C
ATOM     89   O  IDS C   5     165.830  40.291  57.9420  0.00  0.00     0.000 OA
ATOM     90   O  IDS C   5     166.969  41.945  57.3480  0.00  0.00     0.000 OA
ENDBRANCH 81 88
ENDBRANCH 76 80
ENDBRANCH 56 76
ENDBRANCH 55 59
ENDBRANCH 39 55
ENDBRANCH 38 42
ENDBRANCH 18 38
ENDBRANCH 17 21
ENDBRANCH 1 17
TORSDOF 18
ENDMDL
MODEL 25
REMARK VINA RESULT:      -6.7     10.574     16.167
ROOT
ATOM      1  C1  IDS C   1     146.424  35.421  39.3990  0.00  0.00     0.000 C
ATOM      2  C2  IDS C   1     147.115  34.684  38.2480  0.00  0.00     0.000 C
ATOM      3  C3  IDS C   1     148.627  34.816  38.3520  0.00  0.00     0.000 C
ATOM      4  C4  IDS C   1     149.042  36.281  38.3310  0.00  0.00     0.000 C
ATOM      5  C5  IDS C   1     148.052  37.116  39.1380  0.00  0.00     0.000 C
ATOM      6  O5  IDS C   1     147.343  36.285  40.0570  0.00  0.00     0.000 O
ATOM      7   O  IDS C   1     149.251  34.115  37.2670  0.00  0.00     0.000 O
ATOM      9  HD  IDS C   1     148.791  33.400  37.1040  0.00  0.00     0.000 HD
ENDROOT
BRANCH 2 9
ATOM      9   O  IDS C   1     146.790  33.240  38.2760  0.00  0.00     0.000 O
ATOM     10   S  IDS C   1     146.213  32.541  36.9630  0.00  0.00     0.000 S
ATOM     11   O  IDS C   1     146.016  31.151  37.3090  0.00  0.00     0.000 OA
ATOM     12   O  IDS C   1     144.974  33.230  36.6670  0.00  0.00     0.000 OA
ATOM     13   O  IDS C   1     147.220  32.728  35.9420  0.00  0.00     0.000 OA
ENDBRANCH 2 9
BRANCH 5 14
ATOM     14   C  IDS C   1     148.740  38.221  39.9220  0.00  0.00     0.000 C
ATOM     15   O  IDS C   1     148.555  38.310  41.1110  0.00  0.00     0.000 OA
ATOM     16   O  IDS C   1     149.471  39.008  39.3440  0.00  0.00     0.000 OA
ENDBRANCH 5 14
BRANCH 1 17
ATOM     17  O4  SGN C   2     145.390  34.911  40.0730  0.00  0.00     0.000 O
BRANCH 17 21
ATOM     18  C1  SGN C   2     143.586  33.057  43.3640  0.00  0.00     0.000 C
ATOM     19  C2  SGN C   2     145.026  33.547  43.5560  0.00  0.00     0.000 C
ATOM     20  C3  SGN C   2     145.385  34.551  42.4540  0.00  0.00     0.000 C
ATOM     21  C4  SGN C   2     145.114  33.943  41.0820  0.00  0.00     0.000 C
ATOM     22  C5  SGN C   2     143.656  33.501  41.0120  0.00  0.00     0.000 C
ATOM     23  O5  SGN C   2     143.384  32.545  42.0630  0.00  0.00     0.000 O
ATOM     24   O  SGN C   2     146.742  34.939  42.5780  0.00  0.00     0.000 O
ATOM     26  HD  SGN C   2     145.894  35.051  42.4430  0.00  0.00     0.000 HD
BRANCH 19 28
ATOM     26   N  SGN C   2     145.106  33.665  45.0190  0.00  0.00     0.000 N
ATOM     28  HD  SGN C   2     144.492  33.067  44.8940  0.00  0.00     0.000 HD
ATOM     28   O  SGN C   2     146.484  34.079  47.0570  0.00  0.00     0.000 OA
ATOM     29   S  SGN C   2     146.344  33.078  45.8610  0.00  0.00     0.000 S
ATOM     30   O  SGN C   2     145.954  31.819  46.3700  0.00  0.00     0.000 OA
ATOM     31   O  SGN C   2     147.506  33.177  45.0480  0.00  0.00     0.000 OA
ENDBRANCH 19 28
BRANCH 22 32
ATOM     32   C  SGN C   2     143.296  32.829  39.7100  0.00  0.00     0.000 C
ATOM     33   S  SGN C   2     141.248  32.561  38.1680  0.00  0.00     0.000 S
ATOM     34   O  SGN C   2     140.640  31.581  39.0320  0.00  0.00     0.000 OA
ATOM     35   O  SGN C   2     140.300  33.485  37.5800  0.00  0.00     0.000 OA
ATOM     36   O  SGN C   2     142.179  32.008  37.2130  0.00  0.00     0.000 OA
ATOM     37   O  SGN C   2     142.135  33.454  39.1500  0.00  0.00     0.000 O
ENDBRANCH 22 32
BRANCH 18 38
ATOM     38  O4  IDS C   3     142.427  33.648  43.6630  0.00  0.00     0.000 O
BRANCH 38 42
ATOM     39  C1  IDS C   3     139.132  34.771  43.5610  0.00  0.00     0.000 C
ATOM     40  C2  IDS C   3     140.258  35.668  44.1010  0.00  0.00     0.000 C
ATOM     41  C3  IDS C   3     141.070  34.947  45.1760  0.00  0.00     0.000 C
ATOM     42  C4  IDS C   3     141.468  33.549  44.7220  0.00  0.00     0.000 C
ATOM     43  C5  IDS C   3     140.228  32.789  44.2350  0.00  0.00     0.000 C
ATOM     44  O5  IDS C   3     139.633  33.508  43.1560  0.00  0.00     0.000 O
ATOM     45   O  IDS C   3     140.299  34.863  46.3760  0.00  0.00     0.000 O
ATOM     47  HD  IDS C   3     139.516  34.553  46.5790  0.00  0.00     0.000 HD
BRANCH 40 47
ATOM     47   O  IDS C   3     141.192  36.042  43.0130  0.00  0.00     0.000 O
ATOM     48   S  IDS C   3     140.627  36.699  41.6690  0.00  0.00     0.000 S
ATOM     49   O  IDS C   3     140.057  35.611  40.9040  0.00  0.00     0.000 OA
ATOM     50   O  IDS C   3     141.778  37.288  41.0210  0.00  0.00     0.000 OA
ATOM     51   O  IDS C   3     139.646  37.671  42.0730  0.00  0.00     0.000 OA
ENDBRANCH 40 47
BRANCH 43 52
ATOM     52   C  IDS C   3     140.543  31.377  43.7920  0.00  0.00     0.000 C
ATOM     53   O  IDS C   3     140.911  30.559  44.6030  0.00  0.00     0.000 OA
ATOM     54   O  IDS C   3     140.424  31.075  42.6320  0.00  0.00     0.000 OA
ENDBRANCH 43 52
BRANCH 39 55
ATOM     55  O4  SGN C   4     137.908  34.726  44.0860  0.00  0.00     0.000 O
BRANCH 55 59
ATOM     56  C1  SGN C   4     134.857  33.039  41.7720  0.00  0.00     0.000 C
ATOM     57  C2  SGN C   4     135.294  34.466  41.3990  0.00  0.00     0.000 C
ATOM     58  C3  SGN C   4     136.641  34.803  42.0330  0.00  0.00     0.000 C
ATOM     59  C4  SGN C   4     136.619  34.508  43.5290  0.00  0.00     0.000 C
ATOM     60  C5  SGN C   4     136.202  33.053  43.7360  0.00  0.00     0.000 C
ATOM     61  O5  SGN C   4     134.883  32.878  43.1820  0.00  0.00     0.000 O
ATOM     62   O  SGN C   4     136.950  36.170  41.7960  0.00  0.00     0.000 O
ATOM     64  HD  SGN C   4     136.451  35.941  41.1260  0.00  0.00     0.000 HD
BRANCH 57 66
ATOM     64   N  SGN C   4     134.377  35.412  40.7430  0.00  0.00     0.000 N
ATOM     66  HD  SGN C   4     134.407  35.939  40.0570  0.00  0.00     0.000 HD
ATOM     66   S  SGN C   4     134.056  35.284  39.1850  0.00  0.00     0.000 S
ATOM     67   O  SGN C   4     133.201  36.361  38.8380  0.00  0.00     0.000 OA
ATOM     68   O  SGN C   4     135.302  35.137  38.5150  0.00  0.00     0.000 OA
ATOM     69   O  SGN C   4     133.267  33.940  39.0780  0.00  0.00     0.000 OA
ENDBRANCH 57 66
BRANCH 60 70
ATOM     70   C  SGN C   4     136.152  32.634  45.1890  0.00  0.00     0.000 C
ATOM     71   O  SGN C   4     138.635  30.475  47.0000  0.00  0.00     0.000 OA
ATOM     72   O  SGN C   4     138.438  32.884  47.0840  0.00  0.00     0.000 OA
ATOM     73   O  SGN C   4     137.160  31.642  45.4630  0.00  0.00     0.000 O
ATOM     74   S  SGN C   4     137.753  31.618  46.9480  0.00  0.00     0.000 S
ATOM     75   O  SGN C   4     136.594  31.493  47.8080  0.00  0.00     0.000 OA
ENDBRANCH 60 70
BRANCH 56 76
ATOM     76  O4  IDS C   5     134.984  31.818  41.2210  0.00  0.00     0.000 O
BRANCH 76 80
ATOM     77  C1  IDS C   5     135.588  28.128  39.5840  0.00  0.00     0.000 C
ATOM     78  C2  IDS C   5     135.615  28.157  41.1120  0.00  0.00     0.000 C
ATOM     79  C3  IDS C   5     134.961  29.429  41.6140  0.00  0.00     0.000 C
ATOM     80  C4  IDS C   5     135.795  30.634  41.1900  0.00  0.00     0.000 C
ATOM     81  C5  IDS C   5     136.346  30.398  39.7770  0.00  0.00     0.000 C
ATOM     82  O5  IDS C   5     135.532  29.459  39.0690  0.00  0.00     0.000 O
BRANCH 78 83
ATOM     83   O  IDS C   5     134.878  26.999  41.6700  0.00  0.00     0.000 O
ATOM     84   S  IDS C   5     135.635  25.957  42.6120  0.00  0.00     0.000 S
ATOM     85   O  IDS C   5     136.851  25.614  41.9240  0.00  0.00     0.000 OA
ATOM     86   O  IDS C   5     135.863  26.662  43.8510  0.00  0.00     0.000 OA
ATOM     87   O  IDS C   5     134.733  24.842  42.7640  0.00  0.00     0.000 OA
ENDBRANCH 78 83
BRANCH 81 88
ATOM     88   C  IDS C   5     136.433  31.656  38.9320  0.00  0.00     0.000 C
ATOM     89   O  IDS C   5     137.293  32.467  39.1510  0.00  0.00     0.000 OA
ATOM     90   O  IDS C   5     135.634  31.835  38.0400  0.00  0.00     0.000 OA
ENDBRANCH 81 88
ENDBRANCH 76 80
ENDBRANCH 56 76
ENDBRANCH 55 59
ENDBRANCH 39 55
ENDBRANCH 38 42
ENDBRANCH 18 38
ENDBRANCH 17 21
ENDBRANCH 1 17
TORSDOF 18
ENDMDL
MODEL 26
REMARK VINA RESULT:      -6.6     12.917     19.163
ROOT
ATOM      1  C1  IDS C   1     173.632  36.063  55.6520  0.00  0.00     0.000 C
ATOM      2  C2  IDS C   1     174.900  36.670  56.2570  0.00  0.00     0.000 C
ATOM      3  C3  IDS C   1     174.717  36.934  57.7440  0.00  0.00     0.000 C
ATOM      4  C4  IDS C   1     173.547  37.878  57.9820  0.00  0.00     0.000 C
ATOM      5  C5  IDS C   1     172.406  37.548  57.0250  0.00  0.00     0.000 C
ATOM      6  O5  IDS C   1     172.537  36.208  56.5480  0.00  0.00     0.000 O
ATOM      7   O  IDS C   1     175.919  37.498  58.2880  0.00  0.00     0.000 O
ATOM      9  HD  IDS C   1     176.596  37.128  57.8950  0.00  0.00     0.000 HD
ENDROOT
BRANCH 2 9
ATOM      9   O  IDS C   1     176.049  35.748  56.1060  0.00  0.00     0.000 O
ATOM     10   S  IDS C   1     177.347  36.237  55.3170  0.00  0.00     0.000 S
ATOM     11   O  IDS C   1     178.276  35.129  55.3580  0.00  0.00     0.000 OA
ATOM     12   O  IDS C   1     176.895  36.545  53.9760  0.00  0.00     0.000 OA
ATOM     13   O  IDS C   1     177.828  37.399  56.0310  0.00  0.00     0.000 OA
ENDBRANCH 2 9
BRANCH 5 14
ATOM     14   C  IDS C   1     171.044  37.693  57.6830  0.00  0.00     0.000 C
ATOM     15   O  IDS C   1     170.979  37.931  58.8650  0.00  0.00     0.000 OA
ATOM     16   O  IDS C   1     170.032  37.566  57.0150  0.00  0.00     0.000 OA
ENDBRANCH 5 14
BRANCH 1 17
ATOM     17  O4  SGN C   2     173.653  35.046  54.7850  0.00  0.00     0.000 O
BRANCH 17 21
ATOM     18  C1  SGN C   2     172.421  31.287  53.4150  0.00  0.00     0.000 C
ATOM     19  C2  SGN C   2     171.679  31.851  54.6330  0.00  0.00     0.000 C
ATOM     20  C3  SGN C   2     171.935  33.359  54.7450  0.00  0.00     0.000 C
ATOM     21  C4  SGN C   2     173.434  33.639  54.7480  0.00  0.00     0.000 C
ATOM     22  C5  SGN C   2     174.055  33.036  53.4910  0.00  0.00     0.000 C
ATOM     23  O5  SGN C   2     173.795  31.614  53.4500  0.00  0.00     0.000 O
ATOM     24   O  SGN C   2     171.322  33.866  55.9180  0.00  0.00     0.000 O
ATOM     26  HD  SGN C   2     171.557  33.860  55.0840  0.00  0.00     0.000 HD
BRANCH 19 28
ATOM     26   N  SGN C   2     170.482  31.000  54.6710  0.00  0.00     0.000 N
ATOM     28  HD  SGN C   2     171.120  30.450  54.4690  0.00  0.00     0.000 HD
ATOM     28   O  SGN C   2     168.247  30.499  55.6580  0.00  0.00     0.000 OA
ATOM     29   S  SGN C   2     169.760  30.594  56.0490  0.00  0.00     0.000 S
ATOM     30   O  SGN C   2     170.216  29.306  56.4050  0.00  0.00     0.000 OA
ATOM     31   O  SGN C   2     169.926  31.675  56.9580  0.00  0.00     0.000 OA
ENDBRANCH 19 28
BRANCH 22 32
ATOM     32   C  SGN C   2     175.553  33.207  53.4230  0.00  0.00     0.000 C
ATOM     33   S  SGN C   2     177.548  32.301  52.0660  0.00  0.00     0.000 S
ATOM     34   O  SGN C   2     177.557  31.051  52.7850  0.00  0.00     0.000 OA
ATOM     35   O  SGN C   2     177.825  32.159  50.6520  0.00  0.00     0.000 OA
ATOM     36   O  SGN C   2     178.311  33.350  52.7000  0.00  0.00     0.000 OA
ATOM     37   O  SGN C   2     176.028  32.785  52.1390  0.00  0.00     0.000 O
ENDBRANCH 22 32
BRANCH 18 38
ATOM     38  O4  IDS C   3     172.110  31.336  52.1170  0.00  0.00     0.000 O
BRANCH 38 42
ATOM     39  C1  IDS C   3     169.827  32.073  49.5930  0.00  0.00     0.000 C
ATOM     40  C2  IDS C   3     169.356  31.552  50.9600  0.00  0.00     0.000 C
ATOM     41  C3  IDS C   3     170.090  30.268  51.3460  0.00  0.00     0.000 C
ATOM     42  C4  IDS C   3     171.593  30.415  51.1510  0.00  0.00     0.000 C
ATOM     43  C5  IDS C   3     171.887  30.923  49.7340  0.00  0.00     0.000 C
ATOM     44  O5  IDS C   3     171.240  32.180  49.5460  0.00  0.00     0.000 O
ATOM     45   O  IDS C   3     169.604  29.187  50.5490  0.00  0.00     0.000 O
ATOM     47  HD  IDS C   3     169.528  29.039  49.6990  0.00  0.00     0.000 HD
BRANCH 40 47
ATOM     47   O  IDS C   3     169.623  32.553  52.0190  0.00  0.00     0.000 O
ATOM     48   S  IDS C   3     168.402  33.289  52.7450  0.00  0.00     0.000 S
ATOM     49   O  IDS C   3     167.932  34.292  51.8140  0.00  0.00     0.000 OA
ATOM     50   O  IDS C   3     168.967  33.869  53.9440  0.00  0.00     0.000 OA
ATOM     51   O  IDS C   3     167.419  32.274  53.0150  0.00  0.00     0.000 OA
ENDBRANCH 40 47
BRANCH 43 52
ATOM     52   C  IDS C   3     173.367  31.066  49.4580  0.00  0.00     0.000 C
ATOM     53   O  IDS C   3     174.049  30.080  49.2980  0.00  0.00     0.000 OA
ATOM     54   O  IDS C   3     173.860  32.164  49.3990  0.00  0.00     0.000 OA
ENDBRANCH 43 52
BRANCH 39 55
ATOM     55  O4  SGN C   4     169.272  31.716  48.4350  0.00  0.00     0.000 O
BRANCH 55 59
ATOM     56  C1  SGN C   4     165.803  30.818  46.2740  0.00  0.00     0.000 C
ATOM     57  C2  SGN C   4     165.613  31.600  47.5850  0.00  0.00     0.000 C
ATOM     58  C3  SGN C   4     166.937  32.196  48.0560  0.00  0.00     0.000 C
ATOM     59  C4  SGN C   4     168.024  31.128  48.0960  0.00  0.00     0.000 C
ATOM     60  C5  SGN C   4     168.114  30.468  46.7220  0.00  0.00     0.000 C
ATOM     61  O5  SGN C   4     166.840  29.862  46.4260  0.00  0.00     0.000 O
ATOM     62   O  SGN C   4     166.765  32.784  49.3390  0.00  0.00     0.000 O
ATOM     64  HD  SGN C   4     165.984  32.842  48.9670  0.00  0.00     0.000 HD
BRANCH 57 66
ATOM     64   N  SGN C   4     164.186  31.246  47.5240  0.00  0.00     0.000 N
ATOM     66  HD  SGN C   4     163.510  31.278  48.0640  0.00  0.00     0.000 HD
ATOM     66   S  SGN C   4     163.067  32.320  47.8960  0.00  0.00     0.000 S
ATOM     67   O  SGN C   4     161.809  31.673  47.8030  0.00  0.00     0.000 OA
ATOM     68   O  SGN C   4     163.456  32.918  49.1260  0.00  0.00     0.000 OA
ATOM     69   O  SGN C   4     163.185  33.388  46.7610  0.00  0.00     0.000 OA
ENDBRANCH 57 66
BRANCH 60 70
ATOM     70   C  SGN C   4     169.171  29.389  46.6310  0.00  0.00     0.000 C
ATOM     71   O  SGN C   4     169.100  26.339  44.4400  0.00  0.00     0.000 OA
ATOM     72   O  SGN C   4     170.329  28.389  44.0740  0.00  0.00     0.000 OA
ATOM     73   O  SGN C   4     168.696  28.282  45.8420  0.00  0.00     0.000 O
ATOM     74   S  SGN C   4     169.802  27.451  45.0380  0.00  0.00     0.000 S
ATOM     75   O  SGN C   4     170.767  27.052  46.0430  0.00  0.00     0.000 OA
ENDBRANCH 60 70
BRANCH 56 76
ATOM     76  O4  IDS C   5     165.697  31.098  44.9630  0.00  0.00     0.000 O
BRANCH 76 80
ATOM     77  C1  IDS C   5     164.987  32.313  41.1310  0.00  0.00     0.000 C
ATOM     78  C2  IDS C   5     163.813  32.515  42.0890  0.00  0.00     0.000 C
ATOM     79  C3  IDS C   5     164.302  32.457  43.5230  0.00  0.00     0.000 C
ATOM     80  C4  IDS C   5     164.816  31.054  43.8300  0.00  0.00     0.000 C
ATOM     81  C5  IDS C   5     165.550  30.499  42.6010  0.00  0.00     0.000 C
ATOM     82  O5  IDS C   5     166.021  31.567  41.7730  0.00  0.00     0.000 O
BRANCH 78 83
ATOM     83   O  IDS C   5     163.175  33.833  41.8650  0.00  0.00     0.000 O
ATOM     84   S  IDS C   5     161.587  33.937  41.7530  0.00  0.00     0.000 S
ATOM     85   O  IDS C   5     161.188  32.916  40.8210  0.00  0.00     0.000 OA
ATOM     86   O  IDS C   5     161.097  33.706  43.0920  0.00  0.00     0.000 OA
ATOM     87   O  IDS C   5     161.315  35.274  41.2850  0.00  0.00     0.000 OA
ENDBRANCH 78 83
BRANCH 81 88
ATOM     88   C  IDS C   5     166.742  29.623  42.9390  0.00  0.00     0.000 C
ATOM     89   O  IDS C   5     166.572  28.474  43.2470  0.00  0.00     0.000 OA
ATOM     90   O  IDS C   5     167.858  30.087  42.8940  0.00  0.00     0.000 OA
ENDBRANCH 81 88
ENDBRANCH 76 80
ENDBRANCH 56 76
ENDBRANCH 55 59
ENDBRANCH 39 55
ENDBRANCH 38 42
ENDBRANCH 18 38
ENDBRANCH 17 21
ENDBRANCH 1 17
TORSDOF 18
ENDMDL
MODEL 27
REMARK VINA RESULT:      -6.6      8.006     15.545
ROOT
ATOM      1  C1  IDS C   1     147.232  35.676  34.9960  0.00  0.00     0.000 C
ATOM      2  C2  IDS C   1     147.657  36.877  34.1450  0.00  0.00     0.000 C
ATOM      3  C3  IDS C   1     147.911  36.456  32.7050  0.00  0.00     0.000 C
ATOM      4  C4  IDS C   1     148.994  35.387  32.6410  0.00  0.00     0.000 C
ATOM      5  C5  IDS C   1     148.835  34.411  33.8030  0.00  0.00     0.000 C
ATOM      6  O5  IDS C   1     147.500  34.462  34.3070  0.00  0.00     0.000 O
ATOM      7   O  IDS C   1     148.303  37.597  31.9280  0.00  0.00     0.000 O
ATOM      9  HD  IDS C   1     147.857  38.284  32.2090  0.00  0.00     0.000 HD
ENDROOT
BRANCH 2 9
ATOM      9   O  IDS C   1     146.598  37.911  34.1270  0.00  0.00     0.000 O
ATOM     10   S  IDS C   1     146.955  39.405  34.5550  0.00  0.00     0.000 S
ATOM     11   O  IDS C   1     145.729  40.160  34.4180  0.00  0.00     0.000 OA
ATOM     12   O  IDS C   1     147.414  39.319  35.9260  0.00  0.00     0.000 OA
ATOM     13   O  IDS C   1     147.987  39.842  33.6410  0.00  0.00     0.000 OA
ENDBRANCH 2 9
BRANCH 5 14
ATOM     14   C  IDS C   1     149.141  32.980  33.3950  0.00  0.00     0.000 C
ATOM     15   O  IDS C   1     148.492  32.077  33.8640  0.00  0.00     0.000 OA
ATOM     16   O  IDS C   1     150.040  32.756  32.6020  0.00  0.00     0.000 OA
ENDBRANCH 5 14
BRANCH 1 17
ATOM     17  O4  SGN C   2     146.240  35.732  35.8890  0.00  0.00     0.000 O
BRANCH 17 21
ATOM     18  C1  SGN C   2     142.410  34.923  37.3720  0.00  0.00     0.000 C
ATOM     19  C2  SGN C   2     142.898  34.044  36.2130  0.00  0.00     0.000 C
ATOM     20  C3  SGN C   2     144.420  34.166  36.0740  0.00  0.00     0.000 C
ATOM     21  C4  SGN C   2     144.820  35.632  35.9510  0.00  0.00     0.000 C
ATOM     22  C5  SGN C   2     144.284  36.397  37.1580  0.00  0.00     0.000 C
ATOM     23  O5  SGN C   2     142.847  36.258  37.2260  0.00  0.00     0.000 O
ATOM     24   O  SGN C   2     144.863  33.424  34.9500  0.00  0.00     0.000 O
ATOM     26  HD  SGN C   2     144.885  33.723  35.7630  0.00  0.00     0.000 HD
BRANCH 19 28
ATOM     26   N  SGN C   2     142.101  33.011  35.5370  0.00  0.00     0.000 N
ATOM     28  HD  SGN C   2     142.403  33.496  34.8870  0.00  0.00     0.000 HD
ATOM     28   O  SGN C   2     141.261  30.663  35.4700  0.00  0.00     0.000 OA
ATOM     29   S  SGN C   2     142.593  31.485  35.4210  0.00  0.00     0.000 S
ATOM     30   O  SGN C   2     143.177  31.323  34.1450  0.00  0.00     0.000 OA
ATOM     31   O  SGN C   2     143.353  31.187  36.5850  0.00  0.00     0.000 OA
ENDBRANCH 19 28
BRANCH 22 32
ATOM     32   C  SGN C   2     144.577  37.877  37.1060  0.00  0.00     0.000 C
ATOM     33   S  SGN C   2     143.547  40.086  37.9430  0.00  0.00     0.000 S
ATOM     34   O  SGN C   2     142.534  40.083  36.9170  0.00  0.00     0.000 OA
ATOM     35   O  SGN C   2     143.070  40.554  39.2280  0.00  0.00     0.000 OA
ATOM     36   O  SGN C   2     144.794  40.691  37.5370  0.00  0.00     0.000 OA
ATOM     37   O  SGN C   2     143.884  38.542  38.1690  0.00  0.00     0.000 O
ENDBRANCH 22 32
BRANCH 18 38
ATOM     38  O4  IDS C   3     142.448  34.711  38.6890  0.00  0.00     0.000 O
BRANCH 38 42
ATOM     39  C1  IDS C   3     143.318  34.349  42.0420  0.00  0.00     0.000 C
ATOM     40  C2  IDS C   3     144.094  33.612  40.9380  0.00  0.00     0.000 C
ATOM     41  C3  IDS C   3     143.149  32.831  40.0260  0.00  0.00     0.000 C
ATOM     42  C4  IDS C   3     141.977  33.693  39.5790  0.00  0.00     0.000 C
ATOM     43  C5  IDS C   3     141.308  34.335  40.8000  0.00  0.00     0.000 C
ATOM     44  O5  IDS C   3     142.268  35.129  41.4950  0.00  0.00     0.000 O
ATOM     45   O  IDS C   3     142.663  31.681  40.7220  0.00  0.00     0.000 O
ATOM     47  HD  IDS C   3     142.253  31.548  41.4730  0.00  0.00     0.000 HD
BRANCH 40 47
ATOM     47   O  IDS C   3     144.835  34.576  40.0900  0.00  0.00     0.000 O
ATOM     48   S  IDS C   3     146.254  35.133  40.5730  0.00  0.00     0.000 S
ATOM     49   O  IDS C   3     145.967  36.130  41.5820  0.00  0.00     0.000 OA
ATOM     50   O  IDS C   3     146.862  35.702  39.3900  0.00  0.00     0.000 OA
ATOM     51   O  IDS C   3     146.978  34.005  41.0940  0.00  0.00     0.000 OA
ENDBRANCH 40 47
BRANCH 43 52
ATOM     52   C  IDS C   3     140.113  35.187  40.4340  0.00  0.00     0.000 C
ATOM     53   O  IDS C   3     140.015  36.309  40.8760  0.00  0.00     0.000 OA
ATOM     54   O  IDS C   3     139.265  34.744  39.7020  0.00  0.00     0.000 OA
ENDBRANCH 43 52
BRANCH 39 55
ATOM     55  O4  SGN C   4     143.036  33.814  43.2300  0.00  0.00     0.000 O
BRANCH 55 59
ATOM     56  C1  SGN C   4     145.691  34.985  46.2430  0.00  0.00     0.000 C
ATOM     57  C2  SGN C   4     145.790  33.525  45.7690  0.00  0.00     0.000 C
ATOM     58  C3  SGN C   4     145.072  33.340  44.4350  0.00  0.00     0.000 C
ATOM     59  C4  SGN C   4     143.655  33.898  44.5050  0.00  0.00     0.000 C
ATOM     60  C5  SGN C   4     143.724  35.356  44.9560  0.00  0.00     0.000 C
ATOM     61  O5  SGN C   4     144.334  35.398  46.2610  0.00  0.00     0.000 O
ATOM     62   O  SGN C   4     145.050  31.960  44.0940  0.00  0.00     0.000 O
ATOM     64  HD  SGN C   4     145.763  32.053  44.5770  0.00  0.00     0.000 HD
BRANCH 57 66
ATOM     64   N  SGN C   4     146.984  33.600  46.6260  0.00  0.00     0.000 N
ATOM     66  HD  SGN C   4     147.272  33.194  47.3350  0.00  0.00     0.000 HD
ATOM     66   S  SGN C   4     147.849  32.293  46.9270  0.00  0.00     0.000 S
ATOM     67   O  SGN C   4     148.885  32.666  47.8200  0.00  0.00     0.000 OA
ATOM     68   O  SGN C   4     146.938  31.268  47.3030  0.00  0.00     0.000 OA
ATOM     69   O  SGN C   4     148.467  31.928  45.5390  0.00  0.00     0.000 OA
ENDBRANCH 57 66
BRANCH 60 70
ATOM     70   C  SGN C   4     142.372  36.029  45.0550  0.00  0.00     0.000 C
ATOM     71   O  SGN C   4     139.918  35.753  47.8850  0.00  0.00     0.000 OA
ATOM     72   O  SGN C   4     141.441  37.574  47.4270  0.00  0.00     0.000 OA
ATOM     73   O  SGN C   4     141.637  35.520  46.1840  0.00  0.00     0.000 O
ATOM     74   S  SGN C   4     140.608  36.528  46.8800  0.00  0.00     0.000 S
ATOM     75   O  SGN C   4     139.747  36.978  45.8050  0.00  0.00     0.000 OA
ENDBRANCH 60 70
BRANCH 56 76
ATOM     76  O4  IDS C   5     146.450  36.089  46.1230  0.00  0.00     0.000 O
BRANCH 76 80
ATOM     77  C1  IDS C   5     148.108  39.764  45.4880  0.00  0.00     0.000 C
ATOM     78  C2  IDS C   5     147.023  39.377  44.4850  0.00  0.00     0.000 C
ATOM     79  C3  IDS C   5     146.187  38.242  45.0440  0.00  0.00     0.000 C
ATOM     80  C4  IDS C   5     147.051  36.992  45.1820  0.00  0.00     0.000 C
ATOM     81  C5  IDS C   5     148.458  37.394  45.6480  0.00  0.00     0.000 C
ATOM     82  O5  IDS C   5     148.421  38.653  46.3280  0.00  0.00     0.000 O
BRANCH 78 83
ATOM     83   O  IDS C   5     146.128  40.525  44.2110  0.00  0.00     0.000 O
ATOM     84   S  IDS C   5     145.836  40.961  42.7040  0.00  0.00     0.000 S
ATOM     85   O  IDS C   5     147.120  41.038  42.0590  0.00  0.00     0.000 OA
ATOM     86   O  IDS C   5     144.992  39.921  42.1660  0.00  0.00     0.000 OA
ATOM     87   O  IDS C   5     145.164  42.235  42.7890  0.00  0.00     0.000 OA
ENDBRANCH 78 83
BRANCH 81 88
ATOM     88   C  IDS C   5     149.108  36.390  46.5820  0.00  0.00     0.000 C
ATOM     89   O  IDS C   5     149.113  36.589  47.7670  0.00  0.00     0.000 OA
ATOM     90   O  IDS C   5     149.618  35.392  46.1260  0.00  0.00     0.000 OA
ENDBRANCH 81 88
ENDBRANCH 76 80
ENDBRANCH 56 76
ENDBRANCH 55 59
ENDBRANCH 39 55
ENDBRANCH 38 42
ENDBRANCH 18 38
ENDBRANCH 17 21
ENDBRANCH 1 17
TORSDOF 18
ENDMDL
MODEL 28
REMARK VINA RESULT:      -6.6     11.570     17.218
ROOT
ATOM      1  C1  IDS C   1     144.836  34.367  31.5540  0.00  0.00     0.000 C
ATOM      2  C2  IDS C   1     145.863  33.657  30.6670  0.00  0.00     0.000 C
ATOM      3  C3  IDS C   1     146.729  34.667  29.9290  0.00  0.00     0.000 C
ATOM      4  C4  IDS C   1     145.871  35.584  29.0690  0.00  0.00     0.000 C
ATOM      5  C5  IDS C   1     144.583  35.939  29.8050  0.00  0.00     0.000 C
ATOM      6  O5  IDS C   1     144.752  35.744  31.2100  0.00  0.00     0.000 O
ATOM      7   O  IDS C   1     147.685  33.979  29.1090  0.00  0.00     0.000 O
ATOM      9  HD  IDS C   1     147.941  33.266  29.5290  0.00  0.00     0.000 HD
ENDROOT
BRANCH 2 9
ATOM      9   O  IDS C   1     146.762  32.806  31.4790  0.00  0.00     0.000 O
ATOM     10   S  IDS C   1     146.922  31.263  31.1120  0.00  0.00     0.000 S
ATOM     11   O  IDS C   1     147.863  30.724  32.0680  0.00  0.00     0.000 OA
ATOM     12   O  IDS C   1     145.597  30.692  31.2420  0.00  0.00     0.000 OA
ATOM     13   O  IDS C   1     147.419  31.229  29.7550  0.00  0.00     0.000 OA
ENDBRANCH 2 9
BRANCH 5 14
ATOM     14   C  IDS C   1     144.164  37.379  29.5660  0.00  0.00     0.000 C
ATOM     15   O  IDS C   1     143.680  38.015  30.4700  0.00  0.00     0.000 OA
ATOM     16   O  IDS C   1     144.317  37.879  28.4640  0.00  0.00     0.000 OA
ENDBRANCH 5 14
BRANCH 1 17
ATOM     17  O4  SGN C   2     144.554  33.973  32.7990  0.00  0.00     0.000 O
BRANCH 17 21
ATOM     18  C1  SGN C   2     144.984  33.935  36.9630  0.00  0.00     0.000 C
ATOM     19  C2  SGN C   2     145.604  35.125  36.2190  0.00  0.00     0.000 C
ATOM     20  C3  SGN C   2     145.013  35.220  34.8070  0.00  0.00     0.000 C
ATOM     21  C4  SGN C   2     145.166  33.887  34.0830  0.00  0.00     0.000 C
ATOM     22  C5  SGN C   2     144.509  32.790  34.9150  0.00  0.00     0.000 C
ATOM     23  O5  SGN C   2     145.119  32.739  36.2250  0.00  0.00     0.000 O
ATOM     24   O  SGN C   2     145.646  36.264  34.0880  0.00  0.00     0.000 O
ATOM     26  HD  SGN C   2     144.985  35.778  34.3630  0.00  0.00     0.000 HD
BRANCH 19 28
ATOM     26   N  SGN C   2     145.773  36.096  37.3090  0.00  0.00     0.000 N
ATOM     28  HD  SGN C   2     145.920  35.331  37.6890  0.00  0.00     0.000 HD
ATOM     28   O  SGN C   2     146.478  38.369  38.0560  0.00  0.00     0.000 OA
ATOM     29   S  SGN C   2     147.052  37.065  37.4060  0.00  0.00     0.000 S
ATOM     30   O  SGN C   2     147.965  36.475  38.3070  0.00  0.00     0.000 OA
ATOM     31   O  SGN C   2     147.467  37.365  36.0800  0.00  0.00     0.000 OA
ENDBRANCH 19 28
BRANCH 22 32
ATOM     32   C  SGN C   2     144.656  31.414  34.3120  0.00  0.00     0.000 C
ATOM     33   S  SGN C   2     145.446  29.064  35.0160  0.00  0.00     0.000 S
ATOM     34   O  SGN C   2     146.837  29.431  34.9290  0.00  0.00     0.000 OA
ATOM     35   O  SGN C   2     145.145  28.190  36.1310  0.00  0.00     0.000 OA
ATOM     36   O  SGN C   2     144.875  28.620  33.7660  0.00  0.00     0.000 OA
ATOM     37   O  SGN C   2     144.699  30.433  35.3560  0.00  0.00     0.000 O
ENDBRANCH 22 32
BRANCH 18 38
ATOM     38  O4  IDS C   3     143.796  33.816  37.5600  0.00  0.00     0.000 O
BRANCH 38 42
ATOM     39  C1  IDS C   3     141.056  34.107  39.6890  0.00  0.00     0.000 C
ATOM     40  C2  IDS C   3     142.474  33.901  40.2460  0.00  0.00     0.000 C
ATOM     41  C3  IDS C   3     143.153  32.696  39.5960  0.00  0.00     0.000 C
ATOM     42  C4  IDS C   3     143.013  32.737  38.0810  0.00  0.00     0.000 C
ATOM     43  C5  IDS C   3     141.540  32.927  37.7000  0.00  0.00     0.000 C
ATOM     44  O5  IDS C   3     141.064  34.144  38.2720  0.00  0.00     0.000 O
ATOM     45   O  IDS C   3     142.570  31.494  40.1020  0.00  0.00     0.000 O
ATOM     47  HD  IDS C   3     141.766  31.176  40.1490  0.00  0.00     0.000 HD
BRANCH 40 47
ATOM     47   O  IDS C   3     143.318  35.088  39.9740  0.00  0.00     0.000 O
ATOM     48   S  IDS C   3     144.315  35.631  41.1000  0.00  0.00     0.000 S
ATOM     49   O  IDS C   3     143.490  36.344  42.0520  0.00  0.00     0.000 OA
ATOM     50   O  IDS C   3     145.237  36.502  40.4050  0.00  0.00     0.000 OA
ATOM     51   O  IDS C   3     144.951  34.474  41.6720  0.00  0.00     0.000 OA
ENDBRANCH 40 47
BRANCH 43 52
ATOM     52   C  IDS C   3     141.320  32.949  36.2030  0.00  0.00     0.000 C
ATOM     53   O  IDS C   3     141.218  31.909  35.5940  0.00  0.00     0.000 OA
ATOM     54   O  IDS C   3     141.246  34.004  35.6260  0.00  0.00     0.000 OA
ENDBRANCH 43 52
BRANCH 39 55
ATOM     55  O4  SGN C   4     139.968  33.541  40.2110  0.00  0.00     0.000 O
BRANCH 55 59
ATOM     56  C1  SGN C   4     139.479  34.059  44.3340  0.00  0.00     0.000 C
ATOM     57  C2  SGN C   4     139.203  32.650  43.7810  0.00  0.00     0.000 C
ATOM     58  C3  SGN C   4     139.786  32.496  42.3790  0.00  0.00     0.000 C
ATOM     59  C4  SGN C   4     139.335  33.641  41.4790  0.00  0.00     0.000 C
ATOM     60  C5  SGN C   4     139.706  34.964  42.1450  0.00  0.00     0.000 C
ATOM     61  O5  SGN C   4     139.027  35.039  43.4140  0.00  0.00     0.000 O
ATOM     62   O  SGN C   4     139.391  31.244  41.8340  0.00  0.00     0.000 O
ATOM     64  HD  SGN C   4     139.402  31.114  42.6900  0.00  0.00     0.000 HD
BRANCH 57 66
ATOM     64   N  SGN C   4     138.900  32.419  45.2020  0.00  0.00     0.000 N
ATOM     66  HD  SGN C   4     138.293  31.994  45.6510  0.00  0.00     0.000 HD
ATOM     66   S  SGN C   4     138.715  30.935  45.7610  0.00  0.00     0.000 S
ATOM     67   O  SGN C   4     138.374  31.038  47.1330  0.00  0.00     0.000 OA
ATOM     68   O  SGN C   4     137.834  30.262  44.8710  0.00  0.00     0.000 OA
ATOM     69   O  SGN C   4     140.139  30.307  45.6250  0.00  0.00     0.000 OA
ENDBRANCH 57 66
BRANCH 60 70
ATOM     70   C  SGN C   4     139.316  36.184  41.3390  0.00  0.00     0.000 C
ATOM     71   O  SGN C   4     141.495  39.125  40.4990  0.00  0.00     0.000 OA
ATOM     72   O  SGN C   4     140.907  37.269  39.0650  0.00  0.00     0.000 OA
ATOM     73   O  SGN C   4     140.349  37.186  41.4070  0.00  0.00     0.000 O
ATOM     74   S  SGN C   4     140.496  38.146  40.1370  0.00  0.00     0.000 S
ATOM     75   O  SGN C   4     139.176  38.712  39.9460  0.00  0.00     0.000 OA
ENDBRANCH 60 70
BRANCH 56 76
ATOM     76  O4  IDS C   5     140.437  34.624  45.0920  0.00  0.00     0.000 O
BRANCH 76 80
ATOM     77  C1  IDS C   5     144.216  35.809  46.0780  0.00  0.00     0.000 C
ATOM     78  C2  IDS C   5     144.096  34.338  45.6790  0.00  0.00     0.000 C
ATOM     79  C3  IDS C   5     142.799  34.113  44.9280  0.00  0.00     0.000 C
ATOM     80  C4  IDS C   5     141.618  34.358  45.8630  0.00  0.00     0.000 C
ATOM     81  C5  IDS C   5     141.936  35.545  46.7830  0.00  0.00     0.000 C
ATOM     82  O5  IDS C   5     142.919  36.396  46.1850  0.00  0.00     0.000 O
BRANCH 78 83
ATOM     83   O  IDS C   5     145.221  33.941  44.8000  0.00  0.00     0.000 O
ATOM     84   S  IDS C   5     145.690  32.417  44.7530  0.00  0.00     0.000 S
ATOM     85   O  IDS C   5     145.830  32.004  46.1240  0.00  0.00     0.000 OA
ATOM     86   O  IDS C   5     144.637  31.718  44.0540  0.00  0.00     0.000 OA
ATOM     87   O  IDS C   5     146.936  32.414  44.0270  0.00  0.00     0.000 OA
ENDBRANCH 78 83
BRANCH 81 88
ATOM     88   C  IDS C   5     140.731  36.405  47.1190  0.00  0.00     0.000 C
ATOM     89   O  IDS C   5     140.539  37.428  46.5170  0.00  0.00     0.000 OA
ATOM     90   O  IDS C   5     139.969  36.053  47.9900  0.00  0.00     0.000 OA
ENDBRANCH 81 88
ENDBRANCH 76 80
ENDBRANCH 56 76
ENDBRANCH 55 59
ENDBRANCH 39 55
ENDBRANCH 38 42
ENDBRANCH 18 38
ENDBRANCH 17 21
ENDBRANCH 1 17
TORSDOF 18
ENDMDL
MODEL 29
REMARK VINA RESULT:      -6.5      8.933     16.022
ROOT
ATOM      1  C1  IDS C   1     140.560  46.961  51.1880  0.00  0.00     0.000 C
ATOM      2  C2  IDS C   1     139.359  47.416  52.0220  0.00  0.00     0.000 C
ATOM      3  C3  IDS C   1     139.794  48.384  53.1130  0.00  0.00     0.000 C
ATOM      4  C4  IDS C   1     140.824  47.735  54.0270  0.00  0.00     0.000 C
ATOM      5  C5  IDS C   1     141.786  46.879  53.2090  0.00  0.00     0.000 C
ATOM      6  O5  IDS C   1     141.776  47.299  51.8440  0.00  0.00     0.000 O
ATOM      7   O  IDS C   1     138.653  48.799  53.8760  0.00  0.00     0.000 O
ATOM      9  HD  IDS C   1     137.978  48.874  53.3390  0.00  0.00     0.000 HD
ENDROOT
BRANCH 2 9
ATOM      9   O  IDS C   1     138.365  48.114  51.1760  0.00  0.00     0.000 O
ATOM     10   S  IDS C   1     136.895  47.512  51.0360  0.00  0.00     0.000 S
ATOM     11   O  IDS C   1     136.176  48.419  50.1700  0.00  0.00     0.000 OA
ATOM     12   O  IDS C   1     137.067  46.195  50.4570  0.00  0.00     0.000 OA
ATOM     13   O  IDS C   1     136.355  47.471  52.3770  0.00  0.00     0.000 OA
ENDBRANCH 2 9
BRANCH 5 14
ATOM     14   C  IDS C   1     143.211  46.964  53.7280  0.00  0.00     0.000 C
ATOM     15   O  IDS C   1     144.129  46.971  52.9440  0.00  0.00     0.000 OA
ATOM     16   O  IDS C   1     143.416  47.021  54.9280  0.00  0.00     0.000 OA
ENDBRANCH 5 14
BRANCH 1 17
ATOM     17  O4  SGN C   2     140.526  46.863  49.8560  0.00  0.00     0.000 O
BRANCH 17 21
ATOM     18  C1  SGN C   2     141.936  47.751  46.0160  0.00  0.00     0.000 C
ATOM     19  C2  SGN C   2     142.769  48.276  47.1920  0.00  0.00     0.000 C
ATOM     20  C3  SGN C   2     142.382  47.532  48.4760  0.00  0.00     0.000 C
ATOM     21  C4  SGN C   2     140.876  47.614  48.6970  0.00  0.00     0.000 C
ATOM     22  C5  SGN C   2     140.161  47.061  47.4680  0.00  0.00     0.000 C
ATOM     23  O5  SGN C   2     140.553  47.812  46.2950  0.00  0.00     0.000 O
ATOM     24   O  SGN C   2     143.088  48.075  49.5790  0.00  0.00     0.000 O
ATOM     26  HD  SGN C   2     142.750  47.451  49.0820  0.00  0.00     0.000 HD
BRANCH 19 28
ATOM     26   N  SGN C   2     144.036  48.615  46.5300  0.00  0.00     0.000 N
ATOM     28  HD  SGN C   2     143.433  48.887  45.9720  0.00  0.00     0.000 HD
ATOM     28   O  SGN C   2     146.421  49.324  46.7160  0.00  0.00     0.000 OA
ATOM     29   S  SGN C   2     144.971  49.824  47.0330  0.00  0.00     0.000 S
ATOM     30   O  SGN C   2     144.692  50.944  46.2190  0.00  0.00     0.000 OA
ATOM     31   O  SGN C   2     144.824  49.926  48.4430  0.00  0.00     0.000 OA
ENDBRANCH 19 28
BRANCH 22 32
ATOM     32   C  SGN C   2     138.658  47.150  47.5590  0.00  0.00     0.000 C
ATOM     33   S  SGN C   2     136.597  46.747  46.0640  0.00  0.00     0.000 S
ATOM     34   O  SGN C   2     136.792  47.982  45.3460  0.00  0.00     0.000 OA
ATOM     35   O  SGN C   2     136.158  45.651  45.2270  0.00  0.00     0.000 OA
ATOM     36   O  SGN C   2     135.828  46.887  47.2790  0.00  0.00     0.000 OA
ATOM     37   O  SGN C   2     138.064  46.335  46.5420  0.00  0.00     0.000 O
ENDBRANCH 22 32
BRANCH 18 38
ATOM     38  O4  IDS C   3     142.072  46.637  45.2930  0.00  0.00     0.000 O
BRANCH 38 42
ATOM     39  C1  IDS C   3     143.662  43.787  44.0780  0.00  0.00     0.000 C
ATOM     40  C2  IDS C   3     144.454  45.072  44.3700  0.00  0.00     0.000 C
ATOM     41  C3  IDS C   3     143.824  46.279  43.6760  0.00  0.00     0.000 C
ATOM     42  C4  IDS C   3     142.322  46.331  43.9170  0.00  0.00     0.000 C
ATOM     43  C5  IDS C   3     141.690  44.981  43.5580  0.00  0.00     0.000 C
ATOM     44  O5  IDS C   3     142.283  43.961  44.3590  0.00  0.00     0.000 O
ATOM     45   O  IDS C   3     144.085  46.206  42.2730  0.00  0.00     0.000 O
ATOM     47  HD  IDS C   3     143.946  45.616  41.6540  0.00  0.00     0.000 HD
BRANCH 40 47
ATOM     47   O  IDS C   3     144.469  45.354  45.8250  0.00  0.00     0.000 O
ATOM     48   S  IDS C   3     145.864  45.460  46.6000  0.00  0.00     0.000 S
ATOM     49   O  IDS C   3     146.320  44.099  46.7860  0.00  0.00     0.000 OA
ATOM     50   O  IDS C   3     145.555  46.115  47.8530  0.00  0.00     0.000 OA
ATOM     51   O  IDS C   3     146.739  46.232  45.7590  0.00  0.00     0.000 OA
ENDBRANCH 40 47
BRANCH 43 52
ATOM     52   C  IDS C   3     140.190  44.967  43.7470  0.00  0.00     0.000 C
ATOM     53   O  IDS C   3     139.703  44.343  44.6610  0.00  0.00     0.000 OA
ATOM     54   O  IDS C   3     139.486  45.579  42.9840  0.00  0.00     0.000 OA
ENDBRANCH 43 52
BRANCH 39 55
ATOM     55  O4  SGN C   4     143.908  42.988  43.0400  0.00  0.00     0.000 O
BRANCH 55 59
ATOM     56  C1  SGN C   4     145.734  39.250  43.4910  0.00  0.00     0.000 C
ATOM     57  C2  SGN C   4     146.559  40.475  43.9230  0.00  0.00     0.000 C
ATOM     58  C3  SGN C   4     145.664  41.701  44.0820  0.00  0.00     0.000 C
ATOM     59  C4  SGN C   4     144.809  41.908  42.8370  0.00  0.00     0.000 C
ATOM     60  C5  SGN C   4     144.029  40.625  42.5590  0.00  0.00     0.000 C
ATOM     61  O5  SGN C   4     144.975  39.560  42.3340  0.00  0.00     0.000 O
ATOM     62   O  SGN C   4     146.467  42.847  44.3350  0.00  0.00     0.000 O
ATOM     64  HD  SGN C   4     146.928  42.185  44.6500  0.00  0.00     0.000 HD
BRANCH 57 66
ATOM     64   N  SGN C   4     147.808  39.701  43.8460  0.00  0.00     0.000 N
ATOM     66  HD  SGN C   4     148.653  39.868  43.9350  0.00  0.00     0.000 HD
ATOM     66   S  SGN C   4     148.850  39.720  45.0540  0.00  0.00     0.000 S
ATOM     67   O  SGN C   4     149.968  38.940  44.6640  0.00  0.00     0.000 OA
ATOM     68   O  SGN C   4     149.041  41.082  45.4180  0.00  0.00     0.000 OA
ATOM     69   O  SGN C   4     148.090  38.995  46.2110  0.00  0.00     0.000 OA
ENDBRANCH 57 66
BRANCH 60 70
ATOM     70   C  SGN C   4     143.130  40.708  41.3450  0.00  0.00     0.000 C
ATOM     71   O  SGN C   4     144.039  42.032  37.9500  0.00  0.00     0.000 OA
ATOM     72   O  SGN C   4     143.877  39.718  38.6350  0.00  0.00     0.000 OA
ATOM     73   O  SGN C   4     143.767  41.461  40.2950  0.00  0.00     0.000 O
ATOM     74   S  SGN C   4     143.378  41.065  38.7950  0.00  0.00     0.000 S
ATOM     75   O  SGN C   4     141.932  41.153  38.7520  0.00  0.00     0.000 OA
ENDBRANCH 60 70
BRANCH 56 76
ATOM     76  O4  IDS C   5     145.116  38.236  44.1230  0.00  0.00     0.000 O
BRANCH 76 80
ATOM     77  C1  IDS C   5     143.887  35.030  46.3310  0.00  0.00     0.000 C
ATOM     78  C2  IDS C   5     145.338  34.955  45.8560  0.00  0.00     0.000 C
ATOM     79  C3  IDS C   5     145.818  36.334  45.4480  0.00  0.00     0.000 C
ATOM     80  C4  IDS C   5     145.035  36.806  44.2260  0.00  0.00     0.000 C
ATOM     81  C5  IDS C   5     143.571  36.360  44.3570  0.00  0.00     0.000 C
ATOM     82  O5  IDS C   5     143.231  36.147  45.7300  0.00  0.00     0.000 O
BRANCH 78 83
ATOM     83   O  IDS C   5     146.218  34.453  46.9370  0.00  0.00     0.000 O
ATOM     84   S  IDS C   5     146.898  33.016  46.8040  0.00  0.00     0.000 S
ATOM     85   O  IDS C   5     145.844  32.113  46.4270  0.00  0.00     0.000 OA
ATOM     86   O  IDS C   5     147.907  33.169  45.7830  0.00  0.00     0.000 OA
ATOM     87   O  IDS C   5     147.458  32.728  48.1020  0.00  0.00     0.000 OA
ENDBRANCH 78 83
BRANCH 81 88
ATOM     88   C  IDS C   5     142.572  37.351  43.7870  0.00  0.00     0.000 C
ATOM     89   O  IDS C   5     142.384  37.396  42.6010  0.00  0.00     0.000 OA
ATOM     90   O  IDS C   5     141.970  38.089  44.5320  0.00  0.00     0.000 OA
ENDBRANCH 81 88
ENDBRANCH 76 80
ENDBRANCH 56 76
ENDBRANCH 55 59
ENDBRANCH 39 55
ENDBRANCH 38 42
ENDBRANCH 18 38
ENDBRANCH 17 21
ENDBRANCH 1 17
TORSDOF 18
ENDMDL
MODEL 30
REMARK VINA RESULT:      -6.5     10.631     16.717
ROOT
ATOM      1  C1  IDS C   1     146.318  35.200  39.1980  0.00  0.00     0.000 C
ATOM      2  C2  IDS C   1     146.974  34.470  38.0220  0.00  0.00     0.000 C
ATOM      3  C3  IDS C   1     148.490  34.580  38.0950  0.00  0.00     0.000 C
ATOM      4  C4  IDS C   1     148.924  36.039  38.0860  0.00  0.00     0.000 C
ATOM      5  C5  IDS C   1     147.963  36.876  38.9250  0.00  0.00     0.000 C
ATOM      6  O5  IDS C   1     147.262  36.042  39.8470  0.00  0.00     0.000 O
ATOM      7   O  IDS C   1     149.081  33.886  36.9880  0.00  0.00     0.000 O
ATOM      9  HD  IDS C   1     148.607  33.179  36.8250  0.00  0.00     0.000 HD
ENDROOT
BRANCH 2 9
ATOM      9   O  IDS C   1     146.630  33.030  38.0370  0.00  0.00     0.000 O
ATOM     10   S  IDS C   1     146.016  32.357  36.7280  0.00  0.00     0.000 S
ATOM     11   O  IDS C   1     145.807  30.965  37.0580  0.00  0.00     0.000 OA
ATOM     12   O  IDS C   1     144.781  33.067  36.4670  0.00  0.00     0.000 OA
ATOM     13   O  IDS C   1     147.004  32.545  35.6880  0.00  0.00     0.000 OA
ENDBRANCH 2 9
BRANCH 5 14
ATOM     14   C  IDS C   1     148.683  37.961  39.7080  0.00  0.00     0.000 C
ATOM     15   O  IDS C   1     148.596  39.110  39.3490  0.00  0.00     0.000 OA
ATOM     16   O  IDS C   1     149.342  37.662  40.6900  0.00  0.00     0.000 OA
ENDBRANCH 5 14
BRANCH 1 17
ATOM     17  O4  SGN C   2     145.291  34.694  39.8860  0.00  0.00     0.000 O
BRANCH 17 21
ATOM     18  C1  SGN C   2     143.507  32.958  43.2520  0.00  0.00     0.000 C
ATOM     19  C2  SGN C   2     144.932  33.495  43.4300  0.00  0.00     0.000 C
ATOM     20  C3  SGN C   2     145.274  34.453  42.2820  0.00  0.00     0.000 C
ATOM     21  C4  SGN C   2     145.032  33.771  40.9400  0.00  0.00     0.000 C
ATOM     22  C5  SGN C   2     143.586  33.287  40.8820  0.00  0.00     0.000 C
ATOM     23  O5  SGN C   2     143.330  32.378  41.9770  0.00  0.00     0.000 O
ATOM     24   O  SGN C   2     146.620  34.883  42.3970  0.00  0.00     0.000 O
ATOM     26  HD  SGN C   2     145.771  34.965  42.2500  0.00  0.00     0.000 HD
BRANCH 19 28
ATOM     26   N  SGN C   2     145.000  33.674  44.8870  0.00  0.00     0.000 N
ATOM     28  HD  SGN C   2     144.418  33.041  44.7840  0.00  0.00     0.000 HD
ATOM     28   O  SGN C   2     146.344  34.239  46.9110  0.00  0.00     0.000 OA
ATOM     29   S  SGN C   2     146.263  33.186  45.7550  0.00  0.00     0.000 S
ATOM     30   O  SGN C   2     145.937  31.929  46.3110  0.00  0.00     0.000 OA
ATOM     31   O  SGN C   2     147.421  33.316  44.9410  0.00  0.00     0.000 OA
ENDBRANCH 19 28
BRANCH 22 32
ATOM     32   C  SGN C   2     143.255  32.542  39.6110  0.00  0.00     0.000 C
ATOM     33   S  SGN C   2     141.305  32.331  37.9400  0.00  0.00     0.000 S
ATOM     34   O  SGN C   2     140.545  31.488  38.8280  0.00  0.00     0.000 OA
ATOM     35   O  SGN C   2     140.495  33.284  37.2090  0.00  0.00     0.000 OA
ATOM     36   O  SGN C   2     142.243  31.616  37.1070  0.00  0.00     0.000 OA
ATOM     37   O  SGN C   2     142.203  33.221  38.9150  0.00  0.00     0.000 O
ENDBRANCH 22 32
BRANCH 18 38
ATOM     38  O4  IDS C   3     142.330  33.533  43.5120  0.00  0.00     0.000 O
BRANCH 38 42
ATOM     39  C1  IDS C   3     138.983  34.443  43.2020  0.00  0.00     0.000 C
ATOM     40  C2  IDS C   3     140.018  35.418  43.7840  0.00  0.00     0.000 C
ATOM     41  C3  IDS C   3     140.811  34.771  44.9180  0.00  0.00     0.000 C
ATOM     42  C4  IDS C   3     141.321  33.393  44.5180  0.00  0.00     0.000 C
ATOM     43  C5  IDS C   3     140.160  32.547  43.9790  0.00  0.00     0.000 C
ATOM     44  O5  IDS C   3     139.585  33.207  42.8530  0.00  0.00     0.000 O
ATOM     45   O  IDS C   3     139.979  34.660  46.0750  0.00  0.00     0.000 O
ATOM     47  HD  IDS C   3     139.207  34.305  46.2410  0.00  0.00     0.000 HD
BRANCH 40 47
ATOM     47   O  IDS C   3     140.988  35.831  42.7420  0.00  0.00     0.000 O
ATOM     48   S  IDS C   3     141.325  37.381  42.5380  0.00  0.00     0.000 S
ATOM     49   O  IDS C   3     140.202  37.940  41.8170  0.00  0.00     0.000 OA
ATOM     50   O  IDS C   3     142.547  37.406  41.7640  0.00  0.00     0.000 OA
ATOM     51   O  IDS C   3     141.478  37.941  43.8550  0.00  0.00     0.000 OA
ENDBRANCH 40 47
BRANCH 43 52
ATOM     52   C  IDS C   3     140.587  31.150  43.5860  0.00  0.00     0.000 C
ATOM     53   O  IDS C   3     140.466  30.783  42.4400  0.00  0.00     0.000 OA
ATOM     54   O  IDS C   3     141.047  30.409  44.4170  0.00  0.00     0.000 OA
ENDBRANCH 43 52
BRANCH 39 55
ATOM     55  O4  SGN C   4     137.736  34.329  43.6580  0.00  0.00     0.000 O
BRANCH 55 59
ATOM     56  C1  SGN C   4     133.675  33.418  43.2280  0.00  0.00     0.000 C
ATOM     57  C2  SGN C   4     134.662  32.247  43.0800  0.00  0.00     0.000 C
ATOM     58  C3  SGN C   4     136.032  32.620  43.6390  0.00  0.00     0.000 C
ATOM     59  C4  SGN C   4     136.511  33.943  43.0520  0.00  0.00     0.000 C
ATOM     60  C5  SGN C   4     135.445  35.007  43.3070  0.00  0.00     0.000 C
ATOM     61  O5  SGN C   4     134.227  34.593  42.6560  0.00  0.00     0.000 O
ATOM     62   O  SGN C   4     136.960  31.581  43.3570  0.00  0.00     0.000 O
ATOM     64  HD  SGN C   4     136.194  31.181  43.4030  0.00  0.00     0.000 HD
BRANCH 57 66
ATOM     64   N  SGN C   4     134.523  30.947  42.4050  0.00  0.00     0.000 N
ATOM     66  HD  SGN C   4     134.476  30.117  42.6490  0.00  0.00     0.000 HD
ATOM     66   S  SGN C   4     133.357  29.939  42.8170  0.00  0.00     0.000 S
ATOM     67   O  SGN C   4     133.519  28.762  42.0440  0.00  0.00     0.000 OA
ATOM     68   O  SGN C   4     133.367  29.850  44.2370  0.00  0.00     0.000 OA
ATOM     69   O  SGN C   4     132.054  30.677  42.3710  0.00  0.00     0.000 OA
ENDBRANCH 57 66
BRANCH 60 70
ATOM     70   C  SGN C   4     135.810  36.376  42.7750  0.00  0.00     0.000 C
ATOM     71   O  SGN C   4     136.269  37.351  39.1770  0.00  0.00     0.000 OA
ATOM     72   O  SGN C   4     134.346  37.768  40.5840  0.00  0.00     0.000 OA
ATOM     73   O  SGN C   4     136.099  36.310  41.3650  0.00  0.00     0.000 O
ATOM     74   S  SGN C   4     135.783  37.624  40.5100  0.00  0.00     0.000 S
ATOM     75   O  SGN C   4     136.504  38.686  41.1820  0.00  0.00     0.000 OA
ENDBRANCH 60 70
BRANCH 56 76
ATOM     76  O4  IDS C   5     132.766  33.800  44.1440  0.00  0.00     0.000 O
BRANCH 76 80
ATOM     77  C1  IDS C   5     130.120  33.584  47.2440  0.00  0.00     0.000 C
ATOM     78  C2  IDS C   5     129.959  32.484  46.1950  0.00  0.00     0.000 C
ATOM     79  C3  IDS C   5     131.218  32.386  45.3560  0.00  0.00     0.000 C
ATOM     80  C4  IDS C   5     131.395  33.668  44.5480  0.00  0.00     0.000 C
ATOM     81  C5  IDS C   5     130.970  34.870  45.4030  0.00  0.00     0.000 C
ATOM     82  O5  IDS C   5     131.065  34.556  46.7950  0.00  0.00     0.000 O
BRANCH 78 83
ATOM     83   O  IDS C   5     129.725  31.172  46.8430  0.00  0.00     0.000 O
ATOM     84   S  IDS C   5     128.308  30.455  46.6910  0.00  0.00     0.000 S
ATOM     85   O  IDS C   5     127.323  31.456  46.9990  0.00  0.00     0.000 OA
ATOM     86   O  IDS C   5     128.256  30.009  45.3180  0.00  0.00     0.000 OA
ATOM     87   O  IDS C   5     128.322  29.361  47.6310  0.00  0.00     0.000 OA
ENDBRANCH 78 83
BRANCH 81 88
ATOM     88   C  IDS C   5     131.794  36.121  45.1590  0.00  0.00     0.000 C
ATOM     89   O  IDS C   5     131.566  36.812  44.2020  0.00  0.00     0.000 OA
ATOM     90   O  IDS C   5     132.676  36.417  45.9330  0.00  0.00     0.000 OA
ENDBRANCH 81 88
ENDBRANCH 76 80
ENDBRANCH 56 76
ENDBRANCH 55 59
ENDBRANCH 39 55
ENDBRANCH 38 42
ENDBRANCH 18 38
ENDBRANCH 17 21
ENDBRANCH 1 17
TORSDOF 18
ENDMDL
MODEL 31
REMARK VINA RESULT:      -6.3     10.547     16.312
ROOT
ATOM      1  C1  IDS C   1     140.551  47.003  51.1030  0.00  0.00     0.000 C
ATOM      2  C2  IDS C   1     139.355  47.434  51.9570  0.00  0.00     0.000 C
ATOM      3  C3  IDS C   1     139.793  48.389  53.0570  0.00  0.00     0.000 C
ATOM      4  C4  IDS C   1     140.838  47.736  53.9510  0.00  0.00     0.000 C
ATOM      5  C5  IDS C   1     141.799  46.902  53.1100  0.00  0.00     0.000 C
ATOM      6  O5  IDS C   1     141.770  47.342  51.7520  0.00  0.00     0.000 O
ATOM      7   O  IDS C   1     138.656  48.781  53.8390  0.00  0.00     0.000 O
ATOM      9  HD  IDS C   1     137.975  48.858  53.3100  0.00  0.00     0.000 HD
ENDROOT
BRANCH 2 9
ATOM      9   O  IDS C   1     138.345  48.136  51.1320  0.00  0.00     0.000 O
ATOM     10   S  IDS C   1     136.868  47.544  51.0300  0.00  0.00     0.000 S
ATOM     11   O  IDS C   1     136.135  48.452  50.1770  0.00  0.00     0.000 OA
ATOM     12   O  IDS C   1     137.017  46.224  50.4520  0.00  0.00     0.000 OA
ATOM     13   O  IDS C   1     136.361  47.512  52.3840  0.00  0.00     0.000 OA
ENDBRANCH 2 9
BRANCH 5 14
ATOM     14   C  IDS C   1     143.229  46.992  53.6150  0.00  0.00     0.000 C
ATOM     15   O  IDS C   1     144.086  47.439  52.8930  0.00  0.00     0.000 OA
ATOM     16   O  IDS C   1     143.498  46.610  54.7410  0.00  0.00     0.000 OA
ENDBRANCH 5 14
BRANCH 1 17
ATOM     17  O4  SGN C   2     140.504  46.925  49.7700  0.00  0.00     0.000 O
BRANCH 17 21
ATOM     18  C1  SGN C   2     141.811  47.899  45.9140  0.00  0.00     0.000 C
ATOM     19  C2  SGN C   2     142.677  48.395  47.0780  0.00  0.00     0.000 C
ATOM     20  C3  SGN C   2     142.324  47.622  48.3550  0.00  0.00     0.000 C
ATOM     21  C4  SGN C   2     140.825  47.702  48.6190  0.00  0.00     0.000 C
ATOM     22  C5  SGN C   2     140.075  47.180  47.3980  0.00  0.00     0.000 C
ATOM     23  O5  SGN C   2     140.436  47.956  46.2330  0.00  0.00     0.000 O
ATOM     24   O  SGN C   2     143.061  48.137  49.4510  0.00  0.00     0.000 O
ATOM     26  HD  SGN C   2     142.708  47.526  48.9490  0.00  0.00     0.000 HD
BRANCH 19 28
ATOM     26   N  SGN C   2     143.947  48.681  46.3960  0.00  0.00     0.000 N
ATOM     28  HD  SGN C   2     143.346  48.882  45.8060  0.00  0.00     0.000 HD
ATOM     28   O  SGN C   2     146.318  49.444  46.5270  0.00  0.00     0.000 OA
ATOM     29   S  SGN C   2     144.857  49.951  46.7740  0.00  0.00     0.000 S
ATOM     30   O  SGN C   2     144.570  50.973  45.8420  0.00  0.00     0.000 OA
ATOM     31   O  SGN C   2     144.693  50.202  48.1640  0.00  0.00     0.000 OA
ENDBRANCH 19 28
BRANCH 22 32
ATOM     32   C  SGN C   2     138.574  47.270  47.5330  0.00  0.00     0.000 C
ATOM     33   S  SGN C   2     136.469  46.791  46.1260  0.00  0.00     0.000 S
ATOM     34   O  SGN C   2     136.636  47.989  45.3420  0.00  0.00     0.000 OA
ATOM     35   O  SGN C   2     136.007  45.654  45.3570  0.00  0.00     0.000 OA
ATOM     36   O  SGN C   2     135.738  46.988  47.3550  0.00  0.00     0.000 OA
ATOM     37   O  SGN C   2     137.951  46.405  46.5760  0.00  0.00     0.000 O
ENDBRANCH 22 32
BRANCH 18 38
ATOM     38  O4  IDS C   3     141.924  46.801  45.1620  0.00  0.00     0.000 O
BRANCH 38 42
ATOM     39  C1  IDS C   3     143.322  43.986  43.6640  0.00  0.00     0.000 C
ATOM     40  C2  IDS C   3     144.139  45.275  43.8440  0.00  0.00     0.000 C
ATOM     41  C3  IDS C   3     143.395  46.485  43.2780  0.00  0.00     0.000 C
ATOM     42  C4  IDS C   3     141.951  46.517  43.7590  0.00  0.00     0.000 C
ATOM     43  C5  IDS C   3     141.281  45.165  43.4860  0.00  0.00     0.000 C
ATOM     44  O5  IDS C   3     142.005  44.140  44.1660  0.00  0.00     0.000 O
ATOM     45   O  IDS C   3     143.426  46.434  41.8510  0.00  0.00     0.000 O
ATOM     47  HD  IDS C   3     143.194  45.852  41.2530  0.00  0.00     0.000 HD
BRANCH 40 47
ATOM     47   O  IDS C   3     144.386  45.538  45.2810  0.00  0.00     0.000 O
ATOM     48   S  IDS C   3     145.887  45.673  45.8180  0.00  0.00     0.000 S
ATOM     49   O  IDS C   3     146.402  44.323  45.9010  0.00  0.00     0.000 OA
ATOM     50   O  IDS C   3     145.771  46.301  47.1160  0.00  0.00     0.000 OA
ATOM     51   O  IDS C   3     146.591  46.481  44.8590  0.00  0.00     0.000 OA
ENDBRANCH 40 47
BRANCH 43 52
ATOM     52   C  IDS C   3     139.831  45.132  43.9140  0.00  0.00     0.000 C
ATOM     53   O  IDS C   3     139.041  45.909  43.4290  0.00  0.00     0.000 OA
ATOM     54   O  IDS C   3     139.469  44.330  44.7370  0.00  0.00     0.000 OA
ENDBRANCH 43 52
BRANCH 39 55
ATOM     55  O4  SGN C   4     143.404  43.204  42.5870  0.00  0.00     0.000 O
BRANCH 55 59
ATOM     56  C1  SGN C   4     144.136  39.087  42.4480  0.00  0.00     0.000 C
ATOM     57  C2  SGN C   4     145.034  39.914  43.3840  0.00  0.00     0.000 C
ATOM     58  C3  SGN C   4     144.425  41.289  43.6430  0.00  0.00     0.000 C
ATOM     59  C4  SGN C   4     144.063  41.973  42.3290  0.00  0.00     0.000 C
ATOM     60  C5  SGN C   4     143.147  41.048  41.5310  0.00  0.00     0.000 C
ATOM     61  O5  SGN C   4     143.859  39.822  41.2670  0.00  0.00     0.000 O
ATOM     62   O  SGN C   4     145.341  42.083  44.3850  0.00  0.00     0.000 O
ATOM     64  HD  SGN C   4     145.525  41.268  44.6140  0.00  0.00     0.000 HD
BRANCH 57 66
ATOM     64   N  SGN C   4     145.190  38.790  44.3210  0.00  0.00     0.000 N
ATOM     66  HD  SGN C   4     145.631  38.044  44.3360  0.00  0.00     0.000 HD
ATOM     66   S  SGN C   4     146.640  38.326  44.7980  0.00  0.00     0.000 S
ATOM     67   O  SGN C   4     146.470  37.196  45.6380  0.00  0.00     0.000 OA
ATOM     68   O  SGN C   4     147.446  38.215  43.6320  0.00  0.00     0.000 OA
ATOM     69   O  SGN C   4     147.154  39.532  45.6490  0.00  0.00     0.000 OA
ENDBRANCH 57 66
BRANCH 60 70
ATOM     70   C  SGN C   4     142.708  41.622  40.2010  0.00  0.00     0.000 C
ATOM     71   O  SGN C   4     139.241  41.574  38.7580  0.00  0.00     0.000 OA
ATOM     72   O  SGN C   4     140.358  43.421  39.8480  0.00  0.00     0.000 OA
ATOM     73   O  SGN C   4     141.354  41.228  39.9030  0.00  0.00     0.000 O
ATOM     74   S  SGN C   4     140.493  42.244  39.0190  0.00  0.00     0.000 S
ATOM     75   O  SGN C   4     141.289  42.466  37.8280  0.00  0.00     0.000 OA
ENDBRANCH 60 70
BRANCH 56 76
ATOM     76  O4  IDS C   5     143.146  38.189  42.6090  0.00  0.00     0.000 O
BRANCH 76 80
ATOM     77  C1  IDS C   5     139.941  35.664  42.6960  0.00  0.00     0.000 C
ATOM     78  C2  IDS C   5     139.711  36.955  41.9110  0.00  0.00     0.000 C
ATOM     79  C3  IDS C   5     141.042  37.593  41.5680  0.00  0.00     0.000 C
ATOM     80  C4  IDS C   5     141.739  38.039  42.8500  0.00  0.00     0.000 C
ATOM     81  C5  IDS C   5     141.491  37.000  43.9530  0.00  0.00     0.000 C
ATOM     82  O5  IDS C   5     141.192  35.723  43.3810  0.00  0.00     0.000 O
BRANCH 78 83
ATOM     83   O  IDS C   5     138.986  36.677  40.6480  0.00  0.00     0.000 O
ATOM     84   S  IDS C   5     137.621  37.440  40.3330  0.00  0.00     0.000 S
ATOM     85   O  IDS C   5     136.817  37.319  41.5200  0.00  0.00     0.000 OA
ATOM     86   O  IDS C   5     138.006  38.801  40.0450  0.00  0.00     0.000 OA
ATOM     87   O  IDS C   5     137.053  36.768  39.1900  0.00  0.00     0.000 OA
ENDBRANCH 78 83
BRANCH 81 88
ATOM     88   C  IDS C   5     142.664  36.814  44.8990  0.00  0.00     0.000 C
ATOM     89   O  IDS C   5     142.778  37.529  45.8580  0.00  0.00     0.000 OA
ATOM     90   O  IDS C   5     143.476  35.944  44.6820  0.00  0.00     0.000 OA
ENDBRANCH 81 88
ENDBRANCH 76 80
ENDBRANCH 56 76
ENDBRANCH 55 59
ENDBRANCH 39 55
ENDBRANCH 38 42
ENDBRANCH 18 38
ENDBRANCH 17 21
ENDBRANCH 1 17
TORSDOF 18
ENDMDL
MODEL 32
REMARK VINA RESULT:      -6.3      7.210     16.033
ROOT
ATOM      1  C1  IDS C   1     158.029  37.800  52.7490  0.00  0.00     0.000 C
ATOM      2  C2  IDS C   1     156.756  36.976  52.9630  0.00  0.00     0.000 C
ATOM      3  C3  IDS C   1     155.522  37.777  52.5720  0.00  0.00     0.000 C
ATOM      4  C4  IDS C   1     155.434  39.059  53.3880  0.00  0.00     0.000 C
ATOM      5  C5  IDS C   1     156.824  39.662  53.5680  0.00  0.00     0.000 C
ATOM      6  O5  IDS C   1     157.706  39.171  52.5580  0.00  0.00     0.000 O
ATOM      7   O  IDS C   1     154.345  36.984  52.7770  0.00  0.00     0.000 O
ATOM      9  HD  IDS C   1     154.530  36.163  52.5740  0.00  0.00     0.000 HD
ENDROOT
BRANCH 2 9
ATOM      9   O  IDS C   1     156.775  35.752  52.1310  0.00  0.00     0.000 O
ATOM     10   S  IDS C   1     156.594  34.329  52.8280  0.00  0.00     0.000 S
ATOM     11   O  IDS C   1     156.644  33.355  51.7600  0.00  0.00     0.000 OA
ATOM     12   O  IDS C   1     157.699  34.206  53.7560  0.00  0.00     0.000 OA
ATOM     13   O  IDS C   1     155.307  34.373  53.4870  0.00  0.00     0.000 OA
ENDBRANCH 2 9
BRANCH 5 14
ATOM     14   C  IDS C   1     156.805  41.179  53.4940  0.00  0.00     0.000 C
ATOM     15   O  IDS C   1     156.423  41.720  52.4850  0.00  0.00     0.000 OA
ATOM     16   O  IDS C   1     157.176  41.837  54.4520  0.00  0.00     0.000 OA
ENDBRANCH 5 14
BRANCH 1 17
ATOM     17  O4  SGN C   2     159.140  37.295  52.2040  0.00  0.00     0.000 O
BRANCH 17 21
ATOM     18  C1  SGN C   2     162.176  37.095  49.3300  0.00  0.00     0.000 C
ATOM     19  C2  SGN C   2     161.286  38.343  49.3030  0.00  0.00     0.000 C
ATOM     20  C3  SGN C   2     160.532  38.473  50.6320  0.00  0.00     0.000 C
ATOM     21  C4  SGN C   2     159.780  37.182  50.9360  0.00  0.00     0.000 C
ATOM     22  C5  SGN C   2     160.768  36.019  50.9400  0.00  0.00     0.000 C
ATOM     23  O5  SGN C   2     161.434  35.939  49.6590  0.00  0.00     0.000 O
ATOM     24   O  SGN C   2     159.644  39.576  50.5770  0.00  0.00     0.000 O
ATOM     26  HD  SGN C   2     160.232  39.048  50.9300  0.00  0.00     0.000 HD
BRANCH 19 28
ATOM     26   N  SGN C   2     162.125  39.284  48.5470  0.00  0.00     0.000 N
ATOM     28  HD  SGN C   2     162.337  38.511  48.2200  0.00  0.00     0.000 HD
ATOM     28   O  SGN C   2     162.418  41.541  47.5260  0.00  0.00     0.000 OA
ATOM     29   S  SGN C   2     161.521  40.262  47.4230  0.00  0.00     0.000 S
ATOM     30   O  SGN C   2     161.744  39.654  46.1670  0.00  0.00     0.000 OA
ATOM     31   O  SGN C   2     160.198  40.603  47.8130  0.00  0.00     0.000 OA
ENDBRANCH 19 28
BRANCH 22 32
ATOM     32   C  SGN C   2     160.115  34.679  51.1760  0.00  0.00     0.000 C
ATOM     33   S  SGN C   2     159.711  32.470  49.9110  0.00  0.00     0.000 S
ATOM     34   O  SGN C   2     158.646  33.037  49.1230  0.00  0.00     0.000 OA
ATOM     35   O  SGN C   2     160.562  31.562  49.1710  0.00  0.00     0.000 OA
ATOM     36   O  SGN C   2     159.285  31.947  51.1880  0.00  0.00     0.000 OA
ATOM     37   O  SGN C   2     160.647  33.716  50.2590  0.00  0.00     0.000 O
ENDBRANCH 22 32
BRANCH 18 38
ATOM     38  O4  IDS C   3     163.362  36.894  49.9080  0.00  0.00     0.000 O
BRANCH 38 42
ATOM     39  C1  IDS C   3     166.609  37.390  51.0670  0.00  0.00     0.000 C
ATOM     40  C2  IDS C   3     166.179  37.888  49.6780  0.00  0.00     0.000 C
ATOM     41  C3  IDS C   3     165.533  36.767  48.8650  0.00  0.00     0.000 C
ATOM     42  C4  IDS C   3     164.481  36.030  49.6820  0.00  0.00     0.000 C
ATOM     43  C5  IDS C   3     165.081  35.588  51.0220  0.00  0.00     0.000 C
ATOM     44  O5  IDS C   3     165.538  36.739  51.7310  0.00  0.00     0.000 O
ATOM     45   O  IDS C   3     166.542  35.851  48.4370  0.00  0.00     0.000 O
ATOM     47  HD  IDS C   3     167.152  35.383  48.8350  0.00  0.00     0.000 HD
BRANCH 40 47
ATOM     47   O  IDS C   3     165.184  38.979  49.8010  0.00  0.00     0.000 O
ATOM     48   S  IDS C   3     165.677  40.492  49.9600  0.00  0.00     0.000 S
ATOM     49   O  IDS C   3     166.105  40.628  51.3360  0.00  0.00     0.000 OA
ATOM     50   O  IDS C   3     164.519  41.304  49.6580  0.00  0.00     0.000 OA
ATOM     51   O  IDS C   3     166.753  40.670  49.0220  0.00  0.00     0.000 OA
ENDBRANCH 40 47
BRANCH 43 52
ATOM     52   C  IDS C   3     164.098  34.821  51.8800  0.00  0.00     0.000 C
ATOM     53   O  IDS C   3     163.652  35.326  52.8840  0.00  0.00     0.000 OA
ATOM     54   O  IDS C   3     163.764  33.710  51.5560  0.00  0.00     0.000 OA
ENDBRANCH 43 52
BRANCH 39 55
ATOM     55  O4  SGN C   4     167.807  36.866  51.3260  0.00  0.00     0.000 O
BRANCH 55 59
ATOM     56  C1  SGN C   4     170.610  39.279  53.2830  0.00  0.00     0.000 C
ATOM     57  C2  SGN C   4     170.387  39.559  51.7860  0.00  0.00     0.000 C
ATOM     58  C3  SGN C   4     169.095  38.907  51.3000  0.00  0.00     0.000 C
ATOM     59  C4  SGN C   4     169.057  37.434  51.6920  0.00  0.00     0.000 C
ATOM     60  C5  SGN C   4     169.258  37.322  53.2020  0.00  0.00     0.000 C
ATOM     61  O5  SGN C   4     170.544  37.884  53.5290  0.00  0.00     0.000 O
ATOM     62   O  SGN C   4     168.989  39.054  49.8910  0.00  0.00     0.000 O
ATOM     64  HD  SGN C   4     169.457  39.737  50.1450  0.00  0.00     0.000 HD
BRANCH 57 66
ATOM     64   N  SGN C   4     171.674  40.265  51.6840  0.00  0.00     0.000 N
ATOM     66  HD  SGN C   4     172.137  40.632  51.0510  0.00  0.00     0.000 HD
ATOM     66   S  SGN C   4     171.755  41.711  51.0130  0.00  0.00     0.000 S
ATOM     67   O  SGN C   4     173.119  42.099  51.0050  0.00  0.00     0.000 OA
ATOM     68   O  SGN C   4     171.041  41.641  49.7860  0.00  0.00     0.000 OA
ATOM     69   O  SGN C   4     170.963  42.623  52.0030  0.00  0.00     0.000 OA
ENDBRANCH 57 66
BRANCH 60 70
ATOM     70   C  SGN C   4     169.230  35.899  53.7170  0.00  0.00     0.000 C
ATOM     71   O  SGN C   4     166.195  33.753  54.2520  0.00  0.00     0.000 OA
ATOM     72   O  SGN C   4     167.752  33.670  52.4040  0.00  0.00     0.000 OA
ATOM     73   O  SGN C   4     167.876  35.485  53.9830  0.00  0.00     0.000 O
ATOM     74   S  SGN C   4     167.560  33.927  53.8130  0.00  0.00     0.000 S
ATOM     75   O  SGN C   4     168.529  33.258  54.6590  0.00  0.00     0.000 OA
ENDBRANCH 60 70
BRANCH 56 76
ATOM     76  O4  IDS C   5     170.315  39.910  54.4340  0.00  0.00     0.000 O
BRANCH 76 80
ATOM     77  C1  IDS C   5     166.810  39.924  56.5260  0.00  0.00     0.000 C
ATOM     78  C2  IDS C   5     166.857  40.912  55.3610  0.00  0.00     0.000 C
ATOM     79  C3  IDS C   5     167.974  40.531  54.4090  0.00  0.00     0.000 C
ATOM     80  C4  IDS C   5     169.320  40.695  55.1090  0.00  0.00     0.000 C
ATOM     81  C5  IDS C   5     169.189  40.250  56.5730  0.00  0.00     0.000 C
ATOM     82  O5  IDS C   5     168.097  39.338  56.7250  0.00  0.00     0.000 O
BRANCH 78 83
ATOM     83   O  IDS C   5     165.579  40.900  54.6120  0.00  0.00     0.000 O
ATOM     84   S  IDS C   5     164.735  42.245  54.4630  0.00  0.00     0.000 S
ATOM     85   O  IDS C   5     164.645  42.805  55.7850  0.00  0.00     0.000 OA
ATOM     86   O  IDS C   5     165.491  43.067  53.5480  0.00  0.00     0.000 OA
ATOM     87   O  IDS C   5     163.457  41.847  53.9250  0.00  0.00     0.000 OA
ENDBRANCH 78 83
BRANCH 81 88
ATOM     88   C  IDS C   5     170.430  39.573  57.1240  0.00  0.00     0.000 C
ATOM     89   O  IDS C   5     170.460  38.377  57.2370  0.00  0.00     0.000 OA
ATOM     90   O  IDS C   5     171.384  40.244  57.4470  0.00  0.00     0.000 OA
ENDBRANCH 81 88
ENDBRANCH 76 80
ENDBRANCH 56 76
ENDBRANCH 55 59
ENDBRANCH 39 55
ENDBRANCH 38 42
ENDBRANCH 18 38
ENDBRANCH 17 21
ENDBRANCH 1 17
TORSDOF 18
ENDMDL
MODEL 33
REMARK VINA RESULT:      -6.1     16.501     23.560
ROOT
ATOM      1  C1  IDS C   1     137.516  46.496  49.4560  0.00  0.00     0.000 C
ATOM      2  C2  IDS C   1     138.160  47.315  50.5770  0.00  0.00     0.000 C
ATOM      3  C3  IDS C   1     139.497  47.888  50.1290  0.00  0.00     0.000 C
ATOM      4  C4  IDS C   1     140.446  46.773  49.7120  0.00  0.00     0.000 C
ATOM      5  C5  IDS C   1     139.683  45.691  48.9560  0.00  0.00     0.000 C
ATOM      6  O5  IDS C   1     138.466  46.223  48.4330  0.00  0.00     0.000 O
ATOM      7   O  IDS C   1     140.078  48.654  51.1940  0.00  0.00     0.000 O
ATOM      9  HD  IDS C   1     139.441  49.061  51.6160  0.00  0.00     0.000 HD
ENDROOT
BRANCH 2 9
ATOM      9   O  IDS C   1     137.295  48.452  50.9640  0.00  0.00     0.000 O
ATOM     10   S  IDS C   1     136.805  48.586  52.4760  0.00  0.00     0.000 S
ATOM     11   O  IDS C   1     136.002  49.787  52.5270  0.00  0.00     0.000 OA
ATOM     12   O  IDS C   1     136.042  47.385  52.7460  0.00  0.00     0.000 OA
ATOM     13   O  IDS C   1     138.008  48.681  53.2730  0.00  0.00     0.000 OA
ENDBRANCH 2 9
BRANCH 5 14
ATOM     14   C  IDS C   1     140.491  45.117  47.8050  0.00  0.00     0.000 C
ATOM     15   O  IDS C   1     141.666  45.379  47.7160  0.00  0.00     0.000 OA
ATOM     16   O  IDS C   1     139.948  44.399  46.9820  0.00  0.00     0.000 OA
ENDBRANCH 5 14
BRANCH 1 17
ATOM     17  O4  SGN C   2     136.216  46.568  49.1560  0.00  0.00     0.000 O
BRANCH 17 21
ATOM     18  C1  SGN C   2     133.031  47.827  46.7500  0.00  0.00     0.000 C
ATOM     19  C2  SGN C   2     134.441  48.175  46.2590  0.00  0.00     0.000 C
ATOM     20  C3  SGN C   2     135.474  47.306  46.9880  0.00  0.00     0.000 C
ATOM     21  C4  SGN C   2     135.294  47.431  48.4960  0.00  0.00     0.000 C
ATOM     22  C5  SGN C   2     133.860  47.056  48.8590  0.00  0.00     0.000 C
ATOM     23  O5  SGN C   2     132.936  47.918  48.1560  0.00  0.00     0.000 O
ATOM     24   O  SGN C   2     136.784  47.685  46.6000  0.00  0.00     0.000 O
ATOM     26  HD  SGN C   2     136.142  47.139  46.7990  0.00  0.00     0.000 HD
BRANCH 19 28
ATOM     26   N  SGN C   2     134.198  48.439  44.8340  0.00  0.00     0.000 N
ATOM     28  HD  SGN C   2     133.463  48.687  45.2180  0.00  0.00     0.000 HD
ATOM     28   O  SGN C   2     135.090  49.102  42.6010  0.00  0.00     0.000 OA
ATOM     29   S  SGN C   2     134.902  49.656  44.0540  0.00  0.00     0.000 S
ATOM     30   O  SGN C   2     133.980  50.726  44.0140  0.00  0.00     0.000 OA
ATOM     31   O  SGN C   2     136.185  49.855  44.6330  0.00  0.00     0.000 OA
ENDBRANCH 19 28
BRANCH 22 32
ATOM     32   C  SGN C   2     133.558  47.203  50.3310  0.00  0.00     0.000 C
ATOM     33   S  SGN C   2     132.308  45.927  52.1890  0.00  0.00     0.000 S
ATOM     34   O  SGN C   2     131.018  46.358  51.7120  0.00  0.00     0.000 OA
ATOM     35   O  SGN C   2     132.326  44.557  52.6600  0.00  0.00     0.000 OA
ATOM     36   O  SGN C   2     132.941  46.855  53.0970  0.00  0.00     0.000 OA
ATOM     37   O  SGN C   2     133.229  45.923  50.8850  0.00  0.00     0.000 O
ENDBRANCH 22 32
BRANCH 18 38
ATOM     38  O4  IDS C   3     132.239  46.799  46.4380  0.00  0.00     0.000 O
BRANCH 38 42
ATOM     39  C1  IDS C   3     130.807  43.939  45.0590  0.00  0.00     0.000 C
ATOM     40  C2  IDS C   3     131.352  45.063  44.1630  0.00  0.00     0.000 C
ATOM     41  C3  IDS C   3     130.772  46.419  44.5620  0.00  0.00     0.000 C
ATOM     42  C4  IDS C   3     130.866  46.637  46.0660  0.00  0.00     0.000 C
ATOM     43  C5  IDS C   3     130.261  45.437  46.8040  0.00  0.00     0.000 C
ATOM     44  O5  IDS C   3     130.969  44.256  46.4320  0.00  0.00     0.000 O
ATOM     45   O  IDS C   3     129.406  46.489  44.1490  0.00  0.00     0.000 O
ATOM     47  HD  IDS C   3     128.701  46.005  44.2820  0.00  0.00     0.000 HD
BRANCH 40 47
ATOM     47   O  IDS C   3     132.827  45.156  44.2850  0.00  0.00     0.000 O
ATOM     48   S  IDS C   3     133.761  44.539  43.1430  0.00  0.00     0.000 S
ATOM     49   O  IDS C   3     133.761  43.108  43.3600  0.00  0.00     0.000 OA
ATOM     50   O  IDS C   3     135.063  45.131  43.3560  0.00  0.00     0.000 OA
ATOM     51   O  IDS C   3     133.168  44.913  41.8870  0.00  0.00     0.000 OA
ENDBRANCH 40 47
BRANCH 43 52
ATOM     52   C  IDS C   3     130.294  45.596  48.3070  0.00  0.00     0.000 C
ATOM     53   O  IDS C   3     129.826  46.587  48.8190  0.00  0.00     0.000 OA
ATOM     54   O  IDS C   3     130.787  44.733  48.9890  0.00  0.00     0.000 OA
ENDBRANCH 43 52
BRANCH 39 55
ATOM     55  O4  SGN C   4     129.698  43.251  44.7880  0.00  0.00     0.000 O
BRANCH 55 59
ATOM     56  C1  SGN C   4     127.868  39.547  44.1260  0.00  0.00     0.000 C
ATOM     57  C2  SGN C   4     129.222  39.524  44.8560  0.00  0.00     0.000 C
ATOM     58  C3  SGN C   4     129.580  40.914  45.3770  0.00  0.00     0.000 C
ATOM     59  C4  SGN C   4     129.465  41.950  44.2660  0.00  0.00     0.000 C
ATOM     60  C5  SGN C   4     128.063  41.874  43.6650  0.00  0.00     0.000 C
ATOM     61  O5  SGN C   4     127.875  40.551  43.1240  0.00  0.00     0.000 O
ATOM     62   O  SGN C   4     130.896  40.897  45.9140  0.00  0.00     0.000 O
ATOM     64  HD  SGN C   4     130.608  40.087  46.0190  0.00  0.00     0.000 HD
BRANCH 57 66
ATOM     64   N  SGN C   4     130.226  38.566  45.3460  0.00  0.00     0.000 N
ATOM     66  HD  SGN C   4     130.302  38.031  46.0230  0.00  0.00     0.000 HD
ATOM     66   S  SGN C   4     129.820  37.056  45.6630  0.00  0.00     0.000 S
ATOM     67   O  SGN C   4     130.972  36.403  46.1700  0.00  0.00     0.000 OA
ATOM     68   O  SGN C   4     128.637  37.099  46.4510  0.00  0.00     0.000 OA
ATOM     69   O  SGN C   4     129.465  36.466  44.2600  0.00  0.00     0.000 OA
ENDBRANCH 57 66
BRANCH 60 70
ATOM     70   C  SGN C   4     127.821  42.868  42.5500  0.00  0.00     0.000 C
ATOM     71   O  SGN C   4     124.515  44.281  41.4660  0.00  0.00     0.000 OA
ATOM     72   O  SGN C   4     126.195  45.348  42.8400  0.00  0.00     0.000 OA
ATOM     73   O  SGN C   4     126.410  43.010  42.2980  0.00  0.00     0.000 O
ATOM     74   S  SGN C   4     125.922  44.433  41.7550  0.00  0.00     0.000 S
ATOM     75   O  SGN C   4     126.731  44.677  40.5770  0.00  0.00     0.000 OA
ENDBRANCH 60 70
BRANCH 56 76
ATOM     76  O4  IDS C   5     126.587  39.323  44.4700  0.00  0.00     0.000 O
BRANCH 76 80
ATOM     77  C1  IDS C   5     124.213  41.206  47.2040  0.00  0.00     0.000 C
ATOM     78  C2  IDS C   5     125.171  40.174  47.7990  0.00  0.00     0.000 C
ATOM     79  C3  IDS C   5     126.277  39.868  46.8090  0.00  0.00     0.000 C
ATOM     80  C4  IDS C   5     125.686  39.184  45.5790  0.00  0.00     0.000 C
ATOM     81  C5  IDS C   5     124.327  39.817  45.2490  0.00  0.00     0.000 C
ATOM     82  O5  IDS C   5     124.248  41.143  45.7790  0.00  0.00     0.000 O
BRANCH 78 83
ATOM     83   O  IDS C   5     125.786  40.688  49.0450  0.00  0.00     0.000 O
ATOM     84   S  IDS C   5     125.766  39.794  50.3670  0.00  0.00     0.000 S
ATOM     85   O  IDS C   5     124.410  39.340  50.5160  0.00  0.00     0.000 OA
ATOM     86   O  IDS C   5     126.700  38.722  50.1130  0.00  0.00     0.000 OA
ATOM     87   O  IDS C   5     126.196  40.665  51.4330  0.00  0.00     0.000 OA
ENDBRANCH 78 83
BRANCH 81 88
ATOM     88   C  IDS C   5     124.030  39.899  43.7630  0.00  0.00     0.000 C
ATOM     89   O  IDS C   5     123.739  38.904  43.1550  0.00  0.00     0.000 OA
ATOM     90   O  IDS C   5     124.088  40.967  43.1990  0.00  0.00     0.000 OA
ENDBRANCH 81 88
ENDBRANCH 76 80
ENDBRANCH 56 76
ENDBRANCH 55 59
ENDBRANCH 39 55
ENDBRANCH 38 42
ENDBRANCH 18 38
ENDBRANCH 17 21
ENDBRANCH 1 17
TORSDOF 18
ENDMDL
MODEL 34
REMARK VINA RESULT:      -6.1      5.109      8.522
ROOT
ATOM      1  C1  IDS C   1     153.079  42.766  53.6950  0.00  0.00     0.000 C
ATOM      2  C2  IDS C   1     152.810  43.659  54.9090  0.00  0.00     0.000 C
ATOM      3  C3  IDS C   1     154.107  44.245  55.4480  0.00  0.00     0.000 C
ATOM      4  C4  IDS C   1     155.072  43.136  55.8450  0.00  0.00     0.000 C
ATOM      5  C5  IDS C   1     155.003  41.995  54.8340  0.00  0.00     0.000 C
ATOM      6  O5  IDS C   1     154.465  42.466  53.5980  0.00  0.00     0.000 O
ATOM      7   O  IDS C   1     153.829  45.080  56.5800  0.00  0.00     0.000 O
ATOM      9  HD  IDS C   1     153.080  45.491  56.4380  0.00  0.00     0.000 HD
ENDROOT
BRANCH 2 9
ATOM      9   O  IDS C   1     151.927  44.791  54.5460  0.00  0.00     0.000 O
ATOM     10   S  IDS C   1     150.501  44.928  55.2460  0.00  0.00     0.000 S
ATOM     11   O  IDS C   1     149.901  46.123  54.6940  0.00  0.00     0.000 OA
ATOM     12   O  IDS C   1     149.778  43.722  54.8990  0.00  0.00     0.000 OA
ATOM     13   O  IDS C   1     150.766  45.038  56.6640  0.00  0.00     0.000 OA
ENDBRANCH 2 9
BRANCH 5 14
ATOM     14   C  IDS C   1     156.367  41.385  54.5640  0.00  0.00     0.000 C
ATOM     15   O  IDS C   1     156.472  40.187  54.4580  0.00  0.00     0.000 OA
ATOM     16   O  IDS C   1     157.344  42.108  54.4610  0.00  0.00     0.000 OA
ENDBRANCH 5 14
BRANCH 1 17
ATOM     17  O4  SGN C   2     152.322  42.787  52.5950  0.00  0.00     0.000 O
BRANCH 17 21
ATOM     18  C1  SGN C   2     151.719  42.951  48.4550  0.00  0.00     0.000 C
ATOM     19  C2  SGN C   2     153.164  42.754  48.9310  0.00  0.00     0.000 C
ATOM     20  C3  SGN C   2     153.170  42.295  50.3950  0.00  0.00     0.000 C
ATOM     21  C4  SGN C   2     152.361  43.262  51.2520  0.00  0.00     0.000 C
ATOM     22  C5  SGN C   2     150.950  43.370  50.6830  0.00  0.00     0.000 C
ATOM     23  O5  SGN C   2     151.008  43.821  49.3110  0.00  0.00     0.000 O
ATOM     24   O  SGN C   2     154.504  42.195  50.8630  0.00  0.00     0.000 O
ATOM     26  HD  SGN C   2     153.679  41.954  50.7620  0.00  0.00     0.000 HD
BRANCH 19 28
ATOM     26   N  SGN C   2     153.807  42.246  47.7120  0.00  0.00     0.000 N
ATOM     28  HD  SGN C   2     153.222  42.812  47.4160  0.00  0.00     0.000 HD
ATOM     28   O  SGN C   2     155.853  41.383  46.5750  0.00  0.00     0.000 OA
ATOM     29   S  SGN C   2     155.303  42.661  47.2930  0.00  0.00     0.000 S
ATOM     30   O  SGN C   2     155.205  43.704  46.3450  0.00  0.00     0.000 OA
ATOM     31   O  SGN C   2     156.045  42.866  48.4880  0.00  0.00     0.000 OA
ENDBRANCH 19 28
BRANCH 22 32
ATOM     32   C  SGN C   2     150.079  44.353  51.4280  0.00  0.00     0.000 C
ATOM     33   S  SGN C   2     148.753  46.512  50.9570  0.00  0.00     0.000 S
ATOM     34   O  SGN C   2     149.944  47.323  50.9470  0.00  0.00     0.000 OA
ATOM     35   O  SGN C   2     147.778  46.899  49.9580  0.00  0.00     0.000 OA
ATOM     36   O  SGN C   2     148.184  46.316  52.2690  0.00  0.00     0.000 OA
ATOM     37   O  SGN C   2     149.256  45.068  50.4980  0.00  0.00     0.000 O
ENDBRANCH 22 32
BRANCH 18 38
ATOM     38  O4  IDS C   3     150.807  42.054  48.0750  0.00  0.00     0.000 O
BRANCH 38 42
ATOM     39  C1  IDS C   3     149.271  39.294  46.6070  0.00  0.00     0.000 C
ATOM     40  C2  IDS C   3     150.307  40.127  45.8360  0.00  0.00     0.000 C
ATOM     41  C3  IDS C   3     149.952  41.614  45.8630  0.00  0.00     0.000 C
ATOM     42  C4  IDS C   3     149.619  42.075  47.2750  0.00  0.00     0.000 C
ATOM     43  C5  IDS C   3     148.560  41.150  47.8870  0.00  0.00     0.000 C
ATOM     44  O5  IDS C   3     149.064  39.815  47.9100  0.00  0.00     0.000 O
ATOM     45   O  IDS C   3     148.836  41.850  45.0030  0.00  0.00     0.000 O
ATOM     47  HD  IDS C   3     148.034  41.529  44.9390  0.00  0.00     0.000 HD
BRANCH 40 47
ATOM     47   O  IDS C   3     151.651  39.979  46.4430  0.00  0.00     0.000 O
ATOM     48   S  IDS C   3     152.486  38.636  46.2090  0.00  0.00     0.000 S
ATOM     49   O  IDS C   3     151.900  37.645  47.0870  0.00  0.00     0.000 OA
ATOM     50   O  IDS C   3     153.846  38.965  46.5770  0.00  0.00     0.000 OA
ATOM     51   O  IDS C   3     152.340  38.304  44.8170  0.00  0.00     0.000 OA
ENDBRANCH 40 47
BRANCH 43 52
ATOM     52   C  IDS C   3     148.158  41.564  49.2850  0.00  0.00     0.000 C
ATOM     53   O  IDS C   3     147.438  42.523  49.4460  0.00  0.00     0.000 OA
ATOM     54   O  IDS C   3     148.557  40.936  50.2330  0.00  0.00     0.000 OA
ENDBRANCH 43 52
BRANCH 39 55
ATOM     55  O4  SGN C   4     148.176  38.776  46.0500  0.00  0.00     0.000 O
BRANCH 55 59
ATOM     56  C1  SGN C   4     146.147  35.679  44.1020  0.00  0.00     0.000 C
ATOM     57  C2  SGN C   4     147.092  35.270  45.2440  0.00  0.00     0.000 C
ATOM     58  C3  SGN C   4     147.450  36.475  46.1090  0.00  0.00     0.000 C
ATOM     59  C4  SGN C   4     147.947  37.628  45.2440  0.00  0.00     0.000 C
ATOM     60  C5  SGN C   4     146.892  37.938  44.1850  0.00  0.00     0.000 C
ATOM     61  O5  SGN C   4     146.706  36.760  43.3740  0.00  0.00     0.000 O
ATOM     62   O  SGN C   4     148.436  36.102  47.0620  0.00  0.00     0.000 O
ATOM     64  HD  SGN C   4     147.999  35.371  46.9050  0.00  0.00     0.000 HD
BRANCH 57 66
ATOM     64   N  SGN C   4     146.335  34.142  45.8110  0.00  0.00     0.000 N
ATOM     66  HD  SGN C   4     146.045  33.377  45.5260  0.00  0.00     0.000 HD
ATOM     66   S  SGN C   4     146.911  32.656  45.7310  0.00  0.00     0.000 S
ATOM     67   O  SGN C   4     145.940  31.793  46.2990  0.00  0.00     0.000 OA
ATOM     68   O  SGN C   4     147.334  32.445  44.3900  0.00  0.00     0.000 OA
ATOM     69   O  SGN C   4     148.171  32.697  46.6530  0.00  0.00     0.000 OA
ENDBRANCH 57 66
BRANCH 60 70
ATOM     70   C  SGN C   4     147.267  39.078  43.2640  0.00  0.00     0.000 C
ATOM     71   O  SGN C   4     144.924  41.484  41.5810  0.00  0.00     0.000 OA
ATOM     72   O  SGN C   4     146.263  41.869  43.5580  0.00  0.00     0.000 OA
ATOM     73   O  SGN C   4     146.091  39.642  42.6530  0.00  0.00     0.000 O
ATOM     74   S  SGN C   4     146.154  41.197  42.2830  0.00  0.00     0.000 S
ATOM     75   O  SGN C   4     147.337  41.333  41.4560  0.00  0.00     0.000 OA
ENDBRANCH 60 70
BRANCH 56 76
ATOM     76  O4  IDS C   5     144.814  35.714  43.9220  0.00  0.00     0.000 O
BRANCH 76 80
ATOM     77  C1  IDS C   5     142.662  32.529  42.5470  0.00  0.00     0.000 C
ATOM     78  C2  IDS C   5     143.170  33.471  41.4550  0.00  0.00     0.000 C
ATOM     79  C3  IDS C   5     144.290  34.335  42.0010  0.00  0.00     0.000 C
ATOM     80  C4  IDS C   5     143.740  35.259  43.0840  0.00  0.00     0.000 C
ATOM     81  C5  IDS C   5     142.695  34.502  43.9160  0.00  0.00     0.000 C
ATOM     82  O5  IDS C   5     142.915  33.090  43.8350  0.00  0.00     0.000 O
BRANCH 78 83
ATOM     83   O  IDS C   5     143.691  32.702  40.3010  0.00  0.00     0.000 O
ATOM     84   S  IDS C   5     143.078  32.940  38.8480  0.00  0.00     0.000 S
ATOM     85   O  IDS C   5     141.649  32.881  39.0070  0.00  0.00     0.000 OA
ATOM     86   O  IDS C   5     143.551  34.244  38.4460  0.00  0.00     0.000 OA
ATOM     87   O  IDS C   5     143.604  31.880  38.0230  0.00  0.00     0.000 OA
ENDBRANCH 78 83
BRANCH 81 88
ATOM     88   C  IDS C   5     142.686  34.880  45.3860  0.00  0.00     0.000 C
ATOM     89   O  IDS C   5     142.110  35.871  45.7460  0.00  0.00     0.000 OA
ATOM     90   O  IDS C   5     143.260  34.179  46.1880  0.00  0.00     0.000 OA
ENDBRANCH 81 88
ENDBRANCH 76 80
ENDBRANCH 56 76
ENDBRANCH 55 59
ENDBRANCH 39 55
ENDBRANCH 38 42
ENDBRANCH 18 38
ENDBRANCH 17 21
ENDBRANCH 1 17
TORSDOF 18
ENDMDL
MODEL 35
REMARK VINA RESULT:      -6.0      8.386     13.708
ROOT
ATOM      1  C1  IDS C   1     153.810  41.101  50.0550  0.00  0.00     0.000 C
ATOM      2  C2  IDS C   1     153.024  40.142  49.1570  0.00  0.00     0.000 C
ATOM      3  C3  IDS C   1     153.600  38.736  49.2330  0.00  0.00     0.000 C
ATOM      4  C4  IDS C   1     155.064  38.732  48.8120  0.00  0.00     0.000 C
ATOM      5  C5  IDS C   1     155.766  39.975  49.3500  0.00  0.00     0.000 C
ATOM      6  O5  IDS C   1     155.039  40.509  50.4560  0.00  0.00     0.000 O
ATOM      7   O  IDS C   1     152.846  37.856  48.3880  0.00  0.00     0.000 O
ATOM      9  HD  IDS C   1     152.013  38.090  48.4250  0.00  0.00     0.000 HD
ENDROOT
BRANCH 2 9
ATOM      9   O  IDS C   1     151.607  40.066  49.5800  0.00  0.00     0.000 O
ATOM     10   S  IDS C   1     150.457  40.412  48.5300  0.00  0.00     0.000 S
ATOM     11   O  IDS C   1     149.208  40.233  49.2370  0.00  0.00     0.000 OA
ATOM     12   O  IDS C   1     150.690  41.786  48.1350  0.00  0.00     0.000 OA
ATOM     13   O  IDS C   1     150.623  39.476  47.4400  0.00  0.00     0.000 OA
ENDBRANCH 2 9
BRANCH 5 14
ATOM     14   C  IDS C   1     157.186  39.680  49.8030  0.00  0.00     0.000 C
ATOM     15   O  IDS C   1     157.651  40.293  50.7320  0.00  0.00     0.000 OA
ATOM     16   O  IDS C   1     157.842  38.830  49.2250  0.00  0.00     0.000 OA
ENDBRANCH 5 14
BRANCH 1 17
ATOM     17  O4  SGN C   2     153.223  42.013  50.8350  0.00  0.00     0.000 O
BRANCH 17 21
ATOM     18  C1  SGN C   2     152.369  43.838  54.5040  0.00  0.00     0.000 C
ATOM     19  C2  SGN C   2     153.499  42.801  54.5000  0.00  0.00     0.000 C
ATOM     20  C3  SGN C   2     153.968  42.550  53.0610  0.00  0.00     0.000 C
ATOM     21  C4  SGN C   2     152.781  42.178  52.1800  0.00  0.00     0.000 C
ATOM     22  C5  SGN C   2     151.732  43.283  52.2640  0.00  0.00     0.000 C
ATOM     23  O5  SGN C   2     151.319  43.461  53.6380  0.00  0.00     0.000 O
ATOM     24   O  SGN C   2     154.951  41.529  53.0460  0.00  0.00     0.000 O
ATOM     26  HD  SGN C   2     154.586  42.283  52.8250  0.00  0.00     0.000 HD
BRANCH 19 28
ATOM     26   N  SGN C   2     154.177  43.097  55.7690  0.00  0.00     0.000 N
ATOM     28  HD  SGN C   2     153.336  43.179  55.9610  0.00  0.00     0.000 HD
ATOM     28   O  SGN C   2     156.094  42.692  57.3130  0.00  0.00     0.000 OA
ATOM     29   S  SGN C   2     154.880  41.953  56.6540  0.00  0.00     0.000 S
ATOM     30   O  SGN C   2     153.972  41.582  57.6700  0.00  0.00     0.000 OA
ATOM     31   O  SGN C   2     155.380  40.965  55.7630  0.00  0.00     0.000 OA
ENDBRANCH 19 28
BRANCH 22 32
ATOM     32   C  SGN C   2     150.485  42.986  51.4690  0.00  0.00     0.000 C
ATOM     33   S  SGN C   2     147.996  42.464  51.8900  0.00  0.00     0.000 S
ATOM     34   O  SGN C   2     148.276  41.103  52.2730  0.00  0.00     0.000 OA
ATOM     35   O  SGN C   2     146.955  43.088  52.6790  0.00  0.00     0.000 OA
ATOM     36   O  SGN C   2     147.831  42.654  50.4680  0.00  0.00     0.000 OA
ATOM     37   O  SGN C   2     149.328  43.260  52.2670  0.00  0.00     0.000 O
ENDBRANCH 22 32
BRANCH 18 38
ATOM     38  O4  IDS C   3     152.419  45.168  54.3940  0.00  0.00     0.000 O
BRANCH 38 42
ATOM     39  C1  IDS C   3     152.106  48.611  54.8120  0.00  0.00     0.000 C
ATOM     40  C2  IDS C   3     151.861  47.954  53.4450  0.00  0.00     0.000 C
ATOM     41  C3  IDS C   3     153.036  47.065  53.0400  0.00  0.00     0.000 C
ATOM     42  C4  IDS C   3     153.446  46.141  54.1780  0.00  0.00     0.000 C
ATOM     43  C5  IDS C   3     153.669  46.959  55.4560  0.00  0.00     0.000 C
ATOM     44  O5  IDS C   3     152.463  47.645  55.7870  0.00  0.00     0.000 O
ATOM     45   O  IDS C   3     154.143  47.886  52.6630  0.00  0.00     0.000 O
ATOM     47  HD  IDS C   3     154.590  48.523  53.0430  0.00  0.00     0.000 HD
BRANCH 40 47
ATOM     47   O  IDS C   3     150.651  47.099  53.4880  0.00  0.00     0.000 O
ATOM     48   S  IDS C   3     149.252  47.672  52.9640  0.00  0.00     0.000 S
ATOM     49   O  IDS C   3     148.763  48.543  54.0110  0.00  0.00     0.000 OA
ATOM     50   O  IDS C   3     148.412  46.510  52.7740  0.00  0.00     0.000 OA
ATOM     51   O  IDS C   3     149.533  48.374  51.7400  0.00  0.00     0.000 OA
ENDBRANCH 40 47
BRANCH 43 52
ATOM     52   C  IDS C   3     154.107  46.108  56.6270  0.00  0.00     0.000 C
ATOM     53   O  IDS C   3     155.283  45.889  56.8070  0.00  0.00     0.000 OA
ATOM     54   O  IDS C   3     153.281  45.653  57.3770  0.00  0.00     0.000 OA
ENDBRANCH 43 52
BRANCH 39 55
ATOM     55  O4  SGN C   4     152.712  49.788  54.9680  0.00  0.00     0.000 O
BRANCH 55 59
ATOM     56  C1  SGN C   4     151.871  52.137  58.3270  0.00  0.00     0.000 C
ATOM     57  C2  SGN C   4     150.740  51.982  57.2960  0.00  0.00     0.000 C
ATOM     58  C3  SGN C   4     151.023  50.815  56.3530  0.00  0.00     0.000 C
ATOM     59  C4  SGN C   4     152.423  50.932  55.7600  0.00  0.00     0.000 C
ATOM     60  C5  SGN C   4     153.432  51.043  56.9010  0.00  0.00     0.000 C
ATOM     61  O5  SGN C   4     153.122  52.226  57.6640  0.00  0.00     0.000 O
ATOM     62   O  SGN C   4     150.043  50.787  55.3240  0.00  0.00     0.000 O
ATOM     64  HD  SGN C   4     149.639  51.149  55.9990  0.00  0.00     0.000 HD
BRANCH 57 66
ATOM     64   N  SGN C   4     149.709  52.099  58.3400  0.00  0.00     0.000 N
ATOM     66  HD  SGN C   4     149.367  52.739  58.8130  0.00  0.00     0.000 HD
ATOM     66   S  SGN C   4     148.499  53.125  58.1740  0.00  0.00     0.000 S
ATOM     67   O  SGN C   4     147.716  53.054  59.3540  0.00  0.00     0.000 OA
ATOM     68   O  SGN C   4     149.061  54.371  57.7810  0.00  0.00     0.000 OA
ATOM     69   O  SGN C   4     147.683  52.544  56.9750  0.00  0.00     0.000 OA
ENDBRANCH 57 66
BRANCH 60 70
ATOM     70   C  SGN C   4     154.868  51.156  56.4370  0.00  0.00     0.000 C
ATOM     71   O  SGN C   4     157.346  48.356  56.0720  0.00  0.00     0.000 OA
ATOM     72   O  SGN C   4     156.083  49.446  54.3210  0.00  0.00     0.000 OA
ATOM     73   O  SGN C   4     155.559  49.906  56.6270  0.00  0.00     0.000 O
ATOM     74   S  SGN C   4     156.741  49.581  55.6000  0.00  0.00     0.000 S
ATOM     75   O  SGN C   4     157.624  50.728  55.6770  0.00  0.00     0.000 OA
ENDBRANCH 60 70
BRANCH 56 76
ATOM     76  O4  IDS C   5     152.103  51.690  59.5750  0.00  0.00     0.000 O
BRANCH 76 80
ATOM     77  C1  IDS C   5     153.572  47.912  60.0540  0.00  0.00     0.000 C
ATOM     78  C2  IDS C   5     152.063  48.037  60.2600  0.00  0.00     0.000 C
ATOM     79  C3  IDS C   5     151.565  49.330  59.6450  0.00  0.00     0.000 C
ATOM     80  C4  IDS C   5     152.158  50.516  60.4000  0.00  0.00     0.000 C
ATOM     81  C5  IDS C   5     153.610  50.199  60.7860  0.00  0.00     0.000 C
ATOM     82  O5  IDS C   5     154.157  49.207  59.9120  0.00  0.00     0.000 O
BRANCH 78 83
ATOM     83   O  IDS C   5     151.351  46.907  59.6170  0.00  0.00     0.000 O
ATOM     84   S  IDS C   5     150.067  46.275  60.3210  0.00  0.00     0.000 S
ATOM     85   O  IDS C   5     150.441  46.041  61.6900  0.00  0.00     0.000 OA
ATOM     86   O  IDS C   5     149.029  47.270  60.1780  0.00  0.00     0.000 OA
ATOM     87   O  IDS C   5     149.779  45.063  59.5930  0.00  0.00     0.000 OA
ENDBRANCH 78 83
BRANCH 81 88
ATOM     88   C  IDS C   5     154.534  51.402  60.7480  0.00  0.00     0.000 C
ATOM     89   O  IDS C   5     155.392  51.471  59.9100  0.00  0.00     0.000 OA
ATOM     90   O  IDS C   5     154.400  52.286  61.5630  0.00  0.00     0.000 OA
ENDBRANCH 81 88
ENDBRANCH 76 80
ENDBRANCH 56 76
ENDBRANCH 55 59
ENDBRANCH 39 55
ENDBRANCH 38 42
ENDBRANCH 18 38
ENDBRANCH 17 21
ENDBRANCH 1 17
TORSDOF 18
ENDMDL
MODEL 36
REMARK VINA RESULT:      -6.0     10.785     19.783
ROOT
ATOM      1  C1  IDS C   1     164.382  38.294  52.3960  0.00  0.00     0.000 C
ATOM      2  C2  IDS C   1     162.969  38.847  52.1930  0.00  0.00     0.000 C
ATOM      3  C3  IDS C   1     162.985  40.368  52.1490  0.00  0.00     0.000 C
ATOM      4  C4  IDS C   1     163.568  40.937  53.4350  0.00  0.00     0.000 C
ATOM      5  C5  IDS C   1     164.742  40.082  53.9010  0.00  0.00     0.000 C
ATOM      6  O5  IDS C   1     165.266  39.329  52.8070  0.00  0.00     0.000 O
ATOM      7   O  IDS C   1     161.652  40.862  51.9540  0.00  0.00     0.000 O
ATOM      9  HD  IDS C   1     161.236  40.320  51.4220  0.00  0.00     0.000 HD
ENDROOT
BRANCH 2 9
ATOM      9   O  IDS C   1     162.394  38.369  50.9160  0.00  0.00     0.000 O
ATOM     10   S  IDS C   1     161.006  37.583  50.9260  0.00  0.00     0.000 S
ATOM     11   O  IDS C   1     160.717  37.271  49.5440  0.00  0.00     0.000 OA
ATOM     12   O  IDS C   1     161.233  36.404  51.7350  0.00  0.00     0.000 OA
ATOM     13   O  IDS C   1     160.043  38.491  51.5100  0.00  0.00     0.000 OA
ENDBRANCH 2 9
BRANCH 5 14
ATOM     14   C  IDS C   1     165.864  40.921  54.4890  0.00  0.00     0.000 C
ATOM     15   O  IDS C   1     165.751  41.364  55.6060  0.00  0.00     0.000 OA
ATOM     16   O  IDS C   1     166.865  41.141  53.8290  0.00  0.00     0.000 OA
ENDBRANCH 5 14
BRANCH 1 17
ATOM     17  O4  SGN C   2     164.855  37.242  51.7220  0.00  0.00     0.000 O
BRANCH 17 21
ATOM     18  C1  SGN C   2     167.026  35.430  48.6350  0.00  0.00     0.000 C
ATOM     19  C2  SGN C   2     167.191  36.947  48.7920  0.00  0.00     0.000 C
ATOM     20  C3  SGN C   2     166.697  37.382  50.1770  0.00  0.00     0.000 C
ATOM     21  C4  SGN C   2     165.274  36.886  50.4070  0.00  0.00     0.000 C
ATOM     22  C5  SGN C   2     165.240  35.371  50.2290  0.00  0.00     0.000 C
ATOM     23  O5  SGN C   2     165.700  35.024  48.9020  0.00  0.00     0.000 O
ATOM     24   O  SGN C   2     166.767  38.794  50.2920  0.00  0.00     0.000 O
ATOM     26  HD  SGN C   2     166.851  37.971  50.5500  0.00  0.00     0.000 HD
BRANCH 19 28
ATOM     26   N  SGN C   2     167.998  38.018  48.1930  0.00  0.00     0.000 N
ATOM     28  HD  SGN C   2     167.463  38.439  48.7290  0.00  0.00     0.000 HD
ATOM     28   O  SGN C   2     170.181  38.781  47.2580  0.00  0.00     0.000 OA
ATOM     29   S  SGN C   2     169.540  38.254  48.5860  0.00  0.00     0.000 S
ATOM     30   O  SGN C   2     169.581  39.287  49.5480  0.00  0.00     0.000 OA
ATOM     31   O  SGN C   2     170.106  36.986  48.8910  0.00  0.00     0.000 OA
ENDBRANCH 19 28
BRANCH 22 32
ATOM     32   C  SGN C   2     163.859  34.781  50.3790  0.00  0.00     0.000 C
ATOM     33   S  SGN C   2     162.710  32.478  50.2480  0.00  0.00     0.000 S
ATOM     34   O  SGN C   2     162.736  32.471  48.8070  0.00  0.00     0.000 OA
ATOM     35   O  SGN C   2     162.975  31.184  50.8400  0.00  0.00     0.000 OA
ATOM     36   O  SGN C   2     161.560  33.145  50.8130  0.00  0.00     0.000 OA
ATOM     37   O  SGN C   2     163.961  33.380  50.6590  0.00  0.00     0.000 O
ENDBRANCH 22 32
BRANCH 18 38
ATOM     38  O4  IDS C   3     167.773  34.429  49.1070  0.00  0.00     0.000 O
BRANCH 38 42
ATOM     39  C1  IDS C   3     170.232  32.038  49.7110  0.00  0.00     0.000 C
ATOM     40  C2  IDS C   3     169.632  32.220  48.3080  0.00  0.00     0.000 C
ATOM     41  C3  IDS C   3     168.106  32.165  48.3470  0.00  0.00     0.000 C
ATOM     42  C4  IDS C   3     167.550  33.057  49.4490  0.00  0.00     0.000 C
ATOM     43  C5  IDS C   3     168.240  32.730  50.7790  0.00  0.00     0.000 C
ATOM     44  O5  IDS C   3     169.645  32.936  50.6380  0.00  0.00     0.000 O
ATOM     45   O  IDS C   3     167.687  30.815  48.5620  0.00  0.00     0.000 O
ATOM     47  HD  IDS C   3     167.852  30.211  49.1600  0.00  0.00     0.000 HD
BRANCH 40 47
ATOM     47   O  IDS C   3     170.015  33.537  47.7450  0.00  0.00     0.000 O
ATOM     48   S  IDS C   3     171.472  33.742  47.1190  0.00  0.00     0.000 S
ATOM     49   O  IDS C   3     172.372  33.879  48.2440  0.00  0.00     0.000 OA
ATOM     50   O  IDS C   3     171.381  34.953  46.3320  0.00  0.00     0.000 OA
ATOM     51   O  IDS C   3     171.743  32.572  46.3280  0.00  0.00     0.000 OA
ENDBRANCH 40 47
BRANCH 43 52
ATOM     52   C  IDS C   3     167.718  33.561  51.9300  0.00  0.00     0.000 C
ATOM     53   O  IDS C   3     166.759  33.181  52.5610  0.00  0.00     0.000 OA
ATOM     54   O  IDS C   3     168.261  34.599  52.2120  0.00  0.00     0.000 OA
ENDBRANCH 43 52
BRANCH 39 55
ATOM     55  O4  SGN C   4     170.549  30.852  50.2310  0.00  0.00     0.000 O
BRANCH 55 59
ATOM     56  C1  SGN C   4     173.844  30.981  52.8060  0.00  0.00     0.000 C
ATOM     57  C2  SGN C   4     174.099  30.437  51.3900  0.00  0.00     0.000 C
ATOM     58  C3  SGN C   4     172.952  30.806  50.4540  0.00  0.00     0.000 C
ATOM     59  C4  SGN C   4     171.612  30.410  51.0630  0.00  0.00     0.000 C
ATOM     60  C5  SGN C   4     171.493  31.049  52.4450  0.00  0.00     0.000 C
ATOM     61  O5  SGN C   4     172.570  30.557  53.2660  0.00  0.00     0.000 O
ATOM     62   O  SGN C   4     173.140  30.169  49.1970  0.00  0.00     0.000 O
ATOM     64  HD  SGN C   4     173.941  30.272  49.5100  0.00  0.00     0.000 HD
BRANCH 57 66
ATOM     64   N  SGN C   4     175.474  30.955  51.3030  0.00  0.00     0.000 N
ATOM     66  HD  SGN C   4     176.234  30.778  51.6790  0.00  0.00     0.000 HD
ATOM     66   S  SGN C   4     176.695  29.970  51.0110  0.00  0.00     0.000 S
ATOM     67   O  SGN C   4     177.883  30.743  51.0480  0.00  0.00     0.000 OA
ATOM     68   O  SGN C   4     176.555  28.861  51.8910  0.00  0.00     0.000 OA
ATOM     69   O  SGN C   4     176.438  29.483  49.5490  0.00  0.00     0.000 OA
ENDBRANCH 57 66
BRANCH 60 70
ATOM     70   C  SGN C   4     170.192  30.736  53.1520  0.00  0.00     0.000 C
ATOM     71   O  SGN C   4     169.563  30.814  56.8540  0.00  0.00     0.000 OA
ATOM     72   O  SGN C   4     168.946  32.485  55.2180  0.00  0.00     0.000 OA
ATOM     73   O  SGN C   4     170.396  30.671  54.5770  0.00  0.00     0.000 O
ATOM     74   S  SGN C   4     169.153  31.081  55.4950  0.00  0.00     0.000 S
ATOM     75   O  SGN C   4     168.064  30.238  55.0440  0.00  0.00     0.000 OA
ENDBRANCH 60 70
BRANCH 56 76
ATOM     76  O4  IDS C   5     174.168  32.099  53.4800  0.00  0.00     0.000 O
BRANCH 76 80
ATOM     77  C1  IDS C   5     174.533  35.449  55.7840  0.00  0.00     0.000 C
ATOM     78  C2  IDS C   5     173.108  35.154  55.3140  0.00  0.00     0.000 C
ATOM     79  C3  IDS C   5     173.004  33.710  54.8640  0.00  0.00     0.000 C
ATOM     80  C4  IDS C   5     173.872  33.496  53.6270  0.00  0.00     0.000 C
ATOM     81  C5  IDS C   5     175.168  34.307  53.7700  0.00  0.00     0.000 C
ATOM     82  O5  IDS C   5     175.453  34.562  55.1480  0.00  0.00     0.000 O
BRANCH 78 83
ATOM     83   O  IDS C   5     172.138  35.375  56.4110  0.00  0.00     0.000 O
ATOM     84   S  IDS C   5     170.895  36.350  56.1870  0.00  0.00     0.000 S
ATOM     85   O  IDS C   5     171.436  37.555  55.6190  0.00  0.00     0.000 OA
ATOM     86   O  IDS C   5     170.017  35.642  55.2860  0.00  0.00     0.000 OA
ATOM     87   O  IDS C   5     170.312  36.546  57.4920  0.00  0.00     0.000 OA
ENDBRANCH 78 83
BRANCH 81 88
ATOM     88   C  IDS C   5     176.387  33.631  53.1680  0.00  0.00     0.000 C
ATOM     89   O  IDS C   5     177.163  33.053  53.8800  0.00  0.00     0.000 OA
ATOM     90   O  IDS C   5     176.568  33.678  51.9730  0.00  0.00     0.000 OA
ENDBRANCH 81 88
ENDBRANCH 76 80
ENDBRANCH 56 76
ENDBRANCH 55 59
ENDBRANCH 39 55
ENDBRANCH 38 42
ENDBRANCH 18 38
ENDBRANCH 17 21
ENDBRANCH 1 17
TORSDOF 18
ENDMDL
MODEL 37
REMARK VINA RESULT:      -5.9      7.644     14.915
ROOT
ATOM      1  C1  IDS C   1     141.289  47.161  50.6470  0.00  0.00     0.000 C
ATOM      2  C2  IDS C   1     139.926  47.744  51.0310  0.00  0.00     0.000 C
ATOM      3  C3  IDS C   1     140.074  48.780  52.1350  0.00  0.00     0.000 C
ATOM      4  C4  IDS C   1     140.721  48.164  53.3670  0.00  0.00     0.000 C
ATOM      5  C5  IDS C   1     141.823  47.195  52.9510  0.00  0.00     0.000 C
ATOM      6  O5  IDS C   1     142.265  47.495  51.6260  0.00  0.00     0.000 O
ATOM      7   O  IDS C   1     138.786  49.315  52.4740  0.00  0.00     0.000 O
ATOM      9  HD  IDS C   1     138.317  49.375  51.7480  0.00  0.00     0.000 HD
ENDROOT
BRANCH 2 9
ATOM      9   O  IDS C   1     139.295  48.414  49.8710  0.00  0.00     0.000 O
ATOM     10   S  IDS C   1     137.840  47.961  49.4020  0.00  0.00     0.000 S
ATOM     11   O  IDS C   1     137.507  48.803  48.2740  0.00  0.00     0.000 OA
ATOM     12   O  IDS C   1     137.964  46.562  49.0440  0.00  0.00     0.000 OA
ATOM     13   O  IDS C   1     136.973  48.177  50.5390  0.00  0.00     0.000 OA
ENDBRANCH 2 9
BRANCH 5 14
ATOM     14   C  IDS C   1     143.021  47.255  53.8830  0.00  0.00     0.000 C
ATOM     15   O  IDS C   1     144.045  46.697  53.5700  0.00  0.00     0.000 OA
ATOM     16   O  IDS C   1     142.938  47.862  54.9370  0.00  0.00     0.000 OA
ENDBRANCH 5 14
BRANCH 1 17
ATOM     17  O4  SGN C   2     141.660  46.950  49.3810  0.00  0.00     0.000 O
BRANCH 17 21
ATOM     18  C1  SGN C   2     144.051  47.652  46.0170  0.00  0.00     0.000 C
ATOM     19  C2  SGN C   2     144.482  48.336  47.3200  0.00  0.00     0.000 C
ATOM     20  C3  SGN C   2     143.790  47.664  48.5130  0.00  0.00     0.000 C
ATOM     21  C4  SGN C   2     142.281  47.635  48.2970  0.00  0.00     0.000 C
ATOM     22  C5  SGN C   2     141.981  46.929  46.9780  0.00  0.00     0.000 C
ATOM     23  O5  SGN C   2     142.645  47.616  45.8930  0.00  0.00     0.000 O
ATOM     24   O  SGN C   2     144.118  48.350  49.7100  0.00  0.00     0.000 O
ATOM     26  HD  SGN C   2     143.974  47.663  49.2030  0.00  0.00     0.000 HD
BRANCH 19 28
ATOM     26   N  SGN C   2     145.889  48.649  47.0350  0.00  0.00     0.000 N
ATOM     28  HD  SGN C   2     145.504  48.707  46.2620  0.00  0.00     0.000 HD
ATOM     28   O  SGN C   2     148.049  49.650  47.7800  0.00  0.00     0.000 OA
ATOM     29   S  SGN C   2     146.565  50.042  47.4700  0.00  0.00     0.000 S
ATOM     30   O  SGN C   2     146.548  50.893  46.3430  0.00  0.00     0.000 OA
ATOM     31   O  SGN C   2     145.945  50.463  48.6780  0.00  0.00     0.000 OA
ENDBRANCH 19 28
BRANCH 22 32
ATOM     32   C  SGN C   2     140.511  46.896  46.6380  0.00  0.00     0.000 C
ATOM     33   S  SGN C   2     138.829  45.345  45.4520  0.00  0.00     0.000 S
ATOM     34   O  SGN C   2     139.293  45.730  44.1430  0.00  0.00     0.000 OA
ATOM     35   O  SGN C   2     138.504  43.938  45.5620  0.00  0.00     0.000 OA
ATOM     36   O  SGN C   2     137.813  46.214  45.9970  0.00  0.00     0.000 OA
ATOM     37   O  SGN C   2     140.102  45.545  46.3940  0.00  0.00     0.000 O
ENDBRANCH 22 32
BRANCH 18 38
ATOM     38  O4  IDS C   3     144.454  46.500  45.4750  0.00  0.00     0.000 O
BRANCH 38 42
ATOM     39  C1  IDS C   3     146.174  43.539  44.8410  0.00  0.00     0.000 C
ATOM     40  C2  IDS C   3     146.924  44.823  45.2300  0.00  0.00     0.000 C
ATOM     41  C3  IDS C   3     146.518  45.993  44.3350  0.00  0.00     0.000 C
ATOM     42  C4  IDS C   3     145.003  46.096  44.2160  0.00  0.00     0.000 C
ATOM     43  C5  IDS C   3     144.422  44.738  43.8030  0.00  0.00     0.000 C
ATOM     44  O5  IDS C   3     144.775  43.762  44.7820  0.00  0.00     0.000 O
ATOM     45   O  IDS C   3     147.093  45.820  43.0390  0.00  0.00     0.000 O
ATOM     47  HD  IDS C   3     147.078  45.192  42.4420  0.00  0.00     0.000 HD
BRANCH 40 47
ATOM     47   O  IDS C   3     146.614  45.204  46.6290  0.00  0.00     0.000 O
ATOM     48   S  IDS C   3     147.801  45.568  47.6370  0.00  0.00     0.000 S
ATOM     49   O  IDS C   3     148.387  44.306  48.0330  0.00  0.00     0.000 OA
ATOM     50   O  IDS C   3     147.166  46.254  48.7400  0.00  0.00     0.000 OA
ATOM     51   O  IDS C   3     148.715  46.402  46.9030  0.00  0.00     0.000 OA
ENDBRANCH 40 47
BRANCH 43 52
ATOM     52   C  IDS C   3     142.919  44.770  43.6380  0.00  0.00     0.000 C
ATOM     53   O  IDS C   3     142.218  44.098  44.3590  0.00  0.00     0.000 OA
ATOM     54   O  IDS C   3     142.427  45.468  42.7870  0.00  0.00     0.000 OA
ENDBRANCH 43 52
BRANCH 39 55
ATOM     55  O4  SGN C   4     146.623  42.666  43.9400  0.00  0.00     0.000 O
BRANCH 55 59
ATOM     56  C1  SGN C   4     147.474  38.630  44.6410  0.00  0.00     0.000 C
ATOM     57  C2  SGN C   4     148.103  39.644  45.6120  0.00  0.00     0.000 C
ATOM     58  C3  SGN C   4     147.415  41.001  45.4980  0.00  0.00     0.000 C
ATOM     59  C4  SGN C   4     147.357  41.454  44.0430  0.00  0.00     0.000 C
ATOM     60  C5  SGN C   4     146.681  40.363  43.2160  0.00  0.00     0.000 C
ATOM     61  O5  SGN C   4     147.467  39.160  43.3250  0.00  0.00     0.000 O
ATOM     62   O  SGN C   4     148.107  41.954  46.2930  0.00  0.00     0.000 O
ATOM     64  HD  SGN C   4     148.253  41.197  46.6860  0.00  0.00     0.000 HD
BRANCH 57 66
ATOM     64   N  SGN C   4     149.047  38.602  46.0470  0.00  0.00     0.000 N
ATOM     66  HD  SGN C   4     149.762  38.570  46.5350  0.00  0.00     0.000 HD
ATOM     66   S  SGN C   4     149.368  38.393  47.5960  0.00  0.00     0.000 S
ATOM     67   O  SGN C   4     150.347  37.372  47.6930  0.00  0.00     0.000 OA
ATOM     68   O  SGN C   4     149.641  39.678  48.1420  0.00  0.00     0.000 OA
ATOM     69   O  SGN C   4     148.018  37.875  48.1870  0.00  0.00     0.000 OA
ENDBRANCH 57 66
BRANCH 60 70
ATOM     70   C  SGN C   4     146.555  40.701  41.7460  0.00  0.00     0.000 C
ATOM     71   O  SGN C   4     143.466  41.868  39.9560  0.00  0.00     0.000 OA
ATOM     72   O  SGN C   4     145.333  43.211  40.7030  0.00  0.00     0.000 OA
ATOM     73   O  SGN C   4     145.174  40.908  41.3920  0.00  0.00     0.000 O
ATOM     74   S  SGN C   4     144.889  41.932  40.1970  0.00  0.00     0.000 S
ATOM     75   O  SGN C   4     145.685  41.440  39.0900  0.00  0.00     0.000 OA
ENDBRANCH 60 70
BRANCH 56 76
ATOM     76  O4  IDS C   5     146.498  37.706  44.7130  0.00  0.00     0.000 O
BRANCH 76 80
ATOM     77  C1  IDS C   5     143.757  34.717  45.1700  0.00  0.00     0.000 C
ATOM     78  C2  IDS C   5     143.344  36.056  45.7810  0.00  0.00     0.000 C
ATOM     79  C3  IDS C   5     144.186  37.171  45.1940  0.00  0.00     0.000 C
ATOM     80  C4  IDS C   5     145.641  36.987  45.6130  0.00  0.00     0.000 C
ATOM     81  C5  IDS C   5     145.988  35.491  45.6030  0.00  0.00     0.000 C
ATOM     82  O5  IDS C   5     145.112  34.778  44.7250  0.00  0.00     0.000 O
BRANCH 78 83
ATOM     83   O  IDS C   5     141.919  36.345  45.4960  0.00  0.00     0.000 O
ATOM     84   S  IDS C   5     140.859  36.365  46.6890  0.00  0.00     0.000 S
ATOM     85   O  IDS C   5     141.084  35.158  47.4380  0.00  0.00     0.000 OA
ATOM     86   O  IDS C   5     141.157  37.562  47.4390  0.00  0.00     0.000 OA
ATOM     87   O  IDS C   5     139.563  36.411  46.0580  0.00  0.00     0.000 OA
ENDBRANCH 78 83
BRANCH 81 88
ATOM     88   C  IDS C   5     147.412  35.192  45.1710  0.00  0.00     0.000 C
ATOM     89   O  IDS C   5     148.319  35.364  45.9400  0.00  0.00     0.000 OA
ATOM     90   O  IDS C   5     147.624  34.780  44.0530  0.00  0.00     0.000 OA
ENDBRANCH 81 88
ENDBRANCH 76 80
ENDBRANCH 56 76
ENDBRANCH 55 59
ENDBRANCH 39 55
ENDBRANCH 38 42
ENDBRANCH 18 38
ENDBRANCH 17 21
ENDBRANCH 1 17
TORSDOF 18
ENDMDL
MODEL 38
REMARK VINA RESULT:      -5.9     12.954     20.798
ROOT
ATOM      1  C1  IDS C   1     134.111  46.106  49.6290  0.00  0.00     0.000 C
ATOM      2  C2  IDS C   1     133.144  46.116  48.4410  0.00  0.00     0.000 C
ATOM      3  C3  IDS C   1     131.749  46.534  48.8840  0.00  0.00     0.000 C
ATOM      4  C4  IDS C   1     131.220  45.590  49.9550  0.00  0.00     0.000 C
ATOM      5  C5  IDS C   1     132.342  45.204  50.9130  0.00  0.00     0.000 C
ATOM      6  O5  IDS C   1     133.392  46.170  50.8540  0.00  0.00     0.000 O
ATOM      7   O  IDS C   1     130.864  46.540  47.7550  0.00  0.00     0.000 O
ATOM      9  HD  IDS C   1     131.306  46.816  47.0640  0.00  0.00     0.000 HD
ENDROOT
BRANCH 2 9
ATOM      9   O  IDS C   1     133.590  47.076  47.4060  0.00  0.00     0.000 O
ATOM     10   S  IDS C   1     133.846  46.561  45.9190  0.00  0.00     0.000 S
ATOM     11   O  IDS C   1     134.252  47.725  45.1620  0.00  0.00     0.000 OA
ATOM     12   O  IDS C   1     134.892  45.565  46.0260  0.00  0.00     0.000 OA
ATOM     13   O  IDS C   1     132.587  46.010  45.4690  0.00  0.00     0.000 OA
ENDBRANCH 2 9
BRANCH 5 14
ATOM     14   C  IDS C   1     131.860  45.105  52.3500  0.00  0.00     0.000 C
ATOM     15   O  IDS C   1     132.522  44.501  53.1590  0.00  0.00     0.000 OA
ATOM     16   O  IDS C   1     130.809  45.634  52.6740  0.00  0.00     0.000 OA
ENDBRANCH 5 14
BRANCH 1 17
ATOM     17  O4  SGN C   2     135.354  46.590  49.5590  0.00  0.00     0.000 O
BRANCH 17 21
ATOM     18  C1  SGN C   2     138.206  49.585  50.2100  0.00  0.00     0.000 C
ATOM     19  C2  SGN C   2     136.791  49.858  50.7350  0.00  0.00     0.000 C
ATOM     20  C3  SGN C   2     136.001  48.546  50.8060  0.00  0.00     0.000 C
ATOM     21  C4  SGN C   2     136.035  47.838  49.4570  0.00  0.00     0.000 C
ATOM     22  C5  SGN C   2     137.489  47.619  49.0460  0.00  0.00     0.000 C
ATOM     23  O5  SGN C   2     138.175  48.890  48.9800  0.00  0.00     0.000 O
ATOM     24   O  SGN C   2     134.667  48.807  51.2080  0.00  0.00     0.000 O
ATOM     26  HD  SGN C   2     135.422  48.384  51.1920  0.00  0.00     0.000 HD
BRANCH 19 28
ATOM     26   N  SGN C   2     137.041  50.936  51.7020  0.00  0.00     0.000 N
ATOM     28  HD  SGN C   2     137.619  51.085  51.0740  0.00  0.00     0.000 HD
ATOM     28   O  SGN C   2     136.155  52.522  53.4110  0.00  0.00     0.000 OA
ATOM     29   S  SGN C   2     136.032  52.174  51.8890  0.00  0.00     0.000 S
ATOM     30   O  SGN C   2     136.542  53.255  51.1350  0.00  0.00     0.000 OA
ATOM     31   O  SGN C   2     134.716  51.700  51.6360  0.00  0.00     0.000 OA
ENDBRANCH 19 28
BRANCH 22 32
ATOM     32   C  SGN C   2     137.637  46.974  47.6900  0.00  0.00     0.000 C
ATOM     33   S  SGN C   2     139.508  46.376  46.0220  0.00  0.00     0.000 S
ATOM     34   O  SGN C   2     139.634  47.739  45.5700  0.00  0.00     0.000 OA
ATOM     35   O  SGN C   2     140.773  45.681  46.1320  0.00  0.00     0.000 OA
ATOM     36   O  SGN C   2     138.494  45.618  45.3280  0.00  0.00     0.000 OA
ATOM     37   O  SGN C   2     138.981  46.507  47.5230  0.00  0.00     0.000 O
ENDBRANCH 22 32
BRANCH 18 38
ATOM     38  O4  IDS C   3     139.276  49.090  50.8350  0.00  0.00     0.000 O
BRANCH 38 42
ATOM     39  C1  IDS C   3     142.358  48.367  52.2860  0.00  0.00     0.000 C
ATOM     40  C2  IDS C   3     141.783  47.484  51.1670  0.00  0.00     0.000 C
ATOM     41  C3  IDS C   3     140.358  47.038  51.4930  0.00  0.00     0.000 C
ATOM     42  C4  IDS C   3     139.502  48.214  51.9440  0.00  0.00     0.000 C
ATOM     43  C5  IDS C   3     140.213  48.970  53.0730  0.00  0.00     0.000 C
ATOM     44  O5  IDS C   3     141.477  49.432  52.6010  0.00  0.00     0.000 O
ATOM     45   O  IDS C   3     140.396  46.046  52.5210  0.00  0.00     0.000 O
ATOM     47  HD  IDS C   3     140.727  46.005  53.3200  0.00  0.00     0.000 HD
BRANCH 40 47
ATOM     47   O  IDS C   3     141.734  48.230  49.8880  0.00  0.00     0.000 O
ATOM     48   S  IDS C   3     142.787  47.897  48.7310  0.00  0.00     0.000 S
ATOM     49   O  IDS C   3     144.030  48.522  49.1330  0.00  0.00     0.000 OA
ATOM     50   O  IDS C   3     142.234  48.486  47.5320  0.00  0.00     0.000 OA
ATOM     51   O  IDS C   3     142.880  46.463  48.6670  0.00  0.00     0.000 OA
ENDBRANCH 40 47
BRANCH 43 52
ATOM     52   C  IDS C   3     139.407  50.139  53.5930  0.00  0.00     0.000 C
ATOM     53   O  IDS C   3     138.415  49.941  54.2570  0.00  0.00     0.000 OA
ATOM     54   O  IDS C   3     139.757  51.265  53.3420  0.00  0.00     0.000 OA
ENDBRANCH 43 52
BRANCH 39 55
ATOM     55  O4  SGN C   4     143.027  47.888  53.3350  0.00  0.00     0.000 O
BRANCH 55 59
ATOM     56  C1  SGN C   4     146.855  49.519  53.7680  0.00  0.00     0.000 C
ATOM     57  C2  SGN C   4     146.774  48.107  53.1620  0.00  0.00     0.000 C
ATOM     58  C3  SGN C   4     145.353  47.798  52.6980  0.00  0.00     0.000 C
ATOM     59  C4  SGN C   4     144.351  48.079  53.8130  0.00  0.00     0.000 C
ATOM     60  C5  SGN C   4     144.532  49.520  54.2840  0.00  0.00     0.000 C
ATOM     61  O5  SGN C   4     145.876  49.667  54.7840  0.00  0.00     0.000 O
ATOM     62   O  SGN C   4     145.273  46.442  52.2810  0.00  0.00     0.000 O
ATOM     64  HD  SGN C   4     146.097  46.665  52.1370  0.00  0.00     0.000 HD
BRANCH 57 66
ATOM     64   N  SGN C   4     147.967  48.315  52.3260  0.00  0.00     0.000 N
ATOM     66  HD  SGN C   4     148.822  48.363  52.4570  0.00  0.00     0.000 HD
ATOM     66   S  SGN C   4     149.180  47.278  52.3700  0.00  0.00     0.000 S
ATOM     67   O  SGN C   4     150.195  47.775  51.5150  0.00  0.00     0.000 OA
ATOM     68   O  SGN C   4     149.475  47.041  53.7410  0.00  0.00     0.000 OA
ATOM     69   O  SGN C   4     148.576  45.975  51.7560  0.00  0.00     0.000 OA
ENDBRANCH 57 66
BRANCH 60 70
ATOM     70   C  SGN C   4     143.581  49.925  55.3900  0.00  0.00     0.000 C
ATOM     71   O  SGN C   4     144.176  49.652  59.0890  0.00  0.00     0.000 OA
ATOM     72   O  SGN C   4     144.342  51.632  57.7110  0.00  0.00     0.000 OA
ATOM     73   O  SGN C   4     144.074  49.477  56.6680  0.00  0.00     0.000 O
ATOM     74   S  SGN C   4     143.679  50.368  57.9360  0.00  0.00     0.000 S
ATOM     75   O  SGN C   4     142.233  50.457  57.8910  0.00  0.00     0.000 OA
ENDBRANCH 60 70
BRANCH 56 76
ATOM     76  O4  IDS C   5     147.154  50.748  53.3080  0.00  0.00     0.000 O
BRANCH 76 80
ATOM     77  C1  IDS C   5     144.285  53.201  51.7570  0.00  0.00     0.000 C
ATOM     78  C2  IDS C   5     145.019  52.350  50.7210  0.00  0.00     0.000 C
ATOM     79  C3  IDS C   5     145.720  51.194  51.4090  0.00  0.00     0.000 C
ATOM     80  C4  IDS C   5     146.820  51.732  52.3180  0.00  0.00     0.000 C
ATOM     81  C5  IDS C   5     146.338  53.026  52.9910  0.00  0.00     0.000 C
ATOM     82  O5  IDS C   5     144.908  53.066  53.0340  0.00  0.00     0.000 O
BRANCH 78 83
ATOM     83   O  IDS C   5     144.069  51.798  49.7280  0.00  0.00     0.000 O
ATOM     84   S  IDS C   5     144.262  52.125  48.1790  0.00  0.00     0.000 S
ATOM     85   O  IDS C   5     144.451  53.548  48.0950  0.00  0.00     0.000 OA
ATOM     86   O  IDS C   5     145.428  51.373  47.7760  0.00  0.00     0.000 OA
ATOM     87   O  IDS C   5     143.056  51.671  47.5300  0.00  0.00     0.000 OA
ENDBRANCH 78 83
BRANCH 81 88
ATOM     88   C  IDS C   5     146.844  53.208  54.4100  0.00  0.00     0.000 C
ATOM     89   O  IDS C   5     147.968  53.589  54.6000  0.00  0.00     0.000 OA
ATOM     90   O  IDS C   5     146.111  52.970  55.3420  0.00  0.00     0.000 OA
ENDBRANCH 81 88
ENDBRANCH 76 80
ENDBRANCH 56 76
ENDBRANCH 55 59
ENDBRANCH 39 55
ENDBRANCH 38 42
ENDBRANCH 18 38
ENDBRANCH 17 21
ENDBRANCH 1 17
TORSDOF 18
ENDMDL
MODEL 39
REMARK VINA RESULT:      -5.9      3.501     13.027
ROOT
ATOM      1  C1  IDS C   1     148.237  42.081  48.0520  0.00  0.00     0.000 C
ATOM      2  C2  IDS C   1     147.172  42.214  46.9600  0.00  0.00     0.000 C
ATOM      3  C3  IDS C   1     146.470  43.561  47.0500  0.00  0.00     0.000 C
ATOM      4  C4  IDS C   1     145.816  43.735  48.4130  0.00  0.00     0.000 C
ATOM      5  C5  IDS C   1     146.718  43.166  49.5030  0.00  0.00     0.000 C
ATOM      6  O5  IDS C   1     148.065  43.092  49.0370  0.00  0.00     0.000 O
ATOM      7   O  IDS C   1     145.481  43.662  46.0150  0.00  0.00     0.000 O
ATOM      9  HD  IDS C   1     145.787  43.270  45.3060  0.00  0.00     0.000 HD
ENDROOT
BRANCH 2 9
ATOM      9   O  IDS C   1     147.782  42.117  45.6140  0.00  0.00     0.000 O
ATOM     10   S  IDS C   1     147.192  41.077  44.5590  0.00  0.00     0.000 S
ATOM     11   O  IDS C   1     147.985  41.236  43.3600  0.00  0.00     0.000 OA
ATOM     12   O  IDS C   1     147.349  39.772  45.1690  0.00  0.00     0.000 OA
ATOM     13   O  IDS C   1     145.807  41.448  44.3700  0.00  0.00     0.000 OA
ENDBRANCH 2 9
BRANCH 5 14
ATOM     14   C  IDS C   1     146.692  44.009  50.7670  0.00  0.00     0.000 C
ATOM     15   O  IDS C   1     146.045  45.027  50.7880  0.00  0.00     0.000 OA
ATOM     16   O  IDS C   1     147.325  43.652  51.7460  0.00  0.00     0.000 OA
ENDBRANCH 5 14
BRANCH 1 17
ATOM     17  O4  SGN C   2     149.450  41.569  47.8260  0.00  0.00     0.000 O
BRANCH 17 21
ATOM     18  C1  SGN C   2     153.584  41.740  47.1870  0.00  0.00     0.000 C
ATOM     19  C2  SGN C   2     152.924  43.002  47.7550  0.00  0.00     0.000 C
ATOM     20  C3  SGN C   2     151.542  42.656  48.3210  0.00  0.00     0.000 C
ATOM     21  C4  SGN C   2     150.706  41.942  47.2650  0.00  0.00     0.000 C
ATOM     22  C5  SGN C   2     151.462  40.707  46.7830  0.00  0.00     0.000 C
ATOM     23  O5  SGN C   2     152.747  41.098  46.2470  0.00  0.00     0.000 O
ATOM     24   O  SGN C   2     150.894  43.836  48.7670  0.00  0.00     0.000 O
ATOM     26  HD  SGN C   2     151.146  43.008  48.8000  0.00  0.00     0.000 HD
BRANCH 19 28
ATOM     26   N  SGN C   2     154.089  43.744  48.2570  0.00  0.00     0.000 N
ATOM     28  HD  SGN C   2     154.367  43.406  47.5100  0.00  0.00     0.000 HD
ATOM     28   O  SGN C   2     154.998  45.695  49.5180  0.00  0.00     0.000 OA
ATOM     29   S  SGN C   2     154.155  45.351  48.2450  0.00  0.00     0.000 S
ATOM     30   O  SGN C   2     154.887  45.738  47.1000  0.00  0.00     0.000 OA
ATOM     31   O  SGN C   2     152.832  45.839  48.4310  0.00  0.00     0.000 OA
ENDBRANCH 19 28
BRANCH 22 32
ATOM     32   C  SGN C   2     150.745  39.955  45.6890  0.00  0.00     0.000 C
ATOM     33   S  SGN C   2     150.703  37.588  44.6690  0.00  0.00     0.000 S
ATOM     34   O  SGN C   2     151.929  37.805  43.9430  0.00  0.00     0.000 OA
ATOM     35   O  SGN C   2     150.582  36.255  45.2200  0.00  0.00     0.000 OA
ATOM     36   O  SGN C   2     149.519  38.032  43.9710  0.00  0.00     0.000 OA
ATOM     37   O  SGN C   2     150.823  38.547  45.9400  0.00  0.00     0.000 O
ENDBRANCH 22 32
BRANCH 18 38
ATOM     38  O4  IDS C   3     154.201  40.734  47.8110  0.00  0.00     0.000 O
BRANCH 38 42
ATOM     39  C1  IDS C   3     156.938  39.123  49.2400  0.00  0.00     0.000 C
ATOM     40  C2  IDS C   3     157.105  40.024  48.0060  0.00  0.00     0.000 C
ATOM     41  C3  IDS C   3     156.135  39.624  46.8940  0.00  0.00     0.000 C
ATOM     42  C4  IDS C   3     154.721  39.456  47.4310  0.00  0.00     0.000 C
ATOM     43  C5  IDS C   3     154.734  38.515  48.6420  0.00  0.00     0.000 C
ATOM     44  O5  IDS C   3     155.582  39.063  49.6500  0.00  0.00     0.000 O
ATOM     45   O  IDS C   3     156.575  38.401  46.3000  0.00  0.00     0.000 O
ATOM     47  HD  IDS C   3     156.762  37.609  46.5970  0.00  0.00     0.000 HD
BRANCH 40 47
ATOM     47   O  IDS C   3     156.825  41.438  48.3530  0.00  0.00     0.000 O
ATOM     48   S  IDS C   3     157.996  42.525  48.2660  0.00  0.00     0.000 S
ATOM     49   O  IDS C   3     158.814  42.322  49.4420  0.00  0.00     0.000 OA
ATOM     50   O  IDS C   3     157.325  43.807  48.2730  0.00  0.00     0.000 OA
ATOM     51   O  IDS C   3     158.704  42.263  47.0410  0.00  0.00     0.000 OA
ENDBRANCH 40 47
BRANCH 43 52
ATOM     52   C  IDS C   3     153.354  38.277  49.2140  0.00  0.00     0.000 C
ATOM     53   O  IDS C   3     152.520  37.699  48.5560  0.00  0.00     0.000 OA
ATOM     54   O  IDS C   3     153.092  38.665  50.3240  0.00  0.00     0.000 OA
ENDBRANCH 43 52
BRANCH 39 55
ATOM     55  O4  SGN C   4     157.610  37.986  49.4210  0.00  0.00     0.000 O
BRANCH 55 59
ATOM     56  C1  SGN C   4     159.691  35.217  51.7670  0.00  0.00     0.000 C
ATOM     57  C2  SGN C   4     158.199  35.410  52.0920  0.00  0.00     0.000 C
ATOM     58  C3  SGN C   4     157.483  36.120  50.9460  0.00  0.00     0.000 C
ATOM     59  C4  SGN C   4     158.227  37.392  50.5540  0.00  0.00     0.000 C
ATOM     60  C5  SGN C   4     159.676  37.034  50.2300  0.00  0.00     0.000 C
ATOM     61  O5  SGN C   4     160.274  36.459  51.4090  0.00  0.00     0.000 O
ATOM     62   O  SGN C   4     156.148  36.419  51.3320  0.00  0.00     0.000 O
ATOM     64  HD  SGN C   4     156.354  35.714  51.7900  0.00  0.00     0.000 HD
BRANCH 57 66
ATOM     64   N  SGN C   4     158.183  34.032  52.6070  0.00  0.00     0.000 N
ATOM     66  HD  SGN C   4     158.380  33.641  53.3550  0.00  0.00     0.000 HD
ATOM     66   S  SGN C   4     157.405  33.678  53.9550  0.00  0.00     0.000 S
ATOM     67   O  SGN C   4     157.622  32.303  54.2220  0.00  0.00     0.000 OA
ATOM     68   O  SGN C   4     157.788  34.647  54.9230  0.00  0.00     0.000 OA
ATOM     69   O  SGN C   4     155.904  33.905  53.5860  0.00  0.00     0.000 OA
ENDBRANCH 57 66
BRANCH 60 70
ATOM     70   C  SGN C   4     160.520  38.219  49.8150  0.00  0.00     0.000 C
ATOM     71   O  SGN C   4     161.062  41.392  51.7510  0.00  0.00     0.000 OA
ATOM     72   O  SGN C   4     162.567  39.509  51.5540  0.00  0.00     0.000 OA
ATOM     73   O  SGN C   4     160.316  39.325  50.7160  0.00  0.00     0.000 O
ATOM     74   S  SGN C   4     161.553  40.318  50.9170  0.00  0.00     0.000 S
ATOM     75   O  SGN C   4     161.909  40.743  49.5780  0.00  0.00     0.000 OA
ENDBRANCH 60 70
BRANCH 56 76
ATOM     76  O4  IDS C   5     160.436  34.242  51.2130  0.00  0.00     0.000 O
BRANCH 76 80
ATOM     77  C1  IDS C   5     163.798  31.955  50.8640  0.00  0.00     0.000 C
ATOM     78  C2  IDS C   5     164.046  33.462  50.7990  0.00  0.00     0.000 C
ATOM     79  C3  IDS C   5     162.852  34.205  51.3660  0.00  0.00     0.000 C
ATOM     80  C4  IDS C   5     161.636  33.974  50.4730  0.00  0.00     0.000 C
ATOM     81  C5  IDS C   5     161.643  32.523  49.9700  0.00  0.00     0.000 C
ATOM     82  O5  IDS C   5     162.396  31.688  50.8550  0.00  0.00     0.000 O
BRANCH 78 83
ATOM     83   O  IDS C   5     165.245  33.830  51.5880  0.00  0.00     0.000 O
ATOM     84   S  IDS C   5     166.484  34.531  50.8680  0.00  0.00     0.000 S
ATOM     85   O  IDS C   5     166.760  33.742  49.6980  0.00  0.00     0.000 OA
ATOM     86   O  IDS C   5     166.034  35.868  50.5580  0.00  0.00     0.000 OA
ATOM     87   O  IDS C   5     167.556  34.516  51.8330  0.00  0.00     0.000 OA
ENDBRANCH 78 83
BRANCH 81 88
ATOM     88   C  IDS C   5     160.260  31.913  49.8310  0.00  0.00     0.000 C
ATOM     89   O  IDS C   5     159.505  32.328  48.9930  0.00  0.00     0.000 OA
ATOM     90   O  IDS C   5     159.927  31.011  50.5650  0.00  0.00     0.000 OA
ENDBRANCH 81 88
ENDBRANCH 76 80
ENDBRANCH 56 76
ENDBRANCH 55 59
ENDBRANCH 39 55
ENDBRANCH 38 42
ENDBRANCH 18 38
ENDBRANCH 17 21
ENDBRANCH 1 17
TORSDOF 18
ENDMDL
MODEL 40
REMARK VINA RESULT:      -5.9      5.145      9.486
ROOT
ATOM      1  C1  IDS C   1     152.690  44.920  53.7440  0.00  0.00     0.000 C
ATOM      2  C2  IDS C   1     153.286  44.774  55.1460  0.00  0.00     0.000 C
ATOM      3  C3  IDS C   1     152.485  45.576  56.1610  0.00  0.00     0.000 C
ATOM      4  C4  IDS C   1     152.456  47.049  55.7790  0.00  0.00     0.000 C
ATOM      5  C5  IDS C   1     152.313  47.195  54.2680  0.00  0.00     0.000 C
ATOM      6  O5  IDS C   1     151.766  46.001  53.7080  0.00  0.00     0.000 O
ATOM      7   O  IDS C   1     153.059  45.419  57.4660  0.00  0.00     0.000 O
ATOM      9  HD  IDS C   1     153.347  44.606  57.5410  0.00  0.00     0.000 HD
ENDROOT
BRANCH 2 9
ATOM      9   O  IDS C   1     153.268  43.359  55.5810  0.00  0.00     0.000 O
ATOM     10   S  IDS C   1     154.626  42.666  56.0510  0.00  0.00     0.000 S
ATOM     11   O  IDS C   1     154.273  41.313  56.4190  0.00  0.00     0.000 OA
ATOM     12   O  IDS C   1     155.510  42.727  54.9050  0.00  0.00     0.000 OA
ATOM     13   O  IDS C   1     155.100  43.447  57.1720  0.00  0.00     0.000 OA
ENDBRANCH 2 9
BRANCH 5 14
ATOM     14   C  IDS C   1     151.415  48.360  53.8870  0.00  0.00     0.000 C
ATOM     15   O  IDS C   1     150.367  48.144  53.3280  0.00  0.00     0.000 OA
ATOM     16   O  IDS C   1     151.760  49.501  54.1460  0.00  0.00     0.000 OA
ENDBRANCH 5 14
BRANCH 1 17
ATOM     17  O4  SGN C   2     152.546  43.892  52.9030  0.00  0.00     0.000 O
BRANCH 17 21
ATOM     18  C1  SGN C   2     150.373  40.967  50.8420  0.00  0.00     0.000 C
ATOM     19  C2  SGN C   2     149.560  42.085  51.5060  0.00  0.00     0.000 C
ATOM     20  C3  SGN C   2     150.479  43.268  51.8370  0.00  0.00     0.000 C
ATOM     21  C4  SGN C   2     151.670  42.794  52.6610  0.00  0.00     0.000 C
ATOM     22  C5  SGN C   2     152.397  41.691  51.8970  0.00  0.00     0.000 C
ATOM     23  O5  SGN C   2     151.486  40.600  51.6300  0.00  0.00     0.000 O
ATOM     24   O  SGN C   2     149.748  44.267  52.5280  0.00  0.00     0.000 O
ATOM     26  HD  SGN C   2     150.313  43.953  51.9520  0.00  0.00     0.000 HD
BRANCH 19 28
ATOM     26   N  SGN C   2     148.270  41.960  50.8150  0.00  0.00     0.000 N
ATOM     28  HD  SGN C   2     148.537  41.141  50.9030  0.00  0.00     0.000 HD
ATOM     28   O  SGN C   2     145.956  42.812  50.4380  0.00  0.00     0.000 OA
ATOM     29   S  SGN C   2     146.868  42.212  51.5610  0.00  0.00     0.000 S
ATOM     30   O  SGN C   2     146.352  40.952  51.9370  0.00  0.00     0.000 OA
ATOM     31   O  SGN C   2     147.080  43.209  52.5530  0.00  0.00     0.000 OA
ENDBRANCH 19 28
BRANCH 22 32
ATOM     32   C  SGN C   2     153.564  41.108  52.6550  0.00  0.00     0.000 C
ATOM     33   S  SGN C   2     154.412  38.804  53.4370  0.00  0.00     0.000 S
ATOM     34   O  SGN C   2     153.466  38.749  54.5240  0.00  0.00     0.000 OA
ATOM     35   O  SGN C   2     154.617  37.529  52.7820  0.00  0.00     0.000 OA
ATOM     36   O  SGN C   2     155.641  39.489  53.7600  0.00  0.00     0.000 OA
ATOM     37   O  SGN C   2     153.697  39.717  52.3410  0.00  0.00     0.000 O
ENDBRANCH 22 32
BRANCH 18 38
ATOM     38  O4  IDS C   3     150.812  40.849  49.5870  0.00  0.00     0.000 O
BRANCH 38 42
ATOM     39  C1  IDS C   3     151.964  39.926  46.4330  0.00  0.00     0.000 C
ATOM     40  C2  IDS C   3     152.858  40.714  47.4030  0.00  0.00     0.000 C
ATOM     41  C3  IDS C   3     152.148  41.965  47.9180  0.00  0.00     0.000 C
ATOM     42  C4  IDS C   3     150.739  41.641  48.3970  0.00  0.00     0.000 C
ATOM     43  C5  IDS C   3     149.983  40.876  47.3040  0.00  0.00     0.000 C
ATOM     44  O5  IDS C   3     150.690  39.674  47.0010  0.00  0.00     0.000 O
ATOM     45   O  IDS C   3     152.091  42.940  46.8750  0.00  0.00     0.000 O
ATOM     47  HD  IDS C   3     151.792  42.949  46.0620  0.00  0.00     0.000 HD
BRANCH 40 47
ATOM     47   O  IDS C   3     153.206  39.883  48.5810  0.00  0.00     0.000 O
ATOM     48   S  IDS C   3     154.035  38.530  48.3830  0.00  0.00     0.000 S
ATOM     49   O  IDS C   3     153.090  37.555  47.8830  0.00  0.00     0.000 OA
ATOM     50   O  IDS C   3     154.533  38.193  49.6990  0.00  0.00     0.000 OA
ATOM     51   O  IDS C   3     155.081  38.827  47.4410  0.00  0.00     0.000 OA
ENDBRANCH 40 47
BRANCH 43 52
ATOM     52   C  IDS C   3     148.561  40.543  47.6990  0.00  0.00     0.000 C
ATOM     53   O  IDS C   3     147.753  41.431  47.8470  0.00  0.00     0.000 OA
ATOM     54   O  IDS C   3     148.241  39.393  47.8640  0.00  0.00     0.000 OA
ENDBRANCH 43 52
BRANCH 39 55
ATOM     55  O4  SGN C   4     151.938  40.135  45.1160  0.00  0.00     0.000 O
BRANCH 55 59
ATOM     56  C1  SGN C   4     153.660  39.066  41.4560  0.00  0.00     0.000 C
ATOM     57  C2  SGN C   4     154.173  38.322  42.7010  0.00  0.00     0.000 C
ATOM     58  C3  SGN C   4     153.216  38.507  43.8750  0.00  0.00     0.000 C
ATOM     59  C4  SGN C   4     152.909  39.985  44.0900  0.00  0.00     0.000 C
ATOM     60  C5  SGN C   4     152.380  40.571  42.7830  0.00  0.00     0.000 C
ATOM     61  O5  SGN C   4     153.401  40.423  41.7750  0.00  0.00     0.000 O
ATOM     62   O  SGN C   4     153.785  37.938  45.0470  0.00  0.00     0.000 O
ATOM     64  HD  SGN C   4     154.123  37.477  44.3960  0.00  0.00     0.000 HD
BRANCH 57 66
ATOM     64   N  SGN C   4     154.817  37.037  43.0170  0.00  0.00     0.000 N
ATOM     66  HD  SGN C   4     154.914  36.272  42.6230  0.00  0.00     0.000 HD
ATOM     66   S  SGN C   4     155.875  36.391  42.0120  0.00  0.00     0.000 S
ATOM     67   O  SGN C   4     156.269  35.141  42.5550  0.00  0.00     0.000 OA
ATOM     68   O  SGN C   4     155.299  36.438  40.7130  0.00  0.00     0.000 OA
ATOM     69   O  SGN C   4     157.084  37.380  42.0600  0.00  0.00     0.000 OA
ENDBRANCH 57 66
BRANCH 60 70
ATOM     70   C  SGN C   4     152.028  42.041  42.8710  0.00  0.00     0.000 C
ATOM     71   O  SGN C   4     152.000  44.527  40.0560  0.00  0.00     0.000 OA
ATOM     72   O  SGN C   4     150.102  43.413  41.0580  0.00  0.00     0.000 OA
ATOM     73   O  SGN C   4     152.333  42.708  41.6310  0.00  0.00     0.000 O
ATOM     74   S  SGN C   4     151.422  43.967  41.2560  0.00  0.00     0.000 S
ATOM     75   O  SGN C   4     151.512  44.846  42.4050  0.00  0.00     0.000 OA
ENDBRANCH 60 70
BRANCH 56 76
ATOM     76  O4  IDS C   5     152.905  38.747  40.3890  0.00  0.00     0.000 O
BRANCH 76 80
ATOM     77  C1  IDS C   5     148.864  38.174  40.3490  0.00  0.00     0.000 C
ATOM     78  C2  IDS C   5     149.676  36.937  40.7310  0.00  0.00     0.000 C
ATOM     79  C3  IDS C   5     151.077  37.348  41.1410  0.00  0.00     0.000 C
ATOM     80  C4  IDS C   5     151.809  37.936  39.9380  0.00  0.00     0.000 C
ATOM     81  C5  IDS C   5     150.829  38.774  39.1050  0.00  0.00     0.000 C
ATOM     82  O5  IDS C   5     149.735  39.218  39.9130  0.00  0.00     0.000 O
BRANCH 78 83
ATOM     83   O  IDS C   5     149.045  36.226  41.8670  0.00  0.00     0.000 O
ATOM     84   S  IDS C   5     148.746  34.663  41.7570  0.00  0.00     0.000 S
ATOM     85   O  IDS C   5     148.083  34.475  40.4940  0.00  0.00     0.000 OA
ATOM     86   O  IDS C   5     150.040  34.025  41.8190  0.00  0.00     0.000 OA
ATOM     87   O  IDS C   5     147.913  34.344  42.8900  0.00  0.00     0.000 OA
ENDBRANCH 78 83
BRANCH 81 88
ATOM     88   C  IDS C   5     151.454  40.001  38.4670  0.00  0.00     0.000 C
ATOM     89   O  IDS C   5     151.257  41.088  38.9410  0.00  0.00     0.000 OA
ATOM     90   O  IDS C   5     152.150  39.876  37.4860  0.00  0.00     0.000 OA
ENDBRANCH 81 88
ENDBRANCH 76 80
ENDBRANCH 56 76
ENDBRANCH 55 59
ENDBRANCH 39 55
ENDBRANCH 38 42
ENDBRANCH 18 38
ENDBRANCH 17 21
ENDBRANCH 1 17
TORSDOF 18
ENDMDL
MODEL 41
REMARK VINA RESULT:      -5.8     11.358     17.543
ROOT
ATOM      1  C1  IDS C   1     144.837  41.676  43.7880  0.00  0.00     0.000 C
ATOM      2  C2  IDS C   1     146.057  41.504  42.8790  0.00  0.00     0.000 C
ATOM      3  C3  IDS C   1     145.748  40.552  41.7330  0.00  0.00     0.000 C
ATOM      4  C4  IDS C   1     145.322  39.191  42.2660  0.00  0.00     0.000 C
ATOM      5  C5  IDS C   1     144.439  39.364  43.4980  0.00  0.00     0.000 C
ATOM      6  O5  IDS C   1     143.869  40.672  43.5130  0.00  0.00     0.000 O
ATOM      7   O  IDS C   1     146.903  40.410  40.8940  0.00  0.00     0.000 O
ATOM      9  HD  IDS C   1     147.305  41.176  40.8540  0.00  0.00     0.000 HD
ENDROOT
BRANCH 2 9
ATOM      9   O  IDS C   1     146.460  42.799  42.2860  0.00  0.00     0.000 O
ATOM     10   S  IDS C   1     147.873  43.431  42.6700  0.00  0.00     0.000 S
ATOM     11   O  IDS C   1     147.969  44.668  41.9260  0.00  0.00     0.000 OA
ATOM     12   O  IDS C   1     147.831  43.637  44.1030  0.00  0.00     0.000 OA
ATOM     13   O  IDS C   1     148.863  42.457  42.2690  0.00  0.00     0.000 OA
ENDBRANCH 2 9
BRANCH 5 14
ATOM     14   C  IDS C   1     143.311  38.347  43.5420  0.00  0.00     0.000 C
ATOM     15   O  IDS C   1     142.824  37.955  42.5090  0.00  0.00     0.000 OA
ATOM     16   O  IDS C   1     142.906  37.938  44.6170  0.00  0.00     0.000 OA
ENDBRANCH 5 14
BRANCH 1 17
ATOM     17  O4  SGN C   2     144.452  42.861  44.2710  0.00  0.00     0.000 O
BRANCH 17 21
ATOM     18  C1  SGN C   2     142.225  46.366  43.7410  0.00  0.00     0.000 C
ATOM     19  C2  SGN C   2     142.375  45.456  42.5160  0.00  0.00     0.000 C
ATOM     20  C3  SGN C   2     142.826  44.058  42.9590  0.00  0.00     0.000 C
ATOM     21  C4  SGN C   2     144.084  44.159  43.8130  0.00  0.00     0.000 C
ATOM     22  C5  SGN C   2     143.810  45.083  44.9960  0.00  0.00     0.000 C
ATOM     23  O5  SGN C   2     143.406  46.386  44.5160  0.00  0.00     0.000 O
ATOM     24   O  SGN C   2     143.049  43.241  41.8220  0.00  0.00     0.000 O
ATOM     26  HD  SGN C   2     142.768  43.433  42.6190  0.00  0.00     0.000 HD
BRANCH 19 28
ATOM     26   N  SGN C   2     141.292  45.947  41.6520  0.00  0.00     0.000 N
ATOM     28  HD  SGN C   2     141.588  46.663  42.0390  0.00  0.00     0.000 HD
ATOM     28   O  SGN C   2     139.991  45.746  39.5330  0.00  0.00     0.000 OA
ATOM     29   S  SGN C   2     141.440  46.031  40.0530  0.00  0.00     0.000 S
ATOM     30   O  SGN C   2     141.783  47.362  39.7270  0.00  0.00     0.000 OA
ATOM     31   O  SGN C   2     142.288  44.966  39.6410  0.00  0.00     0.000 OA
ENDBRANCH 19 28
BRANCH 22 32
ATOM     32   C  SGN C   2     145.015  45.299  45.8790  0.00  0.00     0.000 C
ATOM     33   S  SGN C   2     145.776  44.769  48.2840  0.00  0.00     0.000 S
ATOM     34   O  SGN C   2     144.969  45.824  48.8450  0.00  0.00     0.000 OA
ATOM     35   O  SGN C   2     145.804  43.567  49.0910  0.00  0.00     0.000 OA
ATOM     36   O  SGN C   2     147.083  45.197  47.8450  0.00  0.00     0.000 OA
ATOM     37   O  SGN C   2     145.003  44.349  46.9510  0.00  0.00     0.000 O
ENDBRANCH 22 32
BRANCH 18 38
ATOM     38  O4  IDS C   3     141.244  46.444  44.6420  0.00  0.00     0.000 O
BRANCH 38 42
ATOM     39  C1  IDS C   3     138.717  47.319  46.8730  0.00  0.00     0.000 C
ATOM     40  C2  IDS C   3     139.966  46.559  47.3490  0.00  0.00     0.000 C
ATOM     41  C3  IDS C   3     140.209  45.310  46.5020  0.00  0.00     0.000 C
ATOM     42  C4  IDS C   3     140.128  45.629  45.0160  0.00  0.00     0.000 C
ATOM     43  C5  IDS C   3     138.817  46.366  44.7130  0.00  0.00     0.000 C
ATOM     44  O5  IDS C   3     138.771  47.568  45.4790  0.00  0.00     0.000 O
ATOM     45   O  IDS C   3     139.239  44.316  46.8370  0.00  0.00     0.000 O
ATOM     47  HD  IDS C   3     138.374  44.288  46.8590  0.00  0.00     0.000 HD
BRANCH 40 47
ATOM     47   O  IDS C   3     141.171  47.415  47.2360  0.00  0.00     0.000 O
ATOM     48   S  IDS C   3     141.853  48.007  48.5560  0.00  0.00     0.000 S
ATOM     49   O  IDS C   3     141.017  49.113  48.9730  0.00  0.00     0.000 OA
ATOM     50   O  IDS C   3     143.171  48.436  48.1430  0.00  0.00     0.000 OA
ATOM     51   O  IDS C   3     141.880  46.936  49.5150  0.00  0.00     0.000 OA
ENDBRANCH 40 47
BRANCH 43 52
ATOM     52   C  IDS C   3     138.654  46.691  43.2450  0.00  0.00     0.000 C
ATOM     53   O  IDS C   3     138.791  47.830  42.8610  0.00  0.00     0.000 OA
ATOM     54   O  IDS C   3     138.387  45.812  42.4650  0.00  0.00     0.000 OA
ENDBRANCH 43 52
BRANCH 39 55
ATOM     55  O4  SGN C   4     137.489  47.085  47.3360  0.00  0.00     0.000 O
BRANCH 55 59
ATOM     56  C1  SGN C   4     133.755  48.300  48.7790  0.00  0.00     0.000 C
ATOM     57  C2  SGN C   4     134.007  48.496  47.2740  0.00  0.00     0.000 C
ATOM     58  C3  SGN C   4     135.207  47.671  46.8150  0.00  0.00     0.000 C
ATOM     59  C4  SGN C   4     136.413  47.934  47.7090  0.00  0.00     0.000 C
ATOM     60  C5  SGN C   4     136.017  47.667  49.1590  0.00  0.00     0.000 C
ATOM     61  O5  SGN C   4     134.943  48.563  49.5080  0.00  0.00     0.000 O
ATOM     62   O  SGN C   4     135.508  47.983  45.4610  0.00  0.00     0.000 O
ATOM     64  HD  SGN C   4     134.658  48.129  45.5330  0.00  0.00     0.000 HD
BRANCH 57 66
ATOM     64   N  SGN C   4     132.839  49.390  47.2650  0.00  0.00     0.000 N
ATOM     66  HD  SGN C   4     132.502  49.974  46.7210  0.00  0.00     0.000 HD
ATOM     66   S  SGN C   4     131.803  49.361  46.0510  0.00  0.00     0.000 S
ATOM     67   O  SGN C   4     130.833  50.366  46.2960  0.00  0.00     0.000 OA
ATOM     68   O  SGN C   4     132.567  49.404  44.8520  0.00  0.00     0.000 OA
ATOM     69   O  SGN C   4     131.134  47.954  46.1680  0.00  0.00     0.000 OA
ENDBRANCH 57 66
BRANCH 60 70
ATOM     70   C  SGN C   4     137.141  47.885  50.1490  0.00  0.00     0.000 C
ATOM     71   O  SGN C   4     136.936  49.704  53.4290  0.00  0.00     0.000 OA
ATOM     72   O  SGN C   4     136.937  47.313  53.0670  0.00  0.00     0.000 OA
ATOM     73   O  SGN C   4     136.732  48.801  51.1830  0.00  0.00     0.000 O
ATOM     74   S  SGN C   4     137.407  48.604  52.6190  0.00  0.00     0.000 S
ATOM     75   O  SGN C   4     138.834  48.643  52.3660  0.00  0.00     0.000 OA
ENDBRANCH 60 70
BRANCH 56 76
ATOM     76  O4  IDS C   5     132.990  47.485  49.5280  0.00  0.00     0.000 O
BRANCH 76 80
ATOM     77  C1  IDS C   5     130.584  44.384  50.6500  0.00  0.00     0.000 C
ATOM     78  C2  IDS C   5     130.186  45.053  49.3340  0.00  0.00     0.000 C
ATOM     79  C3  IDS C   5     131.349  45.861  48.7950  0.00  0.00     0.000 C
ATOM     80  C4  IDS C   5     131.649  47.019  49.7420  0.00  0.00     0.000 C
ATOM     81  C5  IDS C   5     131.469  46.549  51.1930  0.00  0.00     0.000 C
ATOM     82  O5  IDS C   5     131.623  45.130  51.2840  0.00  0.00     0.000 O
BRANCH 78 83
ATOM     83   O  IDS C   5     129.813  44.036  48.3220  0.00  0.00     0.000 O
ATOM     84   S  IDS C   5     128.397  44.125  47.5940  0.00  0.00     0.000 S
ATOM     85   O  IDS C   5     127.425  44.310  48.6390  0.00  0.00     0.000 OA
ATOM     86   O  IDS C   5     128.498  45.260  46.7060  0.00  0.00     0.000 OA
ATOM     87   O  IDS C   5     128.242  42.878  46.8860  0.00  0.00     0.000 OA
ENDBRANCH 78 83
BRANCH 81 88
ATOM     88   C  IDS C   5     132.446  47.179  52.1700  0.00  0.00     0.000 C
ATOM     89   O  IDS C   5     132.239  48.284  52.5950  0.00  0.00     0.000 OA
ATOM     90   O  IDS C   5     133.428  46.563  52.5150  0.00  0.00     0.000 OA
ENDBRANCH 81 88
ENDBRANCH 76 80
ENDBRANCH 56 76
ENDBRANCH 55 59
ENDBRANCH 39 55
ENDBRANCH 38 42
ENDBRANCH 18 38
ENDBRANCH 17 21
ENDBRANCH 1 17
TORSDOF 18
ENDMDL
MODEL 42
REMARK VINA RESULT:      -5.8     14.982     21.577
ROOT
ATOM      1  C1  IDS C   1     134.469  46.285  49.9330  0.00  0.00     0.000 C
ATOM      2  C2  IDS C   1     133.683  46.320  48.6200  0.00  0.00     0.000 C
ATOM      3  C3  IDS C   1     132.221  46.658  48.8730  0.00  0.00     0.000 C
ATOM      4  C4  IDS C   1     131.589  45.638  49.8100  0.00  0.00     0.000 C
ATOM      5  C5  IDS C   1     132.578  45.246  50.9020  0.00  0.00     0.000 C
ATOM      6  O5  IDS C   1     133.580  46.255  51.0420  0.00  0.00     0.000 O
ATOM      7   O  IDS C   1     131.508  46.689  47.6290  0.00  0.00     0.000 O
ATOM      9  HD  IDS C   1     132.031  47.019  47.0230  0.00  0.00     0.000 HD
ENDROOT
BRANCH 2 9
ATOM      9   O  IDS C   1     134.228  47.351  47.7070  0.00  0.00     0.000 O
ATOM     10   S  IDS C   1     134.637  46.944  46.2210  0.00  0.00     0.000 S
ATOM     11   O  IDS C   1     135.112  48.158  45.5940  0.00  0.00     0.000 OA
ATOM     12   O  IDS C   1     135.672  45.940  46.3630  0.00  0.00     0.000 OA
ATOM     13   O  IDS C   1     133.433  46.429  45.6060  0.00  0.00     0.000 OA
ENDBRANCH 2 9
BRANCH 5 14
ATOM     14   C  IDS C   1     131.900  45.052  52.2480  0.00  0.00     0.000 C
ATOM     15   O  IDS C   1     130.736  45.346  52.3740  0.00  0.00     0.000 OA
ATOM     16   O  IDS C   1     132.535  44.604  53.1870  0.00  0.00     0.000 OA
ENDBRANCH 5 14
BRANCH 1 17
ATOM     17  O4  SGN C   2     135.685  46.821  50.0680  0.00  0.00     0.000 O
BRANCH 17 21
ATOM     18  C1  SGN C   2     138.359  49.965  50.7710  0.00  0.00     0.000 C
ATOM     19  C2  SGN C   2     136.881  50.239  51.0750  0.00  0.00     0.000 C
ATOM     20  C3  SGN C   2     136.117  48.914  51.1790  0.00  0.00     0.000 C
ATOM     21  C4  SGN C   2     136.347  48.075  49.9270  0.00  0.00     0.000 C
ATOM     22  C5  SGN C   2     137.846  47.868  49.7350  0.00  0.00     0.000 C
ATOM     23  O5  SGN C   2     138.508  49.149  49.6270  0.00  0.00     0.000 O
ATOM     24   O  SGN C   2     134.736  49.167  51.3740  0.00  0.00     0.000 O
ATOM     26  HD  SGN C   2     135.496  48.771  51.5010  0.00  0.00     0.000 HD
BRANCH 19 28
ATOM     26   N  SGN C   2     136.976  51.422  51.9420  0.00  0.00     0.000 N
ATOM     28  HD  SGN C   2     137.621  51.531  51.3750  0.00  0.00     0.000 HD
ATOM     28   O  SGN C   2     135.835  53.135  53.3520  0.00  0.00     0.000 OA
ATOM     29   S  SGN C   2     135.912  52.626  51.8730  0.00  0.00     0.000 S
ATOM     30   O  SGN C   2     136.475  53.645  51.0730  0.00  0.00     0.000 OA
ATOM     31   O  SGN C   2     134.653  52.069  51.5190  0.00  0.00     0.000 OA
ENDBRANCH 19 28
BRANCH 22 32
ATOM     32   C  SGN C   2     138.188  47.095  48.4850  0.00  0.00     0.000 C
ATOM     33   S  SGN C   2     140.041  45.525  47.6220  0.00  0.00     0.000 S
ATOM     34   O  SGN C   2     140.956  46.616  47.3960  0.00  0.00     0.000 OA
ATOM     35   O  SGN C   2     140.677  44.333  48.1440  0.00  0.00     0.000 OA
ATOM     36   O  SGN C   2     139.151  45.264  46.5160  0.00  0.00     0.000 OA
ATOM     37   O  SGN C   2     139.101  46.039  48.8060  0.00  0.00     0.000 O
ENDBRANCH 22 32
BRANCH 18 38
ATOM     38  O4  IDS C   3     139.347  49.573  51.5790  0.00  0.00     0.000 O
BRANCH 38 42
ATOM     39  C1  IDS C   3     142.193  49.125  53.5350  0.00  0.00     0.000 C
ATOM     40  C2  IDS C   3     141.891  48.193  52.3510  0.00  0.00     0.000 C
ATOM     41  C3  IDS C   3     140.475  47.625  52.4420  0.00  0.00     0.000 C
ATOM     42  C4  IDS C   3     139.458  48.722  52.7240  0.00  0.00     0.000 C
ATOM     43  C5  IDS C   3     139.902  49.540  53.9430  0.00  0.00     0.000 C
ATOM     44  O5  IDS C   3     141.184  50.110  53.6800  0.00  0.00     0.000 O
ATOM     45   O  IDS C   3     140.425  46.642  53.4780  0.00  0.00     0.000 O
ATOM     47  HD  IDS C   3     140.620  46.632  54.3220  0.00  0.00     0.000 HD
BRANCH 40 47
ATOM     47   O  IDS C   3     141.993  48.930  51.0690  0.00  0.00     0.000 O
ATOM     48   S  IDS C   3     143.120  48.527  50.0070  0.00  0.00     0.000 S
ATOM     49   O  IDS C   3     144.357  49.085  50.5110  0.00  0.00     0.000 OA
ATOM     50   O  IDS C   3     142.704  49.136  48.7630  0.00  0.00     0.000 OA
ATOM     51   O  IDS C   3     143.136  47.090  49.9570  0.00  0.00     0.000 OA
ENDBRANCH 40 47
BRANCH 43 52
ATOM     52   C  IDS C   3     138.923  50.636  54.3020  0.00  0.00     0.000 C
ATOM     53   O  IDS C   3     139.236  51.795  54.1580  0.00  0.00     0.000 OA
ATOM     54   O  IDS C   3     137.834  50.347  54.7290  0.00  0.00     0.000 OA
ENDBRANCH 43 52
BRANCH 39 55
ATOM     55  O4  SGN C   4     142.715  48.708  54.6890  0.00  0.00     0.000 O
BRANCH 55 59
ATOM     56  C1  SGN C   4     145.671  51.209  56.2740  0.00  0.00     0.000 C
ATOM     57  C2  SGN C   4     146.153  50.065  55.3660  0.00  0.00     0.000 C
ATOM     58  C3  SGN C   4     144.994  49.492  54.5550  0.00  0.00     0.000 C
ATOM     59  C4  SGN C   4     143.823  49.141  55.4660  0.00  0.00     0.000 C
ATOM     60  C5  SGN C   4     143.440  50.380  56.2730  0.00  0.00     0.000 C
ATOM     61  O5  SGN C   4     144.579  50.772  57.0660  0.00  0.00     0.000 O
ATOM     62   O  SGN C   4     145.434  48.345  53.8400  0.00  0.00     0.000 O
ATOM     64  HD  SGN C   4     146.144  48.833  53.9270  0.00  0.00     0.000 HD
BRANCH 57 66
ATOM     64   N  SGN C   4     147.431  50.747  55.6270  0.00  0.00     0.000 N
ATOM     66  HD  SGN C   4     148.219  50.515  55.8990  0.00  0.00     0.000 HD
ATOM     66   S  SGN C   4     148.777  50.239  54.9370  0.00  0.00     0.000 S
ATOM     67   O  SGN C   4     149.835  51.047  55.4250  0.00  0.00     0.000 OA
ATOM     68   O  SGN C   4     148.833  48.830  55.1210  0.00  0.00     0.000 OA
ATOM     69   O  SGN C   4     148.553  50.538  53.4200  0.00  0.00     0.000 OA
ENDBRANCH 57 66
BRANCH 60 70
ATOM     70   C  SGN C   4     142.276  50.160  57.2140  0.00  0.00     0.000 C
ATOM     71   O  SGN C   4     141.948  51.431  60.7330  0.00  0.00     0.000 OA
ATOM     72   O  SGN C   4     140.920  52.333  58.7380  0.00  0.00     0.000 OA
ATOM     73   O  SGN C   4     142.603  50.620  58.5390  0.00  0.00     0.000 O
ATOM     74   S  SGN C   4     141.388  51.153  59.4310  0.00  0.00     0.000 S
ATOM     75   O  SGN C   4     140.427  50.068  59.4350  0.00  0.00     0.000 OA
ENDBRANCH 60 70
BRANCH 56 76
ATOM     76  O4  IDS C   5     145.590  52.549  56.1720  0.00  0.00     0.000 O
BRANCH 76 80
ATOM     77  C1  IDS C   5     142.033  54.322  55.2430  0.00  0.00     0.000 C
ATOM     78  C2  IDS C   5     142.959  54.093  54.0490  0.00  0.00     0.000 C
ATOM     79  C3  IDS C   5     144.015  53.066  54.4060  0.00  0.00     0.000 C
ATOM     80  C4  IDS C   5     144.923  53.626  55.4970  0.00  0.00     0.000 C
ATOM     81  C5  IDS C   5     144.082  54.442  56.4900  0.00  0.00     0.000 C
ATOM     82  O5  IDS C   5     142.716  54.017  56.4590  0.00  0.00     0.000 O
BRANCH 78 83
ATOM     83   O  IDS C   5     142.194  53.592  52.8820  0.00  0.00     0.000 O
ATOM     84   S  IDS C   5     142.249  54.385  51.4990  0.00  0.00     0.000 S
ATOM     85   O  IDS C   5     142.004  55.764  51.8240  0.00  0.00     0.000 OA
ATOM     86   O  IDS C   5     143.576  54.150  50.9800  0.00  0.00     0.000 OA
ATOM     87   O  IDS C   5     141.219  53.802  50.6740  0.00  0.00     0.000 OA
ENDBRANCH 78 83
BRANCH 81 88
ATOM     88   C  IDS C   5     144.559  54.343  57.9270  0.00  0.00     0.000 C
ATOM     89   O  IDS C   5     145.525  54.965  58.2810  0.00  0.00     0.000 OA
ATOM     90   O  IDS C   5     143.962  53.640  58.7100  0.00  0.00     0.000 OA
ENDBRANCH 81 88
ENDBRANCH 76 80
ENDBRANCH 56 76
ENDBRANCH 55 59
ENDBRANCH 39 55
ENDBRANCH 38 42
ENDBRANCH 18 38
ENDBRANCH 17 21
ENDBRANCH 1 17
TORSDOF 18
ENDMDL
MODEL 43
REMARK VINA RESULT:      -5.7     11.243     18.033
ROOT
ATOM      1  C1  IDS C   1     143.795  34.214  30.6500  0.00  0.00     0.000 C
ATOM      2  C2  IDS C   1     144.915  34.399  29.6230  0.00  0.00     0.000 C
ATOM      3  C3  IDS C   1     144.581  35.526  28.6570  0.00  0.00     0.000 C
ATOM      4  C4  IDS C   1     143.275  35.240  27.9290  0.00  0.00     0.000 C
ATOM      5  C5  IDS C   1     142.270  34.608  28.8870  0.00  0.00     0.000 C
ATOM      6  O5  IDS C   1     142.624  34.907  30.2370  0.00  0.00     0.000 O
ATOM      7   O  IDS C   1     145.646  35.684  27.7080  0.00  0.00     0.000 O
ATOM      9  HD  IDS C   1     146.396  35.538  28.1150  0.00  0.00     0.000 HD
ENDROOT
BRANCH 2 9
ATOM      9   O  IDS C   1     146.190  34.747  30.2910  0.00  0.00     0.000 O
ATOM     10   S  IDS C   1     147.456  33.796  30.1050  0.00  0.00     0.000 S
ATOM     11   O  IDS C   1     148.527  34.410  30.8590  0.00  0.00     0.000 OA
ATOM     12   O  IDS C   1     147.058  32.509  30.6380  0.00  0.00     0.000 OA
ATOM     13   O  IDS C   1     147.719  33.761  28.6840  0.00  0.00     0.000 OA
ENDBRANCH 2 9
BRANCH 5 14
ATOM     14   C  IDS C   1     140.854  35.102  28.6400  0.00  0.00     0.000 C
ATOM     15   O  IDS C   1     140.654  36.284  28.5000  0.00  0.00     0.000 OA
ATOM     16   O  IDS C   1     139.935  34.303  28.5890  0.00  0.00     0.000 OA
ENDBRANCH 5 14
BRANCH 1 17
ATOM     17  O4  SGN C   2     144.026  34.011  31.9500  0.00  0.00     0.000 O
BRANCH 17 21
ATOM     18  C1  SGN C   2     144.757  35.371  35.8420  0.00  0.00     0.000 C
ATOM     19  C2  SGN C   2     144.499  36.444  34.7760  0.00  0.00     0.000 C
ATOM     20  C3  SGN C   2     143.843  35.806  33.5450  0.00  0.00     0.000 C
ATOM     21  C4  SGN C   2     144.682  34.632  33.0530  0.00  0.00     0.000 C
ATOM     22  C5  SGN C   2     144.864  33.637  34.1940  0.00  0.00     0.000 C
ATOM     23  O5  SGN C   2     145.500  34.291  35.3170  0.00  0.00     0.000 O
ATOM     24   O  SGN C   2     143.684  36.779  32.5260  0.00  0.00     0.000 O
ATOM     26  HD  SGN C   2     143.457  36.110  33.0270  0.00  0.00     0.000 HD
BRANCH 19 28
ATOM     26   N  SGN C   2     144.119  37.595  35.6060  0.00  0.00     0.000 N
ATOM     28  HD  SGN C   2     144.663  37.149  36.1100  0.00  0.00     0.000 HD
ATOM     28   O  SGN C   2     143.471  40.000  35.7580  0.00  0.00     0.000 OA
ATOM     29   S  SGN C   2     144.659  39.081  35.3140  0.00  0.00     0.000 S
ATOM     30   O  SGN C   2     145.755  39.312  36.1760  0.00  0.00     0.000 OA
ATOM     31   O  SGN C   2     144.832  39.209  33.9090  0.00  0.00     0.000 OA
ENDBRANCH 19 28
BRANCH 22 32
ATOM     32   C  SGN C   2     145.733  32.458  33.8280  0.00  0.00     0.000 C
ATOM     33   S  SGN C   2     146.804  30.411  34.9690  0.00  0.00     0.000 S
ATOM     34   O  SGN C   2     147.847  31.205  35.5690  0.00  0.00     0.000 OA
ATOM     35   O  SGN C   2     146.304  29.361  35.8330  0.00  0.00     0.000 OA
ATOM     36   O  SGN C   2     147.102  29.960  33.6300  0.00  0.00     0.000 OA
ATOM     37   O  SGN C   2     145.581  31.425  34.8090  0.00  0.00     0.000 O
ENDBRANCH 22 32
BRANCH 18 38
ATOM     38  O4  IDS C   3     143.919  34.798  36.7080  0.00  0.00     0.000 O
BRANCH 38 42
ATOM     39  C1  IDS C   3     141.653  33.850  39.1770  0.00  0.00     0.000 C
ATOM     40  C2  IDS C   3     143.164  33.644  39.3680  0.00  0.00     0.000 C
ATOM     41  C3  IDS C   3     143.774  32.895  38.1830  0.00  0.00     0.000 C
ATOM     42  C4  IDS C   3     143.328  33.502  36.8590  0.00  0.00     0.000 C
ATOM     43  C5  IDS C   3     141.799  33.618  36.8300  0.00  0.00     0.000 C
ATOM     44  O5  IDS C   3     141.372  34.436  37.9170  0.00  0.00     0.000 O
ATOM     45   O  IDS C   3     143.384  31.522  38.2390  0.00  0.00     0.000 O
ATOM     47  HD  IDS C   3     142.627  31.102  38.2790  0.00  0.00     0.000 HD
BRANCH 40 47
ATOM     47   O  IDS C   3     143.858  34.949  39.4740  0.00  0.00     0.000 O
ATOM     48   S  IDS C   3     144.457  35.420  40.8800  0.00  0.00     0.000 S
ATOM     49   O  IDS C   3     143.326  35.875  41.6610  0.00  0.00     0.000 OA
ATOM     50   O  IDS C   3     145.377  36.490  40.5630  0.00  0.00     0.000 OA
ATOM     51   O  IDS C   3     145.103  34.269  41.4530  0.00  0.00     0.000 OA
ENDBRANCH 40 47
BRANCH 43 52
ATOM     52   C  IDS C   3     141.280  34.189  35.5290  0.00  0.00     0.000 C
ATOM     53   O  IDS C   3     141.283  33.510  34.5280  0.00  0.00     0.000 OA
ATOM     54   O  IDS C   3     140.865  35.320  35.4970  0.00  0.00     0.000 OA
ENDBRANCH 43 52
BRANCH 39 55
ATOM     55  O4  SGN C   4     140.731  32.979  39.5880  0.00  0.00     0.000 O
BRANCH 55 59
ATOM     56  C1  SGN C   4     139.730  33.251  43.6420  0.00  0.00     0.000 C
ATOM     57  C2  SGN C   4     139.987  31.838  43.0900  0.00  0.00     0.000 C
ATOM     58  C3  SGN C   4     140.713  31.904  41.7490  0.00  0.00     0.000 C
ATOM     59  C4  SGN C   4     139.990  32.846  40.7930  0.00  0.00     0.000 C
ATOM     60  C5  SGN C   4     139.841  34.209  41.4660  0.00  0.00     0.000 C
ATOM     61  O5  SGN C   4     139.063  34.037  42.6680  0.00  0.00     0.000 O
ATOM     62   O  SGN C   4     140.805  30.599  41.1930  0.00  0.00     0.000 O
ATOM     64  HD  SGN C   4     140.782  30.469  42.0490  0.00  0.00     0.000 HD
BRANCH 57 66
ATOM     64   N  SGN C   4     140.596  30.674  43.7540  0.00  0.00     0.000 N
ATOM     66  HD  SGN C   4     140.854  30.476  44.5570  0.00  0.00     0.000 HD
ATOM     66   S  SGN C   4     139.919  30.032  45.0490  0.00  0.00     0.000 S
ATOM     67   O  SGN C   4     140.760  28.979  45.4900  0.00  0.00     0.000 OA
ATOM     68   O  SGN C   4     139.616  31.103  45.9340  0.00  0.00     0.000 OA
ATOM     69   O  SGN C   4     138.580  29.434  44.5090  0.00  0.00     0.000 OA
ENDBRANCH 57 66
BRANCH 60 70
ATOM     70   C  SGN C   4     139.142  35.241  40.6070  0.00  0.00     0.000 C
ATOM     71   O  SGN C   4     137.086  38.149  41.7990  0.00  0.00     0.000 OA
ATOM     72   O  SGN C   4     139.371  38.185  41.0070  0.00  0.00     0.000 OA
ATOM     73   O  SGN C   4     138.286  36.073  41.4140  0.00  0.00     0.000 O
ATOM     74   S  SGN C   4     138.065  37.573  40.9070  0.00  0.00     0.000 S
ATOM     75   O  SGN C   4     137.595  37.438  39.5430  0.00  0.00     0.000 OA
ENDBRANCH 60 70
BRANCH 56 76
ATOM     76  O4  IDS C   5     140.375  34.091  44.4720  0.00  0.00     0.000 O
BRANCH 76 80
ATOM     77  C1  IDS C   5     143.970  35.904  45.1390  0.00  0.00     0.000 C
ATOM     78  C2  IDS C   5     143.990  34.382  45.2830  0.00  0.00     0.000 C
ATOM     79  C3  IDS C   5     142.773  33.785  44.6050  0.00  0.00     0.000 C
ATOM     80  C4  IDS C   5     141.511  34.227  45.3390  0.00  0.00     0.000 C
ATOM     81  C5  IDS C   5     141.670  35.686  45.7910  0.00  0.00     0.000 C
ATOM     82  O5  IDS C   5     142.629  36.363  44.9740  0.00  0.00     0.000 O
BRANCH 78 83
ATOM     83   O  IDS C   5     145.205  33.812  44.6540  0.00  0.00     0.000 O
ATOM     84   S  IDS C   5     146.316  33.116  45.5620  0.00  0.00     0.000 S
ATOM     85   O  IDS C   5     146.577  34.032  46.6400  0.00  0.00     0.000 OA
ATOM     86   O  IDS C   5     145.721  31.875  46.0030  0.00  0.00     0.000 OA
ATOM     87   O  IDS C   5     147.454  32.911  44.6990  0.00  0.00     0.000 OA
ENDBRANCH 78 83
BRANCH 81 88
ATOM     88   C  IDS C   5     140.382  36.488  45.7450  0.00  0.00     0.000 C
ATOM     89   O  IDS C   5     140.143  37.183  44.7940  0.00  0.00     0.000 OA
ATOM     90   O  IDS C   5     139.602  36.421  46.6670  0.00  0.00     0.000 OA
ENDBRANCH 81 88
ENDBRANCH 76 80
ENDBRANCH 56 76
ENDBRANCH 55 59
ENDBRANCH 39 55
ENDBRANCH 38 42
ENDBRANCH 18 38
ENDBRANCH 17 21
ENDBRANCH 1 17
TORSDOF 18
ENDMDL
MODEL 44
REMARK VINA RESULT:      -5.7     10.105     17.466
ROOT
ATOM      1  C1  IDS C   1     173.591  36.815  55.2790  0.00  0.00     0.000 C
ATOM      2  C2  IDS C   1     175.064  37.141  55.5400  0.00  0.00     0.000 C
ATOM      3  C3  IDS C   1     175.430  36.862  56.9910  0.00  0.00     0.000 C
ATOM      4  C4  IDS C   1     174.560  37.683  57.9320  0.00  0.00     0.000 C
ATOM      5  C5  IDS C   1     173.129  37.740  57.4060  0.00  0.00     0.000 C
ATOM      6  O5  IDS C   1     172.893  36.656  56.5080  0.00  0.00     0.000 O
ATOM      7   O  IDS C   1     176.814  37.169  57.2100  0.00  0.00     0.000 O
ATOM      9  HD  IDS C   1     177.257  36.950  56.4990  0.00  0.00     0.000 HD
ENDROOT
BRANCH 2 9
ATOM      9   O  IDS C   1     175.946  36.310  54.6900  0.00  0.00     0.000 O
ATOM     10   S  IDS C   1     177.046  37.016  53.7760  0.00  0.00     0.000 S
ATOM     11   O  IDS C   1     177.739  35.947  53.0920  0.00  0.00     0.000 OA
ATOM     12   O  IDS C   1     176.308  37.878  52.8750  0.00  0.00     0.000 OA
ATOM     13   O  IDS C   1     177.901  37.749  54.6830  0.00  0.00     0.000 OA
ENDBRANCH 2 9
BRANCH 5 14
ATOM     14   C  IDS C   1     172.104  37.670  58.5250  0.00  0.00     0.000 C
ATOM     15   O  IDS C   1     171.019  37.189  58.3070  0.00  0.00     0.000 OA
ATOM     16   O  IDS C   1     172.385  38.100  59.6310  0.00  0.00     0.000 OA
ENDBRANCH 5 14
BRANCH 1 17
ATOM     17  O4  SGN C   2     173.170  36.174  54.1850  0.00  0.00     0.000 O
BRANCH 17 21
ATOM     18  C1  SGN C   2     171.551  32.961  52.0460  0.00  0.00     0.000 C
ATOM     19  C2  SGN C   2     171.329  32.957  53.5640  0.00  0.00     0.000 C
ATOM     20  C3  SGN C   2     171.590  34.358  54.1300  0.00  0.00     0.000 C
ATOM     21  C4  SGN C   2     172.970  34.847  53.7070  0.00  0.00     0.000 C
ATOM     22  C5  SGN C   2     173.066  34.809  52.1840  0.00  0.00     0.000 C
ATOM     23  O5  SGN C   2     172.827  33.463  51.7120  0.00  0.00     0.000 O
ATOM     24   O  SGN C   2     171.471  34.337  55.5430  0.00  0.00     0.000 O
ATOM     26  HD  SGN C   2     171.366  34.650  54.7420  0.00  0.00     0.000 HD
BRANCH 19 28
ATOM     26   N  SGN C   2     170.247  31.973  53.7020  0.00  0.00     0.000 N
ATOM     28  HD  SGN C   2     170.760  31.630  53.0940  0.00  0.00     0.000 HD
ATOM     28   O  SGN C   2     168.574  30.826  55.1540  0.00  0.00     0.000 OA
ATOM     29   S  SGN C   2     170.119  31.011  54.9840  0.00  0.00     0.000 S
ATOM     30   O  SGN C   2     170.687  29.764  54.6390  0.00  0.00     0.000 OA
ATOM     31   O  SGN C   2     170.618  31.723  56.1090  0.00  0.00     0.000 OA
ENDBRANCH 19 28
BRANCH 22 32
ATOM     32   C  SGN C   2     174.420  35.221  51.6590  0.00  0.00     0.000 C
ATOM     33   S  SGN C   2     175.716  35.226  49.4320  0.00  0.00     0.000 S
ATOM     34   O  SGN C   2     175.993  33.814  49.5110  0.00  0.00     0.000 OA
ATOM     35   O  SGN C   2     175.416  35.685  48.0920  0.00  0.00     0.000 OA
ATOM     36   O  SGN C   2     176.677  36.054  50.1220  0.00  0.00     0.000 OA
ATOM     37   O  SGN C   2     174.351  35.405  50.2400  0.00  0.00     0.000 O
ENDBRANCH 22 32
BRANCH 18 38
ATOM     38  O4  IDS C   3     170.763  33.398  51.0610  0.00  0.00     0.000 O
BRANCH 38 42
ATOM     39  C1  IDS C   3     167.489  33.991  50.0320  0.00  0.00     0.000 C
ATOM     40  C2  IDS C   3     167.824  32.824  50.9740  0.00  0.00     0.000 C
ATOM     41  C3  IDS C   3     168.945  31.957  50.4030  0.00  0.00     0.000 C
ATOM     42  C4  IDS C   3     170.114  32.809  49.9290  0.00  0.00     0.000 C
ATOM     43  C5  IDS C   3     169.607  33.908  48.9870  0.00  0.00     0.000 C
ATOM     44  O5  IDS C   3     168.656  34.715  49.6800  0.00  0.00     0.000 O
ATOM     45   O  IDS C   3     168.437  31.185  49.3130  0.00  0.00     0.000 O
ATOM     47  HD  IDS C   3     168.028  31.368  48.5720  0.00  0.00     0.000 HD
BRANCH 40 47
ATOM     47   O  IDS C   3     168.280  33.331  52.2900  0.00  0.00     0.000 O
ATOM     48   S  IDS C   3     167.238  34.039  53.2750  0.00  0.00     0.000 S
ATOM     49   O  IDS C   3     167.036  35.372  52.7490  0.00  0.00     0.000 OA
ATOM     50   O  IDS C   3     167.883  34.047  54.5700  0.00  0.00     0.000 OA
ATOM     51   O  IDS C   3     166.042  33.240  53.2440  0.00  0.00     0.000 OA
ENDBRANCH 40 47
BRANCH 43 52
ATOM     52   C  IDS C   3     170.720  34.781  48.4520  0.00  0.00     0.000 C
ATOM     53   O  IDS C   3     170.640  35.984  48.5450  0.00  0.00     0.000 OA
ATOM     54   O  IDS C   3     171.682  34.272  47.9350  0.00  0.00     0.000 OA
ENDBRANCH 43 52
BRANCH 39 55
ATOM     55  O4  SGN C   4     166.581  33.918  49.0590  0.00  0.00     0.000 O
BRANCH 55 59
ATOM     56  C1  SGN C   4     163.038  32.387  47.4440  0.00  0.00     0.000 C
ATOM     57  C2  SGN C   4     163.034  32.683  48.9540  0.00  0.00     0.000 C
ATOM     58  C3  SGN C   4     164.207  33.584  49.3320  0.00  0.00     0.000 C
ATOM     59  C4  SGN C   4     165.515  33.018  48.7910  0.00  0.00     0.000 C
ATOM     60  C5  SGN C   4     165.374  32.811  47.2840  0.00  0.00     0.000 C
ATOM     61  O5  SGN C   4     164.302  31.875  47.0540  0.00  0.00     0.000 O
ATOM     62   O  SGN C   4     164.266  33.720  50.7450  0.00  0.00     0.000 O
ATOM     64  HD  SGN C   4     163.428  33.579  50.5760  0.00  0.00     0.000 HD
BRANCH 57 66
ATOM     64   N  SGN C   4     161.582  32.562  48.7470  0.00  0.00     0.000 N
ATOM     66  HD  SGN C   4     160.967  31.985  48.9470  0.00  0.00     0.000 HD
ATOM     66   S  SGN C   4     160.604  32.311  49.9840  0.00  0.00     0.000 S
ATOM     67   O  SGN C   4     159.291  32.179  49.4670  0.00  0.00     0.000 OA
ATOM     68   O  SGN C   4     161.165  31.250  50.7480  0.00  0.00     0.000 OA
ATOM     69   O  SGN C   4     160.706  33.632  50.8110  0.00  0.00     0.000 OA
ENDBRANCH 57 66
BRANCH 60 70
ATOM     70   C  SGN C   4     166.619  32.258  46.6250  0.00  0.00     0.000 C
ATOM     71   O  SGN C   4     167.291  28.676  45.7200  0.00  0.00     0.000 OA
ATOM     72   O  SGN C   4     166.599  30.464  44.2460  0.00  0.00     0.000 OA
ATOM     73   O  SGN C   4     166.596  30.818  46.6290  0.00  0.00     0.000 O
ATOM     74   S  SGN C   4     167.350  30.088  45.4230  0.00  0.00     0.000 S
ATOM     75   O  SGN C   4     168.695  30.628  45.4460  0.00  0.00     0.000 OA
ENDBRANCH 60 70
BRANCH 56 76
ATOM     76  O4  IDS C   5     162.466  32.933  46.3550  0.00  0.00     0.000 O
BRANCH 76 80
ATOM     77  C1  IDS C   5     161.026  34.629  42.9340  0.00  0.00     0.000 C
ATOM     78  C2  IDS C   5     162.550  34.625  43.0470  0.00  0.00     0.000 C
ATOM     79  C3  IDS C   5     162.986  33.615  44.0900  0.00  0.00     0.000 C
ATOM     80  C4  IDS C   5     162.497  34.059  45.4660  0.00  0.00     0.000 C
ATOM     81  C5  IDS C   5     161.097  34.676  45.3340  0.00  0.00     0.000 C
ATOM     82  O5  IDS C   5     160.442  34.188  44.1590  0.00  0.00     0.000 O
BRANCH 78 83
ATOM     83   O  IDS C   5     163.170  34.258  41.7520  0.00  0.00     0.000 O
ATOM     84   S  IDS C   5     164.101  35.307  40.9930  0.00  0.00     0.000 S
ATOM     85   O  IDS C   5     163.368  36.545  40.9730  0.00  0.00     0.000 OA
ATOM     86   O  IDS C   5     165.311  35.377  41.7790  0.00  0.00     0.000 OA
ATOM     87   O  IDS C   5     164.323  34.755  39.6790  0.00  0.00     0.000 OA
ENDBRANCH 78 83
BRANCH 81 88
ATOM     88   C  IDS C   5     160.187  34.397  46.5150  0.00  0.00     0.000 C
ATOM     89   O  IDS C   5     159.439  33.456  46.4860  0.00  0.00     0.000 OA
ATOM     90   O  IDS C   5     160.220  35.123  47.4820  0.00  0.00     0.000 OA
ENDBRANCH 81 88
ENDBRANCH 76 80
ENDBRANCH 56 76
ENDBRANCH 55 59
ENDBRANCH 39 55
ENDBRANCH 38 42
ENDBRANCH 18 38
ENDBRANCH 17 21
ENDBRANCH 1 17
TORSDOF 18
ENDMDL
MODEL 45
REMARK VINA RESULT:      -5.7      7.448     14.608
ROOT
ATOM      1  C1  IDS C   1     149.050  35.388  34.0580  0.00  0.00     0.000 C
ATOM      2  C2  IDS C   1     149.686  36.374  33.0740  0.00  0.00     0.000 C
ATOM      3  C3  IDS C   1     149.397  35.966  31.6370  0.00  0.00     0.000 C
ATOM      4  C4  IDS C   1     149.928  34.567  31.3590  0.00  0.00     0.000 C
ATOM      5  C5  IDS C   1     149.691  33.667  32.5680  0.00  0.00     0.000 C
ATOM      6  O5  IDS C   1     148.648  34.204  33.3820  0.00  0.00     0.000 O
ATOM      7   O  IDS C   1     149.998  36.906  30.7350  0.00  0.00     0.000 O
ATOM      9  HD  IDS C   1     149.937  37.696  31.0850  0.00  0.00     0.000 HD
ENDROOT
BRANCH 2 9
ATOM      9   O  IDS C   1     149.142  37.737  33.2680  0.00  0.00     0.000 O
ATOM     10   S  IDS C   1     150.135  38.934  33.6210  0.00  0.00     0.000 S
ATOM     11   O  IDS C   1     149.308  40.116  33.7310  0.00  0.00     0.000 OA
ATOM     12   O  IDS C   1     150.760  38.565  34.8750  0.00  0.00     0.000 OA
ATOM     13   O  IDS C   1     151.072  39.006  32.5230  0.00  0.00     0.000 OA
ENDBRANCH 2 9
BRANCH 5 14
ATOM     14   C  IDS C   1     149.309  32.254  32.1640  0.00  0.00     0.000 C
ATOM     15   O  IDS C   1     149.848  31.741  31.2140  0.00  0.00     0.000 OA
ATOM     16   O  IDS C   1     148.460  31.651  32.8010  0.00  0.00     0.000 OA
ENDBRANCH 5 14
BRANCH 1 17
ATOM     17  O4  SGN C   2     148.408  35.775  35.1640  0.00  0.00     0.000 O
BRANCH 17 21
ATOM     18  C1  SGN C   2     145.038  37.111  37.2580  0.00  0.00     0.000 C
ATOM     19  C2  SGN C   2     144.821  36.706  35.7940  0.00  0.00     0.000 C
ATOM     20  C3  SGN C   2     146.006  35.862  35.3080  0.00  0.00     0.000 C
ATOM     21  C4  SGN C   2     147.315  36.600  35.5590  0.00  0.00     0.000 C
ATOM     22  C5  SGN C   2     147.417  36.943  37.0430  0.00  0.00     0.000 C
ATOM     23  O5  SGN C   2     146.284  37.752  37.4360  0.00  0.00     0.000 O
ATOM     24   O  SGN C   2     145.850  35.559  33.9320  0.00  0.00     0.000 O
ATOM     26  HD  SGN C   2     146.043  35.404  34.7620  0.00  0.00     0.000 HD
BRANCH 19 28
ATOM     26   N  SGN C   2     143.404  36.319  35.7750  0.00  0.00     0.000 N
ATOM     28  HD  SGN C   2     143.492  36.740  36.5260  0.00  0.00     0.000 HD
ATOM     28   O  SGN C   2     141.325  35.885  34.4670  0.00  0.00     0.000 OA
ATOM     29   S  SGN C   2     142.331  37.033  34.8140  0.00  0.00     0.000 S
ATOM     30   O  SGN C   2     141.656  38.009  35.5810  0.00  0.00     0.000 OA
ATOM     31   O  SGN C   2     143.007  37.419  33.6240  0.00  0.00     0.000 OA
ENDBRANCH 19 28
BRANCH 22 32
ATOM     32   C  SGN C   2     148.656  37.731  37.3910  0.00  0.00     0.000 C
ATOM     33   S  SGN C   2     149.498  39.292  39.2610  0.00  0.00     0.000 S
ATOM     34   O  SGN C   2     148.727  40.407  38.7710  0.00  0.00     0.000 OA
ATOM     35   O  SGN C   2     149.541  39.205  40.7050  0.00  0.00     0.000 OA
ATOM     36   O  SGN C   2     150.794  39.155  38.6380  0.00  0.00     0.000 OA
ATOM     37   O  SGN C   2     148.672  38.008  38.7970  0.00  0.00     0.000 O
ENDBRANCH 22 32
BRANCH 18 38
ATOM     38  O4  IDS C   3     144.870  36.409  38.3800  0.00  0.00     0.000 O
BRANCH 38 42
ATOM     39  C1  IDS C   3     144.840  35.195  41.6440  0.00  0.00     0.000 C
ATOM     40  C2  IDS C   3     145.224  34.287  40.4650  0.00  0.00     0.000 C
ATOM     41  C3  IDS C   3     144.160  34.327  39.3680  0.00  0.00     0.000 C
ATOM     42  C4  IDS C   3     143.772  35.759  39.0290  0.00  0.00     0.000 C
ATOM     43  C5  IDS C   3     143.401  36.514  40.3120  0.00  0.00     0.000 C
ATOM     44  O5  IDS C   3     144.518  36.502  41.1990  0.00  0.00     0.000 O
ATOM     45   O  IDS C   3     143.007  33.603  39.8000  0.00  0.00     0.000 O
ATOM     47  HD  IDS C   3     142.481  33.644  40.4880  0.00  0.00     0.000 HD
BRANCH 40 47
ATOM     47   O  IDS C   3     146.503  34.730  39.8610  0.00  0.00     0.000 O
ATOM     48   S  IDS C   3     147.843  34.709  40.7330  0.00  0.00     0.000 S
ATOM     49   O  IDS C   3     147.770  35.863  41.6030  0.00  0.00     0.000 OA
ATOM     50   O  IDS C   3     148.922  34.807  39.7740  0.00  0.00     0.000 OA
ATOM     51   O  IDS C   3     147.839  33.465  41.4550  0.00  0.00     0.000 OA
ENDBRANCH 40 47
BRANCH 43 52
ATOM     52   C  IDS C   3     142.976  37.942  40.0490  0.00  0.00     0.000 C
ATOM     53   O  IDS C   3     142.216  38.187  39.1410  0.00  0.00     0.000 OA
ATOM     54   O  IDS C   3     143.397  38.828  40.7480  0.00  0.00     0.000 OA
ENDBRANCH 43 52
BRANCH 39 55
ATOM     55  O4  SGN C   4     144.121  34.785  42.6890  0.00  0.00     0.000 O
BRANCH 55 59
ATOM     56  C1  SGN C   4     146.052  35.113  46.3860  0.00  0.00     0.000 C
ATOM     57  C2  SGN C   4     146.209  33.774  45.6440  0.00  0.00     0.000 C
ATOM     58  C3  SGN C   4     145.810  33.917  44.1780  0.00  0.00     0.000 C
ATOM     59  C4  SGN C   4     144.434  34.562  44.0560  0.00  0.00     0.000 C
ATOM     60  C5  SGN C   4     144.445  35.890  44.8110  0.00  0.00     0.000 C
ATOM     61  O5  SGN C   4     144.741  35.621  46.1960  0.00  0.00     0.000 O
ATOM     62   O  SGN C   4     145.822  32.640  43.5550  0.00  0.00     0.000 O
ATOM     64  HD  SGN C   4     146.408  32.577  44.1900  0.00  0.00     0.000 HD
BRANCH 57 66
ATOM     64   N  SGN C   4     147.336  33.622  46.5800  0.00  0.00     0.000 N
ATOM     66  HD  SGN C   4     147.490  33.175  47.3050  0.00  0.00     0.000 HD
ATOM     66   S  SGN C   4     147.907  32.175  46.9330  0.00  0.00     0.000 S
ATOM     67   O  SGN C   4     148.934  32.346  47.8950  0.00  0.00     0.000 OA
ATOM     68   O  SGN C   4     146.790  31.350  47.2420  0.00  0.00     0.000 OA
ATOM     69   O  SGN C   4     148.533  31.685  45.5880  0.00  0.00     0.000 OA
ENDBRANCH 57 66
BRANCH 60 70
ATOM     70   C  SGN C   4     143.129  36.635  44.7550  0.00  0.00     0.000 C
ATOM     71   O  SGN C   4     139.977  35.788  46.6130  0.00  0.00     0.000 OA
ATOM     72   O  SGN C   4     141.593  37.503  47.1570  0.00  0.00     0.000 OA
ATOM     73   O  SGN C   4     142.100  35.893  45.4370  0.00  0.00     0.000 O
ATOM     74   S  SGN C   4     140.932  36.750  46.1150  0.00  0.00     0.000 S
ATOM     75   O  SGN C   4     140.413  37.579  45.0460  0.00  0.00     0.000 OA
ENDBRANCH 60 70
BRANCH 56 76
ATOM     76  O4  IDS C   5     146.854  36.155  46.6720  0.00  0.00     0.000 O
BRANCH 76 80
ATOM     77  C1  IDS C   5     149.025  39.548  47.3270  0.00  0.00     0.000 C
ATOM     78  C2  IDS C   5     147.982  39.667  46.2160  0.00  0.00     0.000 C
ATOM     79  C3  IDS C   5     146.963  38.552  46.3460  0.00  0.00     0.000 C
ATOM     80  C4  IDS C   5     147.642  37.208  46.0970  0.00  0.00     0.000 C
ATOM     81  C5  IDS C   5     149.047  37.226  46.7170  0.00  0.00     0.000 C
ATOM     82  O5  IDS C   5     149.120  38.194  47.7680  0.00  0.00     0.000 O
BRANCH 78 83
ATOM     83   O  IDS C   5     147.271  40.964  46.3020  0.00  0.00     0.000 O
ATOM     84   S  IDS C   5     147.458  42.049  45.1470  0.00  0.00     0.000 S
ATOM     85   O  IDS C   5     148.876  42.160  44.9350  0.00  0.00     0.000 OA
ATOM     86   O  IDS C   5     146.754  41.512  44.0060  0.00  0.00     0.000 OA
ATOM     87   O  IDS C   5     146.860  43.261  45.6500  0.00  0.00     0.000 OA
ENDBRANCH 78 83
BRANCH 81 88
ATOM     88   C  IDS C   5     149.483  35.891  47.2930  0.00  0.00     0.000 C
ATOM     89   O  IDS C   5     149.241  35.627  48.4400  0.00  0.00     0.000 OA
ATOM     90   O  IDS C   5     150.071  35.100  46.5920  0.00  0.00     0.000 OA
ENDBRANCH 81 88
ENDBRANCH 76 80
ENDBRANCH 56 76
ENDBRANCH 55 59
ENDBRANCH 39 55
ENDBRANCH 38 42
ENDBRANCH 18 38
ENDBRANCH 17 21
ENDBRANCH 1 17
TORSDOF 18
ENDMDL
MODEL 46
REMARK VINA RESULT:      -5.5      4.267      6.705
ROOT
ATOM      1  C1  IDS C   1     159.671  35.386  45.3460  0.00  0.00     0.000 C
ATOM      2  C2  IDS C   1     160.715  34.282  45.1550  0.00  0.00     0.000 C
ATOM      3  C3  IDS C   1     161.523  34.516  43.8870  0.00  0.00     0.000 C
ATOM      4  C4  IDS C   1     160.610  34.559  42.6690  0.00  0.00     0.000 C
ATOM      5  C5  IDS C   1     159.319  35.297  43.0090  0.00  0.00     0.000 C
ATOM      6  O5  IDS C   1     159.517  36.135  44.1470  0.00  0.00     0.000 O
ATOM      7   O  IDS C   1     162.496  33.473  43.7330  0.00  0.00     0.000 O
ATOM      9  HD  IDS C   1     162.791  33.258  44.5180  0.00  0.00     0.000 HD
ENDROOT
BRANCH 2 9
ATOM      9   O  IDS C   1     161.664  34.254  46.2910  0.00  0.00     0.000 O
ATOM     10   S  IDS C   1     161.796  32.930  47.1690  0.00  0.00     0.000 S
ATOM     11   O  IDS C   1     162.798  33.217  48.1710  0.00  0.00     0.000 OA
ATOM     12   O  IDS C   1     160.481  32.705  47.7350  0.00  0.00     0.000 OA
ATOM     13   O  IDS C   1     162.201  31.887  46.2530  0.00  0.00     0.000 OA
ENDBRANCH 2 9
BRANCH 5 14
ATOM     14   C  IDS C   1     158.830  36.157  41.8560  0.00  0.00     0.000 C
ATOM     15   O  IDS C   1     158.238  37.182  42.0900  0.00  0.00     0.000 OA
ATOM     16   O  IDS C   1     159.037  35.805  40.7070  0.00  0.00     0.000 OA
ENDBRANCH 5 14
BRANCH 1 17
ATOM     17  O4  SGN C   2     159.425  35.960  46.5270  0.00  0.00     0.000 O
BRANCH 17 21
ATOM     18  C1  SGN C   2     160.209  38.794  49.5070  0.00  0.00     0.000 C
ATOM     19  C2  SGN C   2     161.054  38.888  48.2300  0.00  0.00     0.000 C
ATOM     20  C3  SGN C   2     160.383  38.093  47.1030  0.00  0.00     0.000 C
ATOM     21  C4  SGN C   2     160.108  36.665  47.5610  0.00  0.00     0.000 C
ATOM     22  C5  SGN C   2     159.260  36.703  48.8290  0.00  0.00     0.000 C
ATOM     23  O5  SGN C   2     159.950  37.450  49.8560  0.00  0.00     0.000 O
ATOM     24   O  SGN C   2     161.205  38.106  45.9480  0.00  0.00     0.000 O
ATOM     26  HD  SGN C   2     160.465  38.149  46.3960  0.00  0.00     0.000 HD
BRANCH 19 28
ATOM     26   N  SGN C   2     161.640  40.229  48.3570  0.00  0.00     0.000 N
ATOM     28  HD  SGN C   2     161.709  39.899  49.1540  0.00  0.00     0.000 HD
ATOM     28   O  SGN C   2     162.929  42.104  47.3320  0.00  0.00     0.000 OA
ATOM     29   S  SGN C   2     163.079  40.600  47.7410  0.00  0.00     0.000 S
ATOM     30   O  SGN C   2     164.025  40.508  48.7850  0.00  0.00     0.000 OA
ATOM     31   O  SGN C   2     163.256  39.825  46.5620  0.00  0.00     0.000 OA
ENDBRANCH 19 28
BRANCH 22 32
ATOM     32   C  SGN C   2     158.976  35.336  49.4000  0.00  0.00     0.000 C
ATOM     33   S  SGN C   2     157.935  34.297  51.5170  0.00  0.00     0.000 S
ATOM     34   O  SGN C   2     159.108  34.568  52.3100  0.00  0.00     0.000 OA
ATOM     35   O  SGN C   2     156.691  34.498  52.2310  0.00  0.00     0.000 OA
ATOM     36   O  SGN C   2     157.988  33.048  50.7940  0.00  0.00     0.000 OA
ATOM     37   O  SGN C   2     157.949  35.432  50.3940  0.00  0.00     0.000 O
ENDBRANCH 22 32
BRANCH 18 38
ATOM     38  O4  IDS C   3     159.092  39.439  49.8500  0.00  0.00     0.000 O
BRANCH 38 42
ATOM     39  C1  IDS C   3     157.028  42.223  50.1940  0.00  0.00     0.000 C
ATOM     40  C2  IDS C   3     158.550  42.339  50.3730  0.00  0.00     0.000 C
ATOM     41  C3  IDS C   3     159.069  41.308  51.3740  0.00  0.00     0.000 C
ATOM     42  C4  IDS C   3     158.520  39.921  51.0710  0.00  0.00     0.000 C
ATOM     43  C5  IDS C   3     156.993  39.983  50.9450  0.00  0.00     0.000 C
ATOM     44  O5  IDS C   3     156.648  40.889  49.8990  0.00  0.00     0.000 O
ATOM     45   O  IDS C   3     158.690  41.699  52.6950  0.00  0.00     0.000 O
ATOM     47  HD  IDS C   3     157.941  41.890  53.0860  0.00  0.00     0.000 HD
BRANCH 40 47
ATOM     47   O  IDS C   3     159.245  42.098  49.0860  0.00  0.00     0.000 O
ATOM     48   S  IDS C   3     158.964  43.058  47.8380  0.00  0.00     0.000 S
ATOM     49   O  IDS C   3     157.681  42.651  47.3050  0.00  0.00     0.000 OA
ATOM     50   O  IDS C   3     160.050  42.810  46.9150  0.00  0.00     0.000 OA
ATOM     51   O  IDS C   3     158.953  44.401  48.3520  0.00  0.00     0.000 OA
ENDBRANCH 40 47
BRANCH 43 52
ATOM     52   C  IDS C   3     156.373  38.631  50.6710  0.00  0.00     0.000 C
ATOM     53   O  IDS C   3     155.849  38.014  51.5700  0.00  0.00     0.000 OA
ATOM     54   O  IDS C   3     156.403  38.175  49.5560  0.00  0.00     0.000 OA
ENDBRANCH 43 52
BRANCH 39 55
ATOM     55  O4  SGN C   4     156.144  42.888  50.9380  0.00  0.00     0.000 O
BRANCH 55 59
ATOM     56  C1  SGN C   4     152.336  43.637  49.3750  0.00  0.00     0.000 C
ATOM     57  C2  SGN C   4     153.497  44.449  48.7760  0.00  0.00     0.000 C
ATOM     58  C3  SGN C   4     154.841  43.818  49.1330  0.00  0.00     0.000 C
ATOM     59  C4  SGN C   4     154.936  43.570  50.6340  0.00  0.00     0.000 C
ATOM     60  C5  SGN C   4     153.738  42.727  51.0690  0.00  0.00     0.000 C
ATOM     61  O5  SGN C   4     152.535  43.462  50.7680  0.00  0.00     0.000 O
ATOM     62   O  SGN C   4     155.895  44.665  48.6970  0.00  0.00     0.000 O
ATOM     64  HD  SGN C   4     155.245  44.830  48.1500  0.00  0.00     0.000 HD
BRANCH 57 66
ATOM     64   N  SGN C   4     152.574  45.468  48.2520  0.00  0.00     0.000 N
ATOM     66  HD  SGN C   4     152.648  46.223  47.8340  0.00  0.00     0.000 HD
ATOM     66   S  SGN C   4     152.657  45.931  46.7270  0.00  0.00     0.000 S
ATOM     67   O  SGN C   4     151.694  46.954  46.5400  0.00  0.00     0.000 OA
ATOM     68   O  SGN C   4     154.025  46.199  46.4470  0.00  0.00     0.000 OA
ATOM     69   O  SGN C   4     152.223  44.659  45.9300  0.00  0.00     0.000 OA
ENDBRANCH 57 66
BRANCH 60 70
ATOM     70   C  SGN C   4     153.724  42.403  52.5470  0.00  0.00     0.000 C
ATOM     71   O  SGN C   4     155.060  39.300  54.1890  0.00  0.00     0.000 OA
ATOM     72   O  SGN C   4     156.106  41.478  54.0820  0.00  0.00     0.000 OA
ATOM     73   O  SGN C   4     154.134  41.040  52.7690  0.00  0.00     0.000 O
ATOM     74   S  SGN C   4     154.870  40.732  54.1550  0.00  0.00     0.000 S
ATOM     75   O  SGN C   4     153.961  41.219  55.1740  0.00  0.00     0.000 OA
ENDBRANCH 60 70
BRANCH 56 76
ATOM     76  O4  IDS C   5     151.541  42.639  48.9490  0.00  0.00     0.000 O
BRANCH 76 80
ATOM     77  C1  IDS C   5     152.881  38.784  48.8820  0.00  0.00     0.000 C
ATOM     78  C2  IDS C   5     153.032  39.532  47.5570  0.00  0.00     0.000 C
ATOM     79  C3  IDS C   5     152.930  41.025  47.7940  0.00  0.00     0.000 C
ATOM     80  C4  IDS C   5     151.524  41.371  48.2760  0.00  0.00     0.000 C
ATOM     81  C5  IDS C   5     151.025  40.269  49.2210  0.00  0.00     0.000 C
ATOM     82  O5  IDS C   5     152.128  39.570  49.8050  0.00  0.00     0.000 O
BRANCH 78 83
ATOM     83   O  IDS C   5     154.348  39.244  46.9400  0.00  0.00     0.000 O
ATOM     84   S  IDS C   5     154.480  39.167  45.3520  0.00  0.00     0.000 S
ATOM     85   O  IDS C   5     153.414  38.309  44.9080  0.00  0.00     0.000 OA
ATOM     86   O  IDS C   5     154.340  40.529  44.8940  0.00  0.00     0.000 OA
ATOM     87   O  IDS C   5     155.792  38.625  45.0950  0.00  0.00     0.000 OA
ENDBRANCH 78 83
BRANCH 81 88
ATOM     88   C  IDS C   5     150.154  40.778  50.3550  0.00  0.00     0.000 C
ATOM     89   O  IDS C   5     150.638  40.984  51.4360  0.00  0.00     0.000 OA
ATOM     90   O  IDS C   5     148.976  40.975  50.1630  0.00  0.00     0.000 OA
ENDBRANCH 81 88
ENDBRANCH 76 80
ENDBRANCH 56 76
ENDBRANCH 55 59
ENDBRANCH 39 55
ENDBRANCH 38 42
ENDBRANCH 18 38
ENDBRANCH 17 21
ENDBRANCH 1 17
TORSDOF 18
ENDMDL
MODEL 47
REMARK VINA RESULT:      -5.4      5.098      8.995
ROOT
ATOM      1  C1  IDS C   1     152.883  44.785  53.6650  0.00  0.00     0.000 C
ATOM      2  C2  IDS C   1     153.522  44.603  55.0440  0.00  0.00     0.000 C
ATOM      3  C3  IDS C   1     152.761  45.392  56.1000  0.00  0.00     0.000 C
ATOM      4  C4  IDS C   1     152.736  46.874  55.7490  0.00  0.00     0.000 C
ATOM      5  C5  IDS C   1     152.547  47.052  54.2460  0.00  0.00     0.000 C
ATOM      6  O5  IDS C   1     151.970  45.875  53.6800  0.00  0.00     0.000 O
ATOM      7   O  IDS C   1     153.375  45.203  57.3830  0.00  0.00     0.000 O
ATOM      9  HD  IDS C   1     153.657  44.386  57.4320  0.00  0.00     0.000 HD
ENDROOT
BRANCH 2 9
ATOM      9   O  IDS C   1     153.502  43.180  55.4510  0.00  0.00     0.000 O
ATOM     10   S  IDS C   1     154.865  42.466  55.8700  0.00  0.00     0.000 S
ATOM     11   O  IDS C   1     154.510  41.109  56.2200  0.00  0.00     0.000 OA
ATOM     12   O  IDS C   1     155.720  42.543  54.7030  0.00  0.00     0.000 OA
ATOM     13   O  IDS C   1     155.376  43.220  56.9940  0.00  0.00     0.000 OA
ENDBRANCH 2 9
BRANCH 5 14
ATOM     14   C  IDS C   1     151.650  48.233  53.9170  0.00  0.00     0.000 C
ATOM     15   O  IDS C   1     150.591  48.041  53.3720  0.00  0.00     0.000 OA
ATOM     16   O  IDS C   1     152.008  49.363  54.2040  0.00  0.00     0.000 OA
ENDBRANCH 5 14
BRANCH 1 17
ATOM     17  O4  SGN C   2     152.701  43.775  52.8080  0.00  0.00     0.000 O
BRANCH 17 21
ATOM     18  C1  SGN C   2     150.439  40.942  50.7150  0.00  0.00     0.000 C
ATOM     19  C2  SGN C   2     149.662  42.083  51.3840  0.00  0.00     0.000 C
ATOM     20  C3  SGN C   2     150.619  43.231  51.7280  0.00  0.00     0.000 C
ATOM     21  C4  SGN C   2     151.789  42.710  52.5540  0.00  0.00     0.000 C
ATOM     22  C5  SGN C   2     152.481  41.588  51.7850  0.00  0.00     0.000 C
ATOM     23  O5  SGN C   2     151.534  40.531  51.5060  0.00  0.00     0.000 O
ATOM     24   O  SGN C   2     149.920  44.250  52.4240  0.00  0.00     0.000 O
ATOM     26  HD  SGN C   2     150.477  43.921  51.8480  0.00  0.00     0.000 HD
BRANCH 19 28
ATOM     26   N  SGN C   2     148.354  41.982  50.7230  0.00  0.00     0.000 N
ATOM     28  HD  SGN C   2     148.572  41.157  50.8750  0.00  0.00     0.000 HD
ATOM     28   O  SGN C   2     146.090  42.942  50.3060  0.00  0.00     0.000 OA
ATOM     29   S  SGN C   2     146.984  42.382  51.4630  0.00  0.00     0.000 S
ATOM     30   O  SGN C   2     146.399  41.191  51.9490  0.00  0.00     0.000 OA
ATOM     31   O  SGN C   2     147.274  43.441  52.3650  0.00  0.00     0.000 OA
ENDBRANCH 19 28
BRANCH 22 32
ATOM     32   C  SGN C   2     153.624  40.960  52.5440  0.00  0.00     0.000 C
ATOM     33   S  SGN C   2     154.414  38.616  53.2680  0.00  0.00     0.000 S
ATOM     34   O  SGN C   2     153.449  38.546  54.3360  0.00  0.00     0.000 OA
ATOM     35   O  SGN C   2     154.608  37.358  52.5760  0.00  0.00     0.000 OA
ATOM     36   O  SGN C   2     155.650  39.267  53.6320  0.00  0.00     0.000 OA
ATOM     37   O  SGN C   2     153.736  39.577  52.1880  0.00  0.00     0.000 O
ENDBRANCH 22 32
BRANCH 18 38
ATOM     38  O4  IDS C   3     150.879  40.819  49.4610  0.00  0.00     0.000 O
BRANCH 38 42
ATOM     39  C1  IDS C   3     151.710  39.683  46.2760  0.00  0.00     0.000 C
ATOM     40  C2  IDS C   3     152.702  40.515  47.1030  0.00  0.00     0.000 C
ATOM     41  C3  IDS C   3     152.058  41.807  47.6040  0.00  0.00     0.000 C
ATOM     42  C4  IDS C   3     150.699  41.537  48.2360  0.00  0.00     0.000 C
ATOM     43  C5  IDS C   3     149.832  40.717  47.2720  0.00  0.00     0.000 C
ATOM     44  O5  IDS C   3     150.494  39.488  46.9790  0.00  0.00     0.000 O
ATOM     45   O  IDS C   3     151.909  42.716  46.5120  0.00  0.00     0.000 O
ATOM     47  HD  IDS C   3     151.533  42.680  45.7320  0.00  0.00     0.000 HD
BRANCH 40 47
ATOM     47   O  IDS C   3     153.154  39.754  48.2920  0.00  0.00     0.000 O
ATOM     48   S  IDS C   3     153.907  38.355  48.1030  0.00  0.00     0.000 S
ATOM     49   O  IDS C   3     152.877  37.390  47.7850  0.00  0.00     0.000 OA
ATOM     50   O  IDS C   3     154.541  38.089  49.3750  0.00  0.00     0.000 OA
ATOM     51   O  IDS C   3     154.846  38.541  47.0290  0.00  0.00     0.000 OA
ENDBRANCH 40 47
BRANCH 43 52
ATOM     52   C  IDS C   3     148.453  40.432  47.8220  0.00  0.00     0.000 C
ATOM     53   O  IDS C   3     147.630  41.318  47.8760  0.00  0.00     0.000 OA
ATOM     54   O  IDS C   3     148.179  39.323  48.2050  0.00  0.00     0.000 OA
ENDBRANCH 43 52
BRANCH 39 55
ATOM     55  O4  SGN C   4     151.559  39.811  44.9570  0.00  0.00     0.000 O
BRANCH 55 59
ATOM     56  C1  SGN C   4     150.541  37.865  41.3960  0.00  0.00     0.000 C
ATOM     57  C2  SGN C   4     150.353  37.063  42.6950  0.00  0.00     0.000 C
ATOM     58  C3  SGN C   4     150.374  37.988  43.9100  0.00  0.00     0.000 C
ATOM     59  C4  SGN C   4     151.606  38.886  43.8800  0.00  0.00     0.000 C
ATOM     60  C5  SGN C   4     151.634  39.636  42.5500  0.00  0.00     0.000 C
ATOM     61  O5  SGN C   4     151.707  38.667  41.4860  0.00  0.00     0.000 O
ATOM     62   O  SGN C   4     150.348  37.211  45.1000  0.00  0.00     0.000 O
ATOM     64  HD  SGN C   4     149.940  36.722  44.5130  0.00  0.00     0.000 HD
BRANCH 57 66
ATOM     64   N  SGN C   4     149.373  36.279  41.9260  0.00  0.00     0.000 N
ATOM     66  HD  SGN C   4     149.387  35.558  41.4470  0.00  0.00     0.000 HD
ATOM     66   S  SGN C   4     149.189  34.718  42.1990  0.00  0.00     0.000 S
ATOM     67   O  SGN C   4     148.232  34.234  41.2730  0.00  0.00     0.000 OA
ATOM     68   O  SGN C   4     150.490  34.143  42.2240  0.00  0.00     0.000 OA
ATOM     69   O  SGN C   4     148.590  34.662  43.6410  0.00  0.00     0.000 OA
ENDBRANCH 57 66
BRANCH 60 70
ATOM     70   C  SGN C   4     152.813  40.573  42.4030  0.00  0.00     0.000 C
ATOM     71   O  SGN C   4     153.155  44.014  43.8690  0.00  0.00     0.000 OA
ATOM     72   O  SGN C   4     154.143  41.962  44.6800  0.00  0.00     0.000 OA
ATOM     73   O  SGN C   4     152.491  41.876  42.9280  0.00  0.00     0.000 O
ATOM     74   S  SGN C   4     153.706  42.722  43.5310  0.00  0.00     0.000 S
ATOM     75   O  SGN C   4     154.687  42.773  42.4650  0.00  0.00     0.000 OA
ENDBRANCH 60 70
BRANCH 56 76
ATOM     76  O4  IDS C   5     149.724  38.434  40.4900  0.00  0.00     0.000 O
BRANCH 76 80
ATOM     77  C1  IDS C   5     148.130  42.097  41.3280  0.00  0.00     0.000 C
ATOM     78  C2  IDS C   5     147.193  40.920  41.5990  0.00  0.00     0.000 C
ATOM     79  C3  IDS C   5     147.993  39.635  41.6840  0.00  0.00     0.000 C
ATOM     80  C4  IDS C   5     148.614  39.329  40.3250  0.00  0.00     0.000 C
ATOM     81  C5  IDS C   5     149.075  40.639  39.6700  0.00  0.00     0.000 C
ATOM     82  O5  IDS C   5     149.309  41.642  40.6630  0.00  0.00     0.000 O
BRANCH 78 83
ATOM     83   O  IDS C   5     146.473  41.109  42.8800  0.00  0.00     0.000 O
ATOM     84   S  IDS C   5     144.879  41.171  42.8920  0.00  0.00     0.000 S
ATOM     85   O  IDS C   5     144.511  42.102  41.8590  0.00  0.00     0.000 OA
ATOM     86   O  IDS C   5     144.446  39.820  42.6190  0.00  0.00     0.000 OA
ATOM     87   O  IDS C   5     144.514  41.615  44.2150  0.00  0.00     0.000 OA
ENDBRANCH 78 83
BRANCH 81 88
ATOM     88   C  IDS C   5     150.344  40.504  38.8480  0.00  0.00     0.000 C
ATOM     89   O  IDS C   5     151.348  41.062  39.2020  0.00  0.00     0.000 OA
ATOM     90   O  IDS C   5     150.337  39.834  37.8420  0.00  0.00     0.000 OA
ENDBRANCH 81 88
ENDBRANCH 76 80
ENDBRANCH 56 76
ENDBRANCH 55 59
ENDBRANCH 39 55
ENDBRANCH 38 42
ENDBRANCH 18 38
ENDBRANCH 17 21
ENDBRANCH 1 17
TORSDOF 18
ENDMDL
MODEL 48
REMARK VINA RESULT:      -5.3     13.331     18.939
ROOT
ATOM      1  C1  IDS C   1     143.894  33.621  30.5780  0.00  0.00     0.000 C
ATOM      2  C2  IDS C   1     145.203  33.642  29.7840  0.00  0.00     0.000 C
ATOM      3  C3  IDS C   1     145.159  34.706  28.6970  0.00  0.00     0.000 C
ATOM      4  C4  IDS C   1     143.998  34.453  27.7450  0.00  0.00     0.000 C
ATOM      5  C5  IDS C   1     142.777  33.975  28.5250  0.00  0.00     0.000 C
ATOM      6  O5  IDS C   1     142.888  34.358  29.8950  0.00  0.00     0.000 O
ATOM      7   O  IDS C   1     146.396  34.709  27.9710  0.00  0.00     0.000 O
ATOM      9  HD  IDS C   1     147.039  34.545  28.5280  0.00  0.00     0.000 HD
ENDROOT
BRANCH 2 9
ATOM      9   O  IDS C   1     146.350  33.953  30.6670  0.00  0.00     0.000 O
ATOM     10   S  IDS C   1     147.585  32.945  30.7330  0.00  0.00     0.000 S
ATOM     11   O  IDS C   1     148.527  33.532  31.6580  0.00  0.00     0.000 OA
ATOM     12   O  IDS C   1     147.038  31.689  31.2050  0.00  0.00     0.000 OA
ATOM     13   O  IDS C   1     148.099  32.863  29.3830  0.00  0.00     0.000 OA
ENDBRANCH 2 9
BRANCH 5 14
ATOM     14   C  IDS C   1     141.483  34.545  27.9690  0.00  0.00     0.000 C
ATOM     15   O  IDS C   1     140.427  34.148  28.3980  0.00  0.00     0.000 OA
ATOM     16   O  IDS C   1     141.522  35.395  27.0950  0.00  0.00     0.000 OA
ENDBRANCH 5 14
BRANCH 1 17
ATOM     17  O4  SGN C   2     143.852  33.510  31.9090  0.00  0.00     0.000 O
BRANCH 17 21
ATOM     18  C1  SGN C   2     143.639  35.030  35.8040  0.00  0.00     0.000 C
ATOM     19  C2  SGN C   2     143.383  36.024  34.6640  0.00  0.00     0.000 C
ATOM     20  C3  SGN C   2     143.076  35.261  33.3690  0.00  0.00     0.000 C
ATOM     21  C4  SGN C   2     144.184  34.255  33.0780  0.00  0.00     0.000 C
ATOM     22  C5  SGN C   2     144.340  33.325  34.2770  0.00  0.00     0.000 C
ATOM     23  O5  SGN C   2     144.643  34.099  35.4600  0.00  0.00     0.000 O
ATOM     24   O  SGN C   2     142.925  36.175  32.2960  0.00  0.00     0.000 O
ATOM     26  HD  SGN C   2     142.738  35.482  32.7810  0.00  0.00     0.000 HD
BRANCH 19 28
ATOM     26   N  SGN C   2     142.482  37.016  35.2670  0.00  0.00     0.000 N
ATOM     28  HD  SGN C   2     142.716  36.517  35.9350  0.00  0.00     0.000 HD
ATOM     28   O  SGN C   2     141.580  39.342  35.3000  0.00  0.00     0.000 OA
ATOM     29   S  SGN C   2     142.917  38.548  35.4880  0.00  0.00     0.000 S
ATOM     30   O  SGN C   2     143.337  38.682  36.8300  0.00  0.00     0.000 OA
ATOM     31   O  SGN C   2     143.806  38.901  34.4360  0.00  0.00     0.000 OA
ENDBRANCH 19 28
BRANCH 22 32
ATOM     32   C  SGN C   2     145.456  32.322  34.1150  0.00  0.00     0.000 C
ATOM     33   S  SGN C   2     146.465  30.321  35.3890  0.00  0.00     0.000 S
ATOM     34   O  SGN C   2     147.146  31.176  36.3290  0.00  0.00     0.000 OA
ATOM     35   O  SGN C   2     145.912  29.124  35.9870  0.00  0.00     0.000 OA
ATOM     36   O  SGN C   2     147.208  30.068  34.1770  0.00  0.00     0.000 OA
ATOM     37   O  SGN C   2     145.195  31.174  34.9310  0.00  0.00     0.000 O
ENDBRANCH 22 32
BRANCH 18 38
ATOM     38  O4  IDS C   3     142.780  34.323  36.5410  0.00  0.00     0.000 O
BRANCH 38 42
ATOM     39  C1  IDS C   3     140.622  32.894  38.8710  0.00  0.00     0.000 C
ATOM     40  C2  IDS C   3     142.063  32.383  38.7080  0.00  0.00     0.000 C
ATOM     41  C3  IDS C   3     142.371  32.054  37.2480  0.00  0.00     0.000 C
ATOM     42  C4  IDS C   3     141.938  33.186  36.3250  0.00  0.00     0.000 C
ATOM     43  C5  IDS C   3     140.476  33.555  36.6060  0.00  0.00     0.000 C
ATOM     44  O5  IDS C   3     140.350  33.954  37.9700  0.00  0.00     0.000 O
ATOM     45   O  IDS C   3     141.697  30.849  36.8820  0.00  0.00     0.000 O
ATOM     47  HD  IDS C   3     140.875  30.577  36.9020  0.00  0.00     0.000 HD
BRANCH 40 47
ATOM     47   O  IDS C   3     143.033  33.415  39.1460  0.00  0.00     0.000 O
ATOM     48   S  IDS C   3     143.275  33.668  40.7060  0.00  0.00     0.000 S
ATOM     49   O  IDS C   3     142.138  34.437  41.1650  0.00  0.00     0.000 OA
ATOM     50   O  IDS C   3     144.513  34.411  40.7840  0.00  0.00     0.000 OA
ATOM     51   O  IDS C   3     143.354  32.370  41.3220  0.00  0.00     0.000 OA
ENDBRANCH 40 47
BRANCH 43 52
ATOM     52   C  IDS C   3     139.967  34.657  35.7050  0.00  0.00     0.000 C
ATOM     53   O  IDS C   3     139.751  35.757  36.1600  0.00  0.00     0.000 OA
ATOM     54   O  IDS C   3     139.778  34.433  34.5360  0.00  0.00     0.000 OA
ENDBRANCH 43 52
BRANCH 39 55
ATOM     55  O4  SGN C   4     139.578  32.098  39.1020  0.00  0.00     0.000 O
BRANCH 55 59
ATOM     56  C1  SGN C   4     137.961  32.356  42.9520  0.00  0.00     0.000 C
ATOM     57  C2  SGN C   4     139.092  31.334  42.7490  0.00  0.00     0.000 C
ATOM     58  C3  SGN C   4     139.846  31.612  41.4510  0.00  0.00     0.000 C
ATOM     59  C4  SGN C   4     138.874  31.737  40.2820  0.00  0.00     0.000 C
ATOM     60  C5  SGN C   4     137.837  32.806  40.6180  0.00  0.00     0.000 C
ATOM     61  O5  SGN C   4     137.129  32.393  41.8030  0.00  0.00     0.000 O
ATOM     62   O  SGN C   4     140.784  30.571  41.2130  0.00  0.00     0.000 O
ATOM     64  HD  SGN C   4     140.702  30.597  42.0750  0.00  0.00     0.000 HD
BRANCH 57 66
ATOM     64   N  SGN C   4     139.860  30.311  43.4760  0.00  0.00     0.000 N
ATOM     66  HD  SGN C   4     140.434  30.303  44.1260  0.00  0.00     0.000 HD
ATOM     66   S  SGN C   4     139.788  30.221  45.0680  0.00  0.00     0.000 S
ATOM     67   O  SGN C   4     140.672  29.191  45.4760  0.00  0.00     0.000 OA
ATOM     68   O  SGN C   4     139.973  31.540  45.5680  0.00  0.00     0.000 OA
ATOM     69   O  SGN C   4     138.315  29.782  45.3480  0.00  0.00     0.000 OA
ENDBRANCH 57 66
BRANCH 60 70
ATOM     70   C  SGN C   4     136.816  33.031  39.5240  0.00  0.00     0.000 C
ATOM     71   O  SGN C   4     134.406  30.508  38.1340  0.00  0.00     0.000 OA
ATOM     72   O  SGN C   4     133.944  32.264  39.7310  0.00  0.00     0.000 OA
ATOM     73   O  SGN C   4     136.224  31.781  39.1210  0.00  0.00     0.000 O
ATOM     74   S  SGN C   4     134.719  31.844  38.5850  0.00  0.00     0.000 S
ATOM     75   O  SGN C   4     134.746  32.823  37.5170  0.00  0.00     0.000 OA
ENDBRANCH 60 70
BRANCH 56 76
ATOM     76  O4  IDS C   5     137.833  33.537  43.5850  0.00  0.00     0.000 O
BRANCH 76 80
ATOM     77  C1  IDS C   5     140.105  36.922  43.7720  0.00  0.00     0.000 C
ATOM     78  C2  IDS C   5     140.639  35.753  44.5980  0.00  0.00     0.000 C
ATOM     79  C3  IDS C   5     140.005  34.459  44.1280  0.00  0.00     0.000 C
ATOM     80  C4  IDS C   5     138.508  34.488  44.4220  0.00  0.00     0.000 C
ATOM     81  C5  IDS C   5     137.968  35.903  44.1700  0.00  0.00     0.000 C
ATOM     82  O5  IDS C   5     138.812  36.608  43.2550  0.00  0.00     0.000 O
BRANCH 78 83
ATOM     83   O  IDS C   5     142.109  35.636  44.4500  0.00  0.00     0.000 O
ATOM     84   S  IDS C   5     143.043  35.696  45.7420  0.00  0.00     0.000 S
ATOM     85   O  IDS C   5     142.610  36.846  46.4900  0.00  0.00     0.000 OA
ATOM     86   O  IDS C   5     142.814  34.449  46.4330  0.00  0.00     0.000 OA
ATOM     87   O  IDS C   5     144.392  35.816  45.2430  0.00  0.00     0.000 OA
ENDBRANCH 78 83
BRANCH 81 88
ATOM     88   C  IDS C   5     136.558  35.933  43.6090  0.00  0.00     0.000 C
ATOM     89   O  IDS C   5     136.384  36.139  42.4380  0.00  0.00     0.000 OA
ATOM     90   O  IDS C   5     135.616  35.748  44.3450  0.00  0.00     0.000 OA
ENDBRANCH 81 88
ENDBRANCH 76 80
ENDBRANCH 56 76
ENDBRANCH 55 59
ENDBRANCH 39 55
ENDBRANCH 38 42
ENDBRANCH 18 38
ENDBRANCH 17 21
ENDBRANCH 1 17
TORSDOF 18
ENDMDL
MODEL 49
REMARK VINA RESULT:      -5.2     12.352     17.698
ROOT
ATOM      1  C1  IDS C   1     145.942  35.039  37.6740  0.00  0.00     0.000 C
ATOM      2  C2  IDS C   1     147.034  34.192  37.0160  0.00  0.00     0.000 C
ATOM      3  C3  IDS C   1     148.400  34.525  37.5970  0.00  0.00     0.000 C
ATOM      4  C4  IDS C   1     148.722  36.000  37.4010  0.00  0.00     0.000 C
ATOM      5  C5  IDS C   1     147.470  36.843  37.6220  0.00  0.00     0.000 C
ATOM      6  O5  IDS C   1     146.520  36.116  38.4010  0.00  0.00     0.000 O
ATOM      7   O  IDS C   1     149.405  33.717  36.9680  0.00  0.00     0.000 O
ATOM      9  HD  IDS C   1     149.069  32.933  36.8180  0.00  0.00     0.000 HD
ENDROOT
BRANCH 2 9
ATOM      9   O  IDS C   1     146.792  32.750  37.2440  0.00  0.00     0.000 O
ATOM     10   S  IDS C   1     146.713  31.761  35.9950  0.00  0.00     0.000 S
ATOM     11   O  IDS C   1     146.484  30.444  36.5460  0.00  0.00     0.000 OA
ATOM     12   O  IDS C   1     145.605  32.236  35.1920  0.00  0.00     0.000 OA
ATOM     13   O  IDS C   1     147.987  31.874  35.3200  0.00  0.00     0.000 OA
ENDBRANCH 2 9
BRANCH 5 14
ATOM     14   C  IDS C   1     147.776  38.150  38.3330  0.00  0.00     0.000 C
ATOM     15   O  IDS C   1     148.151  38.128  39.4800  0.00  0.00     0.000 OA
ATOM     16   O  IDS C   1     147.639  39.208  37.7420  0.00  0.00     0.000 OA
ENDBRANCH 5 14
BRANCH 1 17
ATOM     17  O4  SGN C   2     144.760  34.540  38.0490  0.00  0.00     0.000 O
BRANCH 17 21
ATOM     18  C1  SGN C   2     142.137  32.618  40.6860  0.00  0.00     0.000 C
ATOM     19  C2  SGN C   2     143.480  33.079  41.2670  0.00  0.00     0.000 C
ATOM     20  C3  SGN C   2     144.125  34.109  40.3320  0.00  0.00     0.000 C
ATOM     21  C4  SGN C   2     144.221  33.547  38.9180  0.00  0.00     0.000 C
ATOM     22  C5  SGN C   2     142.829  33.131  38.4520  0.00  0.00     0.000 C
ATOM     23  O5  SGN C   2     142.282  32.149  39.3620  0.00  0.00     0.000 O
ATOM     24   O  SGN C   2     145.405  34.471  40.8220  0.00  0.00     0.000 O
ATOM     26  HD  SGN C   2     144.623  34.601  40.4720  0.00  0.00     0.000 HD
BRANCH 19 28
ATOM     26   N  SGN C   2     143.231  32.987  42.7120  0.00  0.00     0.000 N
ATOM     28  HD  SGN C   2     142.887  32.257  42.3970  0.00  0.00     0.000 HD
ATOM     28   O  SGN C   2     143.967  33.483  45.0430  0.00  0.00     0.000 OA
ATOM     29   S  SGN C   2     144.404  32.685  43.7690  0.00  0.00     0.000 S
ATOM     30   O  SGN C   2     144.365  31.304  44.0650  0.00  0.00     0.000 OA
ATOM     31   O  SGN C   2     145.601  33.261  43.2610  0.00  0.00     0.000 OA
ENDBRANCH 19 28
BRANCH 22 32
ATOM     32   C  SGN C   2     142.820  32.505  37.0790  0.00  0.00     0.000 C
ATOM     33   S  SGN C   2     141.122  31.888  35.2410  0.00  0.00     0.000 S
ATOM     34   O  SGN C   2     140.667  30.722  35.9560  0.00  0.00     0.000 OA
ATOM     35   O  SGN C   2     140.061  32.606  34.5660  0.00  0.00     0.000 OA
ATOM     36   O  SGN C   2     142.278  31.653  34.4080  0.00  0.00     0.000 OA
ATOM     37   O  SGN C   2     141.624  32.881  36.3850  0.00  0.00     0.000 O
ENDBRANCH 22 32
BRANCH 18 38
ATOM     38  O4  IDS C   3     140.946  33.220  40.6890  0.00  0.00     0.000 O
BRANCH 38 42
ATOM     39  C1  IDS C   3     138.299  35.402  41.2890  0.00  0.00     0.000 C
ATOM     40  C2  IDS C   3     139.192  34.906  42.4370  0.00  0.00     0.000 C
ATOM     41  C3  IDS C   3     139.295  33.381  42.4390  0.00  0.00     0.000 C
ATOM     42  C4  IDS C   3     139.610  32.849  41.0480  0.00  0.00     0.000 C
ATOM     43  C5  IDS C   3     138.616  33.425  40.0330  0.00  0.00     0.000 C
ATOM     44  O5  IDS C   3     138.706  34.849  40.0490  0.00  0.00     0.000 O
ATOM     45   O  IDS C   3     138.062  32.825  42.9010  0.00  0.00     0.000 O
ATOM     47  HD  IDS C   3     137.232  32.896  42.6640  0.00  0.00     0.000 HD
BRANCH 40 47
ATOM     47   O  IDS C   3     140.566  35.444  42.2970  0.00  0.00     0.000 O
ATOM     48   S  IDS C   3     141.326  36.030  43.5760  0.00  0.00     0.000 S
ATOM     49   O  IDS C   3     140.759  37.341  43.8100  0.00  0.00     0.000 OA
ATOM     50   O  IDS C   3     142.720  36.091  43.1960  0.00  0.00     0.000 OA
ATOM     51   O  IDS C   3     141.073  35.113  44.6550  0.00  0.00     0.000 OA
ENDBRANCH 40 47
BRANCH 43 52
ATOM     52   C  IDS C   3     138.851  32.917  38.6280  0.00  0.00     0.000 C
ATOM     53   O  IDS C   3     139.128  31.753  38.4470  0.00  0.00     0.000 OA
ATOM     54   O  IDS C   3     138.761  33.674  37.6960  0.00  0.00     0.000 OA
ENDBRANCH 43 52
BRANCH 39 55
ATOM     55  O4  SGN C   4     136.982  35.575  41.4000  0.00  0.00     0.000 O
BRANCH 55 59
ATOM     56  C1  SGN C   4     134.283  37.879  39.1840  0.00  0.00     0.000 C
ATOM     57  C2  SGN C   4     135.687  38.473  39.3890  0.00  0.00     0.000 C
ATOM     58  C3  SGN C   4     136.668  37.397  39.8500  0.00  0.00     0.000 C
ATOM     59  C4  SGN C   4     136.108  36.638  41.0480  0.00  0.00     0.000 C
ATOM     60  C5  SGN C   4     134.734  36.084  40.6800  0.00  0.00     0.000 C
ATOM     61  O5  SGN C   4     133.871  37.192  40.3540  0.00  0.00     0.000 O
ATOM     62   O  SGN C   4     137.914  37.998  40.1750  0.00  0.00     0.000 O
ATOM     64  HD  SGN C   4     137.572  38.520  39.5740  0.00  0.00     0.000 HD
BRANCH 57 66
ATOM     64   N  SGN C   4     135.882  39.146  38.0950  0.00  0.00     0.000 N
ATOM     66  HD  SGN C   4     135.480  39.768  37.6470  0.00  0.00     0.000 HD
ATOM     66   S  SGN C   4     135.967  40.737  38.0130  0.00  0.00     0.000 S
ATOM     67   O  SGN C   4     136.093  41.086  36.6450  0.00  0.00     0.000 OA
ATOM     68   O  SGN C   4     134.876  41.251  38.7670  0.00  0.00     0.000 OA
ATOM     69   O  SGN C   4     137.296  41.077  38.7600  0.00  0.00     0.000 OA
ENDBRANCH 57 66
BRANCH 60 70
ATOM     70   C  SGN C   4     134.075  35.296  41.7920  0.00  0.00     0.000 C
ATOM     71   O  SGN C   4     135.788  33.563  44.6500  0.00  0.00     0.000 OA
ATOM     72   O  SGN C   4     134.644  35.693  44.6900  0.00  0.00     0.000 OA
ATOM     73   O  SGN C   4     135.066  34.610  42.5800  0.00  0.00     0.000 O
ATOM     74   S  SGN C   4     134.711  34.367  44.1200  0.00  0.00     0.000 S
ATOM     75   O  SGN C   4     133.434  33.682  44.1020  0.00  0.00     0.000 OA
ENDBRANCH 60 70
BRANCH 56 76
ATOM     76  O4  IDS C   5     133.600  37.361  38.1460  0.00  0.00     0.000 O
BRANCH 76 80
ATOM     77  C1  IDS C   5     133.303  33.291  38.0770  0.00  0.00     0.000 C
ATOM     78  C2  IDS C   5     134.284  33.873  37.0590  0.00  0.00     0.000 C
ATOM     79  C3  IDS C   5     134.648  35.292  37.4490  0.00  0.00     0.000 C
ATOM     80  C4  IDS C   5     133.413  36.182  37.3490  0.00  0.00     0.000 C
ATOM     81  C5  IDS C   5     132.182  35.400  37.8300  0.00  0.00     0.000 C
ATOM     82  O5  IDS C   5     132.572  34.341  38.7090  0.00  0.00     0.000 O
BRANCH 78 83
ATOM     83   O  IDS C   5     135.527  33.067  37.0090  0.00  0.00     0.000 O
ATOM     84   S  IDS C   5     136.007  32.437  35.6250  0.00  0.00     0.000 S
ATOM     85   O  IDS C   5     134.853  31.787  35.0640  0.00  0.00     0.000 OA
ATOM     86   O  IDS C   5     136.467  33.557  34.8380  0.00  0.00     0.000 OA
ATOM     87   O  IDS C   5     137.070  31.521  35.9610  0.00  0.00     0.000 OA
ENDBRANCH 78 83
BRANCH 81 88
ATOM     88   C  IDS C   5     131.159  36.250  38.5610  0.00  0.00     0.000 C
ATOM     89   O  IDS C   5     130.998  36.107  39.7440  0.00  0.00     0.000 OA
ATOM     90   O  IDS C   5     130.512  37.068  37.9480  0.00  0.00     0.000 OA
ENDBRANCH 81 88
ENDBRANCH 76 80
ENDBRANCH 56 76
ENDBRANCH 55 59
ENDBRANCH 39 55
ENDBRANCH 38 42
ENDBRANCH 18 38
ENDBRANCH 17 21
ENDBRANCH 1 17
TORSDOF 18
ENDMDL
MODEL 50
REMARK VINA RESULT:      -5.2      8.282     17.665
ROOT
ATOM      1  C1  IDS C   1     159.771  37.752  51.0680  0.00  0.00     0.000 C
ATOM      2  C2  IDS C   1     158.390  37.104  51.2000  0.00  0.00     0.000 C
ATOM      3  C3  IDS C   1     157.315  37.995  50.5960  0.00  0.00     0.000 C
ATOM      4  C4  IDS C   1     157.299  39.356  51.2790  0.00  0.00     0.000 C
ATOM      5  C5  IDS C   1     158.725  39.813  51.5690  0.00  0.00     0.000 C
ATOM      6  O5  IDS C   1     159.643  39.125  50.7190  0.00  0.00     0.000 O
ATOM      7   O  IDS C   1     156.033  37.365  50.7280  0.00  0.00     0.000 O
ATOM      9  HD  IDS C   1     156.136  36.512  50.6220  0.00  0.00     0.000 HD
ENDROOT
BRANCH 2 9
ATOM      9   O  IDS C   1     158.346  35.807  50.4890  0.00  0.00     0.000 O
ATOM     10   S  IDS C   1     157.993  34.480  51.3000  0.00  0.00     0.000 S
ATOM     11   O  IDS C   1     158.018  33.405  50.3320  0.00  0.00     0.000 OA
ATOM     12   O  IDS C   1     159.024  34.354  52.3090  0.00  0.00     0.000 OA
ATOM     13   O  IDS C   1     156.678  34.698  51.8610  0.00  0.00     0.000 OA
ENDBRANCH 2 9
BRANCH 5 14
ATOM     14   C  IDS C   1     158.902  41.307  51.3590  0.00  0.00     0.000 C
ATOM     15   O  IDS C   1     157.942  41.986  51.0880  0.00  0.00     0.000 OA
ATOM     16   O  IDS C   1     160.010  41.806  51.4640  0.00  0.00     0.000 OA
ENDBRANCH 5 14
BRANCH 1 17
ATOM     17  O4  SGN C   2     160.863  37.071  50.7070  0.00  0.00     0.000 O
BRANCH 17 21
ATOM     18  C1  SGN C   2     164.349  36.541  48.4510  0.00  0.00     0.000 C
ATOM     19  C2  SGN C   2     163.629  37.886  48.2960  0.00  0.00     0.000 C
ATOM     20  C3  SGN C   2     162.654  38.091  49.4620  0.00  0.00     0.000 C
ATOM     21  C4  SGN C   2     161.717  36.895  49.5790  0.00  0.00     0.000 C
ATOM     22  C5  SGN C   2     162.547  35.624  49.7330  0.00  0.00     0.000 C
ATOM     23  O5  SGN C   2     163.431  35.478  48.5990  0.00  0.00     0.000 O
ATOM     24   O  SGN C   2     161.925  39.292  49.2750  0.00  0.00     0.000 O
ATOM     26  HD  SGN C   2     162.371  38.695  49.7170  0.00  0.00     0.000 HD
BRANCH 19 28
ATOM     26   N  SGN C   2     164.711  38.749  47.8030  0.00  0.00     0.000 N
ATOM     28  HD  SGN C   2     164.961  37.953  47.5710  0.00  0.00     0.000 HD
ATOM     28   O  SGN C   2     165.435  40.944  46.8650  0.00  0.00     0.000 OA
ATOM     29   S  SGN C   2     164.530  39.711  46.5280  0.00  0.00     0.000 S
ATOM     30   O  SGN C   2     165.075  39.042  45.4090  0.00  0.00     0.000 OA
ATOM     31   O  SGN C   2     163.174  40.139  46.4990  0.00  0.00     0.000 OA
ENDBRANCH 19 28
BRANCH 22 32
ATOM     32   C  SGN C   2     161.712  34.369  49.8000  0.00  0.00     0.000 C
ATOM     33   S  SGN C   2     160.961  32.456  48.2450  0.00  0.00     0.000 S
ATOM     34   O  SGN C   2     159.970  33.278  47.5980  0.00  0.00     0.000 OA
ATOM     35   O  SGN C   2     161.653  31.560  47.3410  0.00  0.00     0.000 OA
ATOM     36   O  SGN C   2     160.496  31.809  49.4500  0.00  0.00     0.000 OA
ATOM     37   O  SGN C   2     162.077  33.491  48.7280  0.00  0.00     0.000 O
ENDBRANCH 22 32
BRANCH 18 38
ATOM     38  O4  IDS C   3     165.372  36.197  49.2370  0.00  0.00     0.000 O
BRANCH 38 42
ATOM     39  C1  IDS C   3     167.789  36.414  51.7350  0.00  0.00     0.000 C
ATOM     40  C2  IDS C   3     167.416  37.640  50.8850  0.00  0.00     0.000 C
ATOM     41  C3  IDS C   3     167.500  37.323  49.3920  0.00  0.00     0.000 C
ATOM     42  C4  IDS C   3     166.783  36.020  49.0650  0.00  0.00     0.000 C
ATOM     43  C5  IDS C   3     167.286  34.904  49.9890  0.00  0.00     0.000 C
ATOM     44  O5  IDS C   3     167.042  35.274  51.3440  0.00  0.00     0.000 O
ATOM     45   O  IDS C   3     168.872  37.229  49.0050  0.00  0.00     0.000 O
ATOM     47  HD  IDS C   3     169.553  36.765  49.2710  0.00  0.00     0.000 HD
BRANCH 40 47
ATOM     47   O  IDS C   3     166.027  38.069  51.1720  0.00  0.00     0.000 O
ATOM     48   S  IDS C   3     165.762  39.295  52.1640  0.00  0.00     0.000 S
ATOM     49   O  IDS C   3     165.954  38.773  53.5000  0.00  0.00     0.000 OA
ATOM     50   O  IDS C   3     164.394  39.695  51.9180  0.00  0.00     0.000 OA
ATOM     51   O  IDS C   3     166.719  40.312  51.8190  0.00  0.00     0.000 OA
ENDBRANCH 40 47
BRANCH 43 52
ATOM     52   C  IDS C   3     166.636  33.568  49.7020  0.00  0.00     0.000 C
ATOM     53   O  IDS C   3     167.060  32.871  48.8090  0.00  0.00     0.000 OA
ATOM     54   O  IDS C   3     165.698  33.206  50.3660  0.00  0.00     0.000 OA
ENDBRANCH 43 52
BRANCH 39 55
ATOM     55  O4  SGN C   4     169.032  36.139  52.1300  0.00  0.00     0.000 O
BRANCH 55 59
ATOM     56  C1  SGN C   4     170.146  38.080  55.6650  0.00  0.00     0.000 C
ATOM     57  C2  SGN C   4     170.647  38.703  54.3510  0.00  0.00     0.000 C
ATOM     58  C3  SGN C   4     169.866  38.156  53.1600  0.00  0.00     0.000 C
ATOM     59  C4  SGN C   4     169.848  36.632  53.1830  0.00  0.00     0.000 C
ATOM     60  C5  SGN C   4     169.298  36.168  54.5290  0.00  0.00     0.000 C
ATOM     61  O5  SGN C   4     170.165  36.664  55.5680  0.00  0.00     0.000 O
ATOM     62   O  SGN C   4     170.444  38.633  51.9520  0.00  0.00     0.000 O
ATOM     64  HD  SGN C   4     170.626  39.246  52.5360  0.00  0.00     0.000 HD
BRANCH 57 66
ATOM     64   N  SGN C   4     171.472  39.814  53.8500  0.00  0.00     0.000 N
ATOM     66  HD  SGN C   4     171.416  40.678  53.8340  0.00  0.00     0.000 HD
ATOM     66   S  SGN C   4     171.900  41.008  54.8170  0.00  0.00     0.000 S
ATOM     67   O  SGN C   4     172.629  41.944  54.0410  0.00  0.00     0.000 OA
ATOM     68   O  SGN C   4     170.727  41.430  55.5010  0.00  0.00     0.000 OA
ATOM     69   O  SGN C   4     172.861  40.328  55.8440  0.00  0.00     0.000 OA
ENDBRANCH 57 66
BRANCH 60 70
ATOM     70   C  SGN C   4     169.221  34.663  54.6720  0.00  0.00     0.000 C
ATOM     71   O  SGN C   4     166.541  32.403  53.3250  0.00  0.00     0.000 OA
ATOM     72   O  SGN C   4     168.744  32.788  52.4050  0.00  0.00     0.000 OA
ATOM     73   O  SGN C   4     167.948  34.176  54.2070  0.00  0.00     0.000 O
ATOM     74   S  SGN C   4     167.929  32.698  53.5960  0.00  0.00     0.000 S
ATOM     75   O  SGN C   4     168.507  31.862  54.6290  0.00  0.00     0.000 OA
ENDBRANCH 60 70
BRANCH 56 76
ATOM     76  O4  IDS C   5     169.239  38.411  56.6030  0.00  0.00     0.000 O
BRANCH 76 80
ATOM     77  C1  IDS C   5     169.651  41.409  59.3420  0.00  0.00     0.000 C
ATOM     78  C2  IDS C   5     170.240  40.067  59.7760  0.00  0.00     0.000 C
ATOM     79  C3  IDS C   5     170.434  39.174  58.5660  0.00  0.00     0.000 C
ATOM     80  C4  IDS C   5     169.075  38.824  57.9680  0.00  0.00     0.000 C
ATOM     81  C5  IDS C   5     168.152  40.049  58.0500  0.00  0.00     0.000 C
ATOM     82  O5  IDS C   5     168.921  41.253  58.1250  0.00  0.00     0.000 O
BRANCH 78 83
ATOM     83   O  IDS C   5     171.556  40.260  60.4310  0.00  0.00     0.000 O
ATOM     84   S  IDS C   5     171.796  39.705  61.9070  0.00  0.00     0.000 S
ATOM     85   O  IDS C   5     170.672  40.152  62.6850  0.00  0.00     0.000 OA
ATOM     86   O  IDS C   5     171.855  38.269  61.7660  0.00  0.00     0.000 OA
ATOM     87   O  IDS C   5     173.050  40.273  62.3390  0.00  0.00     0.000 OA
ENDBRANCH 78 83
BRANCH 81 88
ATOM     88   C  IDS C   5     167.203  40.185  56.8730  0.00  0.00     0.000 C
ATOM     89   O  IDS C   5     166.063  39.820  56.9780  0.00  0.00     0.000 OA
ATOM     90   O  IDS C   5     167.601  40.661  55.8350  0.00  0.00     0.000 OA
ENDBRANCH 81 88
ENDBRANCH 76 80
ENDBRANCH 56 76
ENDBRANCH 55 59
ENDBRANCH 39 55
ENDBRANCH 38 42
ENDBRANCH 18 38
ENDBRANCH 17 21
ENDBRANCH 1 17
TORSDOF 18
ENDMDL
MODEL 51
REMARK VINA RESULT:      -5.2     17.124     23.267
ROOT
ATOM      1  C1  IDS C   1     131.710  46.422  49.1500  0.00  0.00     0.000 C
ATOM      2  C2  IDS C   1     132.460  46.305  50.4790  0.00  0.00     0.000 C
ATOM      3  C3  IDS C   1     132.011  45.070  51.2470  0.00  0.00     0.000 C
ATOM      4  C4  IDS C   1     130.513  45.121  51.5170  0.00  0.00     0.000 C
ATOM      5  C5  IDS C   1     129.782  45.689  50.3050  0.00  0.00     0.000 C
ATOM      6  O5  IDS C   1     130.588  45.549  49.1350  0.00  0.00     0.000 O
ATOM      7   O  IDS C   1     132.729  44.980  52.4850  0.00  0.00     0.000 O
ATOM      9  HD  IDS C   1     133.539  45.256  52.3500  0.00  0.00     0.000 HD
ENDROOT
BRANCH 2 9
ATOM      9   O  IDS C   1     133.918  46.184  50.2540  0.00  0.00     0.000 O
ATOM     10   S  IDS C   1     134.906  47.236  50.9330  0.00  0.00     0.000 S
ATOM     11   O  IDS C   1     136.239  46.841  50.5350  0.00  0.00     0.000 OA
ATOM     12   O  IDS C   1     134.520  48.529  50.4060  0.00  0.00     0.000 OA
ATOM     13   O  IDS C   1     134.688  47.119  52.3580  0.00  0.00     0.000 OA
ENDBRANCH 2 9
BRANCH 5 14
ATOM     14   C  IDS C   1     128.453  44.994  50.0600  0.00  0.00     0.000 C
ATOM     15   O  IDS C   1     127.518  45.226  50.7870  0.00  0.00     0.000 OA
ATOM     16   O  IDS C   1     128.343  44.207  49.1340  0.00  0.00     0.000 OA
ENDBRANCH 5 14
BRANCH 1 17
ATOM     17  O4  SGN C   2     132.309  46.757  48.0030  0.00  0.00     0.000 O
BRANCH 17 21
ATOM     18  C1  SGN C   2     133.777  46.008  44.1550  0.00  0.00     0.000 C
ATOM     19  C2  SGN C   2     132.872  44.931  44.7670  0.00  0.00     0.000 C
ATOM     20  C3  SGN C   2     132.093  45.518  45.9500  0.00  0.00     0.000 C
ATOM     21  C4  SGN C   2     133.053  46.159  46.9450  0.00  0.00     0.000 C
ATOM     22  C5  SGN C   2     133.890  47.211  46.2220  0.00  0.00     0.000 C
ATOM     23  O5  SGN C   2     134.612  46.595  45.1310  0.00  0.00     0.000 O
ATOM     24   O  SGN C   2     131.322  44.503  46.5710  0.00  0.00     0.000 O
ATOM     26  HD  SGN C   2     131.487  45.291  46.2520  0.00  0.00     0.000 HD
BRANCH 19 28
ATOM     26   N  SGN C   2     132.442  44.196  43.5690  0.00  0.00     0.000 N
ATOM     28  HD  SGN C   2     133.233  44.481  43.3630  0.00  0.00     0.000 HD
ATOM     28   O  SGN C   2     131.155  42.308  42.5680  0.00  0.00     0.000 OA
ATOM     29   S  SGN C   2     132.358  42.591  43.5310  0.00  0.00     0.000 S
ATOM     30   O  SGN C   2     133.542  42.117  42.9250  0.00  0.00     0.000 OA
ATOM     31   O  SGN C   2     132.009  42.145  44.8350  0.00  0.00     0.000 OA
ENDBRANCH 19 28
BRANCH 22 32
ATOM     32   C  SGN C   2     134.919  47.869  47.1080  0.00  0.00     0.000 C
ATOM     33   S  SGN C   2     137.452  48.347  47.1140  0.00  0.00     0.000 S
ATOM     34   O  SGN C   2     137.777  46.987  47.4670  0.00  0.00     0.000 OA
ATOM     35   O  SGN C   2     138.369  48.935  46.1610  0.00  0.00     0.000 OA
ATOM     36   O  SGN C   2     137.175  49.199  48.2470  0.00  0.00     0.000 OA
ATOM     37   O  SGN C   2     136.066  48.229  46.3300  0.00  0.00     0.000 O
ENDBRANCH 22 32
BRANCH 18 38
ATOM     38  O4  IDS C   3     133.481  47.016  43.3320  0.00  0.00     0.000 O
BRANCH 38 42
ATOM     39  C1  IDS C   3     135.139  49.300  41.2910  0.00  0.00     0.000 C
ATOM     40  C2  IDS C   3     133.779  49.642  41.9200  0.00  0.00     0.000 C
ATOM     41  C3  IDS C   3     132.745  48.554  41.6270  0.00  0.00     0.000 C
ATOM     42  C4  IDS C   3     133.305  47.169  41.9190  0.00  0.00     0.000 C
ATOM     43  C5  IDS C   3     134.649  46.990  41.2020  0.00  0.00     0.000 C
ATOM     44  O5  IDS C   3     135.556  47.994  41.6530  0.00  0.00     0.000 O
ATOM     45   O  IDS C   3     132.350  48.635  40.2560  0.00  0.00     0.000 O
ATOM     47  HD  IDS C   3     132.766  48.622  39.4970  0.00  0.00     0.000 HD
BRANCH 40 47
ATOM     47   O  IDS C   3     133.900  49.754  43.3930  0.00  0.00     0.000 O
ATOM     48   S  IDS C   3     134.816  50.900  44.0310  0.00  0.00     0.000 S
ATOM     49   O  IDS C   3     136.182  50.446  43.8800  0.00  0.00     0.000 OA
ATOM     50   O  IDS C   3     134.410  50.983  45.4170  0.00  0.00     0.000 OA
ATOM     51   O  IDS C   3     134.541  52.101  43.2870  0.00  0.00     0.000 OA
ENDBRANCH 40 47
BRANCH 43 52
ATOM     52   C  IDS C   3     135.254  45.622  41.4250  0.00  0.00     0.000 C
ATOM     53   O  IDS C   3     136.381  45.523  41.8520  0.00  0.00     0.000 OA
ATOM     54   O  IDS C   3     134.609  44.635  41.1760  0.00  0.00     0.000 OA
ENDBRANCH 43 52
BRANCH 39 55
ATOM     55  O4  SGN C   4     135.494  49.661  40.0580  0.00  0.00     0.000 O
BRANCH 55 59
ATOM     56  C1  SGN C   4     139.525  50.702  39.6430  0.00  0.00     0.000 C
ATOM     57  C2  SGN C   4     138.545  51.851  39.9340  0.00  0.00     0.000 C
ATOM     58  C3  SGN C   4     137.213  51.310  40.4470  0.00  0.00     0.000 C
ATOM     59  C4  SGN C   4     136.678  50.228  39.5150  0.00  0.00     0.000 C
ATOM     60  C5  SGN C   4     137.745  49.149  39.3520  0.00  0.00     0.000 C
ATOM     61  O5  SGN C   4     138.919  49.756  38.7760  0.00  0.00     0.000 O
ATOM     62   O  SGN C   4     136.280  52.375  40.5670  0.00  0.00     0.000 O
ATOM     64  HD  SGN C   4     137.053  52.750  40.6800  0.00  0.00     0.000 HD
BRANCH 57 66
ATOM     64   N  SGN C   4     139.818  52.589  39.9360  0.00  0.00     0.000 N
ATOM     66  HD  SGN C   4     140.124  53.310  39.5660  0.00  0.00     0.000 HD
ATOM     66   S  SGN C   4     139.856  54.141  40.3070  0.00  0.00     0.000 S
ATOM     67   O  SGN C   4     141.196  54.579  40.1620  0.00  0.00     0.000 OA
ATOM     68   O  SGN C   4     138.829  54.774  39.5540  0.00  0.00     0.000 OA
ATOM     69   O  SGN C   4     139.461  54.171  41.8180  0.00  0.00     0.000 OA
ENDBRANCH 57 66
BRANCH 60 70
ATOM     70   C  SGN C   4     137.327  48.007  38.4500  0.00  0.00     0.000 C
ATOM     71   O  SGN C   4     139.532  45.300  37.0670  0.00  0.00     0.000 OA
ATOM     72   O  SGN C   4     138.010  45.148  38.9410  0.00  0.00     0.000 OA
ATOM     73   O  SGN C   4     138.483  47.299  37.9630  0.00  0.00     0.000 O
ATOM     74   S  SGN C   4     138.287  45.743  37.6530  0.00  0.00     0.000 S
ATOM     75   O  SGN C   4     137.166  45.685  36.7370  0.00  0.00     0.000 OA
ENDBRANCH 60 70
BRANCH 56 76
ATOM     76  O4  IDS C   5     140.492  50.065  40.3280  0.00  0.00     0.000 O
BRANCH 76 80
ATOM     77  C1  IDS C   5     142.720  47.386  42.4540  0.00  0.00     0.000 C
ATOM     78  C2  IDS C   5     141.248  47.452  42.8620  0.00  0.00     0.000 C
ATOM     79  C3  IDS C   5     140.439  48.115  41.7640  0.00  0.00     0.000 C
ATOM     80  C4  IDS C   5     140.868  49.573  41.6230  0.00  0.00     0.000 C
ATOM     81  C5  IDS C   5     142.388  49.676  41.8150  0.00  0.00     0.000 C
ATOM     82  O5  IDS C   5     143.018  48.426  41.5230  0.00  0.00     0.000 O
BRANCH 78 83
ATOM     83   O  IDS C   5     140.705  46.092  43.0880  0.00  0.00     0.000 O
ATOM     84   S  IDS C   5     139.790  45.806  44.3630  0.00  0.00     0.000 S
ATOM     85   O  IDS C   5     140.494  46.360  45.4880  0.00  0.00     0.000 OA
ATOM     86   O  IDS C   5     138.540  46.475  44.0900  0.00  0.00     0.000 OA
ATOM     87   O  IDS C   5     139.651  44.371  44.4290  0.00  0.00     0.000 OA
ENDBRANCH 78 83
BRANCH 81 88
ATOM     88   C  IDS C   5     143.047  50.734  40.9490  0.00  0.00     0.000 C
ATOM     89   O  IDS C   5     143.787  50.405  40.0600  0.00  0.00     0.000 OA
ATOM     90   O  IDS C   5     142.823  51.904  41.1580  0.00  0.00     0.000 OA
ENDBRANCH 81 88
ENDBRANCH 76 80
ENDBRANCH 56 76
ENDBRANCH 55 59
ENDBRANCH 39 55
ENDBRANCH 38 42
ENDBRANCH 18 38
ENDBRANCH 17 21
ENDBRANCH 1 17
TORSDOF 18
ENDMDL
MODEL 52
REMARK VINA RESULT:      -5.1      6.522     13.047
ROOT
ATOM      1  C1  IDS C   1     156.138  49.966  54.9960  0.00  0.00     0.000 C
ATOM      2  C2  IDS C   1     156.025  51.104  56.0150  0.00  0.00     0.000 C
ATOM      3  C3  IDS C   1     154.893  52.051  55.6440  0.00  0.00     0.000 C
ATOM      4  C4  IDS C   1     155.118  52.639  54.2580  0.00  0.00     0.000 C
ATOM      5  C5  IDS C   1     155.683  51.575  53.3230  0.00  0.00     0.000 C
ATOM      6  O5  IDS C   1     155.388  50.272  53.8270  0.00  0.00     0.000 O
ATOM      7   O  IDS C   1     154.804  53.104  56.6140  0.00  0.00     0.000 O
ATOM      9  HD  IDS C   1     154.985  52.772  57.3930  0.00  0.00     0.000 HD
ENDROOT
BRANCH 2 9
ATOM      9   O  IDS C   1     155.738  50.573  57.3670  0.00  0.00     0.000 O
ATOM     10   S  IDS C   1     156.744  50.890  58.5630  0.00  0.00     0.000 S
ATOM     11   O  IDS C   1     156.182  50.253  59.7330  0.00  0.00     0.000 OA
ATOM     12   O  IDS C   1     158.014  50.319  58.1640  0.00  0.00     0.000 OA
ATOM     13   O  IDS C   1     156.784  52.332  58.6740  0.00  0.00     0.000 OA
ENDBRANCH 2 9
BRANCH 5 14
ATOM     14   C  IDS C   1     155.118  51.687  51.9170  0.00  0.00     0.000 C
ATOM     15   O  IDS C   1     154.629  50.715  51.3950  0.00  0.00     0.000 OA
ATOM     16   O  IDS C   1     155.165  52.754  51.3290  0.00  0.00     0.000 OA
ENDBRANCH 5 14
BRANCH 1 17
ATOM     17  O4  SGN C   2     156.337  48.692  55.3460  0.00  0.00     0.000 O
BRANCH 17 21
ATOM     18  C1  SGN C   2     155.024  44.923  56.6070  0.00  0.00     0.000 C
ATOM     19  C2  SGN C   2     153.937  45.953  56.2760  0.00  0.00     0.000 C
ATOM     20  C3  SGN C   2     154.539  47.094  55.4460  0.00  0.00     0.000 C
ATOM     21  C4  SGN C   2     155.751  47.680  56.1600  0.00  0.00     0.000 C
ATOM     22  C5  SGN C   2     156.758  46.565  56.4290  0.00  0.00     0.000 C
ATOM     23  O5  SGN C   2     156.139  45.529  57.2270  0.00  0.00     0.000 O
ATOM     24   O  SGN C   2     153.557  48.090  55.2120  0.00  0.00     0.000 O
ATOM     26  HD  SGN C   2     154.215  47.562  55.0150  0.00  0.00     0.000 HD
BRANCH 19 28
ATOM     26   N  SGN C   2     152.804  45.192  55.7320  0.00  0.00     0.000 N
ATOM     28  HD  SGN C   2     153.422  44.594  55.8380  0.00  0.00     0.000 HD
ATOM     28   O  SGN C   2     150.338  44.867  55.5510  0.00  0.00     0.000 OA
ATOM     29   S  SGN C   2     151.496  44.857  56.6050  0.00  0.00     0.000 S
ATOM     30   O  SGN C   2     151.642  43.543  57.1030  0.00  0.00     0.000 OA
ATOM     31   O  SGN C   2     151.295  45.934  57.5110  0.00  0.00     0.000 OA
ENDBRANCH 19 28
BRANCH 22 32
ATOM     32   C  SGN C   2     157.977  47.029  57.1880  0.00  0.00     0.000 C
ATOM     33   S  SGN C   2     160.324  46.160  57.8040  0.00  0.00     0.000 S
ATOM     34   O  SGN C   2     159.808  45.295  58.8350  0.00  0.00     0.000 OA
ATOM     35   O  SGN C   2     161.414  45.578  57.0500  0.00  0.00     0.000 OA
ATOM     36   O  SGN C   2     160.585  47.510  58.2450  0.00  0.00     0.000 OA
ATOM     37   O  SGN C   2     159.124  46.285  56.7590  0.00  0.00     0.000 O
ENDBRANCH 22 32
BRANCH 18 38
ATOM     38  O4  IDS C   3     155.557  43.960  55.8520  0.00  0.00     0.000 O
BRANCH 38 42
ATOM     39  C1  IDS C   3     156.740  41.870  53.3300  0.00  0.00     0.000 C
ATOM     40  C2  IDS C   3     155.253  42.252  53.4100  0.00  0.00     0.000 C
ATOM     41  C3  IDS C   3     154.684  41.973  54.8000  0.00  0.00     0.000 C
ATOM     42  C4  IDS C   3     155.593  42.529  55.8890  0.00  0.00     0.000 C
ATOM     43  C5  IDS C   3     157.028  42.035  55.6700  0.00  0.00     0.000 C
ATOM     44  O5  IDS C   3     157.478  42.463  54.3850  0.00  0.00     0.000 O
ATOM     45   O  IDS C   3     154.530  40.563  54.9740  0.00  0.00     0.000 O
ATOM     47  HD  IDS C   3     155.056  39.878  54.9120  0.00  0.00     0.000 HD
BRANCH 40 47
ATOM     47   O  IDS C   3     155.073  43.698  53.1370  0.00  0.00     0.000 O
ATOM     48   S  IDS C   3     153.742  44.210  52.4120  0.00  0.00     0.000 S
ATOM     49   O  IDS C   3     153.906  43.892  51.0100  0.00  0.00     0.000 OA
ATOM     50   O  IDS C   3     153.702  45.636  52.6540  0.00  0.00     0.000 OA
ATOM     51   O  IDS C   3     152.648  43.502  53.0210  0.00  0.00     0.000 OA
ENDBRANCH 40 47
BRANCH 43 52
ATOM     52   C  IDS C   3     157.985  42.526  56.7330  0.00  0.00     0.000 C
ATOM     53   O  IDS C   3     159.012  43.079  56.4110  0.00  0.00     0.000 OA
ATOM     54   O  IDS C   3     157.719  42.365  57.8970  0.00  0.00     0.000 OA
ENDBRANCH 43 52
BRANCH 39 55
ATOM     55  O4  SGN C   4     157.173  40.659  52.9780  0.00  0.00     0.000 O
BRANCH 55 59
ATOM     56  C1  SGN C   4     157.780  37.631  50.1560  0.00  0.00     0.000 C
ATOM     57  C2  SGN C   4     158.110  39.065  49.7070  0.00  0.00     0.000 C
ATOM     58  C3  SGN C   4     158.228  39.995  50.9110  0.00  0.00     0.000 C
ATOM     59  C4  SGN C   4     157.003  39.868  51.8110  0.00  0.00     0.000 C
ATOM     60  C5  SGN C   4     156.829  38.400  52.1970  0.00  0.00     0.000 C
ATOM     61  O5  SGN C   4     156.634  37.635  50.9910  0.00  0.00     0.000 O
ATOM     62   O  SGN C   4     158.383  41.335  50.4640  0.00  0.00     0.000 O
ATOM     64  HD  SGN C   4     158.721  40.854  49.8280  0.00  0.00     0.000 HD
BRANCH 57 66
ATOM     64   N  SGN C   4     158.148  38.519  48.3410  0.00  0.00     0.000 N
ATOM     66  HD  SGN C   4     158.111  38.840  47.5380  0.00  0.00     0.000 HD
ATOM     66   S  SGN C   4     159.203  39.068  47.2770  0.00  0.00     0.000 S
ATOM     67   O  SGN C   4     158.956  38.400  46.0510  0.00  0.00     0.000 OA
ATOM     68   O  SGN C   4     159.141  40.488  47.3240  0.00  0.00     0.000 OA
ATOM     69   O  SGN C   4     160.581  38.607  47.8500  0.00  0.00     0.000 OA
ENDBRANCH 57 66
BRANCH 60 70
ATOM     70   C  SGN C   4     155.644  38.144  53.1030  0.00  0.00     0.000 C
ATOM     71   O  SGN C   4     152.045  38.948  52.3920  0.00  0.00     0.000 OA
ATOM     72   O  SGN C   4     153.133  36.794  52.2360  0.00  0.00     0.000 OA
ATOM     73   O  SGN C   4     154.460  38.775  52.5780  0.00  0.00     0.000 O
ATOM     74   S  SGN C   4     153.066  38.069  52.9140  0.00  0.00     0.000 S
ATOM     75   O  SGN C   4     153.047  37.955  54.3580  0.00  0.00     0.000 OA
ENDBRANCH 60 70
BRANCH 56 76
ATOM     76  O4  IDS C   5     158.493  36.527  50.4490  0.00  0.00     0.000 O
BRANCH 76 80
ATOM     77  C1  IDS C   5     161.226  33.498  50.3530  0.00  0.00     0.000 C
ATOM     78  C2  IDS C   5     160.601  33.831  48.9990  0.00  0.00     0.000 C
ATOM     79  C3  IDS C   5     159.964  35.205  49.0510  0.00  0.00     0.000 C
ATOM     80  C4  IDS C   5     158.790  35.188  50.0250  0.00  0.00     0.000 C
ATOM     81  C5  IDS C   5     159.145  34.310  51.2340  0.00  0.00     0.000 C
ATOM     82  O5  IDS C   5     160.565  34.222  51.3910  0.00  0.00     0.000 O
BRANCH 78 83
ATOM     83   O  IDS C   5     161.630  33.831  47.9330  0.00  0.00     0.000 O
ATOM     84   S  IDS C   5     161.468  32.863  46.6750  0.00  0.00     0.000 S
ATOM     85   O  IDS C   5     161.167  31.563  47.2130  0.00  0.00     0.000 OA
ATOM     86   O  IDS C   5     160.384  33.423  45.9030  0.00  0.00     0.000 OA
ATOM     87   O  IDS C   5     162.730  32.913  45.9790  0.00  0.00     0.000 OA
ENDBRANCH 78 83
BRANCH 81 88
ATOM     88   C  IDS C   5     158.570  34.808  52.5470  0.00  0.00     0.000 C
ATOM     89   O  IDS C   5     159.254  35.456  53.2930  0.00  0.00     0.000 OA
ATOM     90   O  IDS C   5     157.424  34.550  52.8350  0.00  0.00     0.000 OA
ENDBRANCH 81 88
ENDBRANCH 76 80
ENDBRANCH 56 76
ENDBRANCH 55 59
ENDBRANCH 39 55
ENDBRANCH 38 42
ENDBRANCH 18 38
ENDBRANCH 17 21
ENDBRANCH 1 17
TORSDOF 18
ENDMDL
MODEL 53
REMARK VINA RESULT:      -5.1      9.450     16.529
ROOT
ATOM      1  C1  IDS C   1     173.474  36.682  55.1500  0.00  0.00     0.000 C
ATOM      2  C2  IDS C   1     174.977  36.860  55.3810  0.00  0.00     0.000 C
ATOM      3  C3  IDS C   1     175.349  36.512  56.8150  0.00  0.00     0.000 C
ATOM      4  C4  IDS C   1     174.584  37.389  57.7960  0.00  0.00     0.000 C
ATOM      5  C5  IDS C   1     173.153  37.594  57.3080  0.00  0.00     0.000 C
ATOM      6  O5  IDS C   1     172.793  36.559  56.3920  0.00  0.00     0.000 O
ATOM      7   O  IDS C   1     176.761  36.682  57.0040  0.00  0.00     0.000 O
ATOM      9  HD  IDS C   1     177.165  36.439  56.2780  0.00  0.00     0.000 HD
ENDROOT
BRANCH 2 9
ATOM      9   O  IDS C   1     175.756  35.970  54.4900  0.00  0.00     0.000 O
ATOM     10   S  IDS C   1     176.871  36.596  53.5370  0.00  0.00     0.000 S
ATOM     11   O  IDS C   1     177.449  35.482  52.8180  0.00  0.00     0.000 OA
ATOM     12   O  IDS C   1     176.170  37.523  52.6730  0.00  0.00     0.000 OA
ATOM     13   O  IDS C   1     177.818  37.249  54.4150  0.00  0.00     0.000 OA
ENDBRANCH 2 9
BRANCH 5 14
ATOM     14   C  IDS C   1     172.152  37.594  58.4510  0.00  0.00     0.000 C
ATOM     15   O  IDS C   1     171.063  37.100  58.2870  0.00  0.00     0.000 OA
ATOM     16   O  IDS C   1     172.456  38.093  59.5220  0.00  0.00     0.000 OA
ENDBRANCH 5 14
BRANCH 1 17
ATOM     17  O4  SGN C   2     172.968  36.111  54.0530  0.00  0.00     0.000 O
BRANCH 17 21
ATOM     18  C1  SGN C   2     171.050  33.052  51.9340  0.00  0.00     0.000 C
ATOM     19  C2  SGN C   2     170.997  32.965  53.4650  0.00  0.00     0.000 C
ATOM     20  C3  SGN C   2     171.351  34.327  54.0750  0.00  0.00     0.000 C
ATOM     21  C4  SGN C   2     172.687  34.816  53.5280  0.00  0.00     0.000 C
ATOM     22  C5  SGN C   2     172.613  34.864  52.0040  0.00  0.00     0.000 C
ATOM     23  O5  SGN C   2     172.293  33.552  51.4890  0.00  0.00     0.000 O
ATOM     24   O  SGN C   2     171.388  34.227  55.4890  0.00  0.00     0.000 O
ATOM     26  HD  SGN C   2     171.202  34.587  54.7230  0.00  0.00     0.000 HD
BRANCH 19 28
ATOM     26   N  SGN C   2     169.913  31.994  53.6680  0.00  0.00     0.000 N
ATOM     28  HD  SGN C   2     170.345  31.680  52.9870  0.00  0.00     0.000 HD
ATOM     28   O  SGN C   2     168.386  30.793  55.2330  0.00  0.00     0.000 OA
ATOM     29   S  SGN C   2     169.907  30.959  54.8980  0.00  0.00     0.000 S
ATOM     30   O  SGN C   2     170.401  29.725  54.4190  0.00  0.00     0.000 OA
ATOM     31   O  SGN C   2     170.547  31.592  55.9990  0.00  0.00     0.000 OA
ENDBRANCH 19 28
BRANCH 22 32
ATOM     32   C  SGN C   2     173.910  35.283  51.3560  0.00  0.00     0.000 C
ATOM     33   S  SGN C   2     174.767  36.033  49.0440  0.00  0.00     0.000 S
ATOM     34   O  SGN C   2     174.750  34.689  48.5250  0.00  0.00     0.000 OA
ATOM     35   O  SGN C   2     174.340  37.032  48.0850  0.00  0.00     0.000 OA
ATOM     36   O  SGN C   2     175.986  36.383  49.7340  0.00  0.00     0.000 OA
ATOM     37   O  SGN C   2     173.633  36.035  50.1680  0.00  0.00     0.000 O
ENDBRANCH 22 32
BRANCH 18 38
ATOM     38  O4  IDS C   3     170.168  33.558  51.0690  0.00  0.00     0.000 O
BRANCH 38 42
ATOM     39  C1  IDS C   3     167.104  34.604  49.7860  0.00  0.00     0.000 C
ATOM     40  C2  IDS C   3     167.208  33.344  50.6600  0.00  0.00     0.000 C
ATOM     41  C3  IDS C   3     168.279  32.390  50.1300  0.00  0.00     0.000 C
ATOM     42  C4  IDS C   3     169.578  33.129  49.8370  0.00  0.00     0.000 C
ATOM     43  C5  IDS C   3     169.296  34.341  48.9420  0.00  0.00     0.000 C
ATOM     44  O5  IDS C   3     168.374  35.206  49.6040  0.00  0.00     0.000 O
ATOM     45   O  IDS C   3     167.803  31.760  48.9390  0.00  0.00     0.000 O
ATOM     47  HD  IDS C   3     167.495  32.040  48.1800  0.00  0.00     0.000 HD
BRANCH 40 47
ATOM     47   O  IDS C   3     167.581  33.703  52.0490  0.00  0.00     0.000 O
ATOM     48   S  IDS C   3     166.463  34.240  53.0590  0.00  0.00     0.000 S
ATOM     49   O  IDS C   3     166.224  35.619  52.6890  0.00  0.00     0.000 OA
ATOM     50   O  IDS C   3     167.048  34.114  54.3760  0.00  0.00     0.000 OA
ATOM     51   O  IDS C   3     165.308  33.404  52.8700  0.00  0.00     0.000 OA
ENDBRANCH 40 47
BRANCH 43 52
ATOM     52   C  IDS C   3     170.548  35.110  48.5850  0.00  0.00     0.000 C
ATOM     53   O  IDS C   3     170.670  36.261  48.9360  0.00  0.00     0.000 OA
ATOM     54   O  IDS C   3     171.420  34.571  47.9530  0.00  0.00     0.000 OA
ENDBRANCH 43 52
BRANCH 39 55
ATOM     55  O4  SGN C   4     166.299  34.705  48.7290  0.00  0.00     0.000 O
BRANCH 55 59
ATOM     56  C1  SGN C   4     162.494  34.232  47.0530  0.00  0.00     0.000 C
ATOM     57  C2  SGN C   4     162.558  34.381  48.5830  0.00  0.00     0.000 C
ATOM     58  C3  SGN C   4     163.914  34.932  49.0170  0.00  0.00     0.000 C
ATOM     59  C4  SGN C   4     165.047  34.119  48.4020  0.00  0.00     0.000 C
ATOM     60  C5  SGN C   4     164.864  34.092  46.8860  0.00  0.00     0.000 C
ATOM     61  O5  SGN C   4     163.598  33.468  46.5940  0.00  0.00     0.000 O
ATOM     62   O  SGN C   4     164.000  34.919  50.4360  0.00  0.00     0.000 O
ATOM     64  HD  SGN C   4     163.154  35.001  50.2710  0.00  0.00     0.000 HD
BRANCH 57 66
ATOM     64   N  SGN C   4     161.104  34.481  48.3760  0.00  0.00     0.000 N
ATOM     66  HD  SGN C   4     160.405  34.035  48.6250  0.00  0.00     0.000 HD
ATOM     66   S  SGN C   4     160.108  34.514  49.6220  0.00  0.00     0.000 S
ATOM     67   O  SGN C   4     158.787  34.551  49.1090  0.00  0.00     0.000 OA
ATOM     68   O  SGN C   4     160.491  33.455  50.4900  0.00  0.00     0.000 OA
ATOM     69   O  SGN C   4     160.432  35.874  50.3200  0.00  0.00     0.000 OA
ENDBRANCH 57 66
BRANCH 60 70
ATOM     70   C  SGN C   4     165.940  33.317  46.1550  0.00  0.00     0.000 C
ATOM     71   O  SGN C   4     165.749  29.756  44.9760  0.00  0.00     0.000 OA
ATOM     72   O  SGN C   4     165.479  31.763  43.6540  0.00  0.00     0.000 OA
ATOM     73   O  SGN C   4     165.581  31.925  46.0560  0.00  0.00     0.000 O
ATOM     74   S  SGN C   4     166.133  31.135  44.7800  0.00  0.00     0.000 S
ATOM     75   O  SGN C   4     167.566  31.345  44.8060  0.00  0.00     0.000 OA
ENDBRANCH 60 70
BRANCH 56 76
ATOM     76  O4  IDS C   5     162.076  34.998  46.0290  0.00  0.00     0.000 O
BRANCH 76 80
ATOM     77  C1  IDS C   5     160.338  37.213  43.0730  0.00  0.00     0.000 C
ATOM     78  C2  IDS C   5     159.438  36.130  43.6670  0.00  0.00     0.000 C
ATOM     79  C3  IDS C   5     159.989  35.680  45.0060  0.00  0.00     0.000 C
ATOM     80  C4  IDS C   5     161.336  34.993  44.7990  0.00  0.00     0.000 C
ATOM     81  C5  IDS C   5     162.117  35.727  43.6990  0.00  0.00     0.000 C
ATOM     82  O5  IDS C   5     161.666  37.079  43.5800  0.00  0.00     0.000 O
BRANCH 78 83
ATOM     83   O  IDS C   5     158.065  36.647  43.8760  0.00  0.00     0.000 O
ATOM     84   S  IDS C   5     156.932  36.345  42.7940  0.00  0.00     0.000 S
ATOM     85   O  IDS C   5     157.505  36.677  41.5170  0.00  0.00     0.000 OA
ATOM     86   O  IDS C   5     156.637  34.939  42.9370  0.00  0.00     0.000 OA
ATOM     87   O  IDS C   5     155.816  37.186  43.1530  0.00  0.00     0.000 OA
ENDBRANCH 78 83
BRANCH 81 88
ATOM     88   C  IDS C   5     163.617  35.764  43.9300  0.00  0.00     0.000 C
ATOM     89   O  IDS C   5     164.111  36.693  44.5100  0.00  0.00     0.000 OA
ATOM     90   O  IDS C   5     164.307  34.854  43.5290  0.00  0.00     0.000 OA
ENDBRANCH 81 88
ENDBRANCH 76 80
ENDBRANCH 56 76
ENDBRANCH 55 59
ENDBRANCH 39 55
ENDBRANCH 38 42
ENDBRANCH 18 38
ENDBRANCH 17 21
ENDBRANCH 1 17
TORSDOF 18
ENDMDL
MODEL 54
REMARK VINA RESULT:      -5.0      5.012      8.863
ROOT
ATOM      1  C1  IDS C   1     158.397  36.338  43.7010  0.00  0.00     0.000 C
ATOM      2  C2  IDS C   1     159.544  35.432  43.2450  0.00  0.00     0.000 C
ATOM      3  C3  IDS C   1     160.018  35.820  41.8510  0.00  0.00     0.000 C
ATOM      4  C4  IDS C   1     158.875  35.726  40.8500  0.00  0.00     0.000 C
ATOM      5  C5  IDS C   1     157.581  36.226  41.4840  0.00  0.00     0.000 C
ATOM      6  O5  IDS C   1     157.874  37.069  42.5990  0.00  0.00     0.000 O
ATOM      7   O  IDS C   1     161.094  34.961  41.4480  0.00  0.00     0.000 O
ATOM      9  HD  IDS C   1     161.579  34.788  42.1450  0.00  0.00     0.000 HD
ENDROOT
BRANCH 2 9
ATOM      9   O  IDS C   1     160.703  35.549  44.1580  0.00  0.00     0.000 O
ATOM     10   S  IDS C   1     161.294  34.237  44.8450  0.00  0.00     0.000 S
ATOM     11   O  IDS C   1     162.409  34.680  45.6530  0.00  0.00     0.000 OA
ATOM     12   O  IDS C   1     160.210  33.687  45.6330  0.00  0.00     0.000 OA
ATOM     13   O  IDS C   1     161.697  33.370  43.7600  0.00  0.00     0.000 OA
ENDBRANCH 2 9
BRANCH 5 14
ATOM     14   C  IDS C   1     156.726  37.008  40.5010  0.00  0.00     0.000 C
ATOM     15   O  IDS C   1     156.666  38.210  40.5920  0.00  0.00     0.000 OA
ATOM     16   O  IDS C   1     156.108  36.417  39.6320  0.00  0.00     0.000 OA
ENDBRANCH 5 14
BRANCH 1 17
ATOM     17  O4  SGN C   2     158.315  36.843  44.9350  0.00  0.00     0.000 O
BRANCH 17 21
ATOM     18  C1  SGN C   2     158.573  39.884  47.8000  0.00  0.00     0.000 C
ATOM     19  C2  SGN C   2     158.587  40.322  46.3310  0.00  0.00     0.000 C
ATOM     20  C3  SGN C   2     158.068  39.184  45.4440  0.00  0.00     0.000 C
ATOM     21  C4  SGN C   2     158.853  37.906  45.7170  0.00  0.00     0.000 C
ATOM     22  C5  SGN C   2     158.761  37.573  47.2030  0.00  0.00     0.000 C
ATOM     23  O5  SGN C   2     159.279  38.674  47.9850  0.00  0.00     0.000 O
ATOM     24   O  SGN C   2     158.161  39.554  44.0790  0.00  0.00     0.000 O
ATOM     26  HD  SGN C   2     157.796  39.209  44.7840  0.00  0.00     0.000 HD
BRANCH 19 28
ATOM     26   N  SGN C   2     158.763  41.754  46.0520  0.00  0.00     0.000 N
ATOM     28  HD  SGN C   2     159.523  41.406  45.8270  0.00  0.00     0.000 HD
ATOM     28   O  SGN C   2     157.773  43.929  45.3350  0.00  0.00     0.000 OA
ATOM     29   S  SGN C   2     158.050  42.481  44.8070  0.00  0.00     0.000 S
ATOM     30   O  SGN C   2     158.995  42.555  43.7600  0.00  0.00     0.000 OA
ATOM     31   O  SGN C   2     156.804  41.833  44.5850  0.00  0.00     0.000 OA
ENDBRANCH 19 28
BRANCH 22 32
ATOM     32   C  SGN C   2     159.556  36.351  47.5930  0.00  0.00     0.000 C
ATOM     33   S  SGN C   2     160.235  35.080  49.7300  0.00  0.00     0.000 S
ATOM     34   O  SGN C   2     161.247  36.050  50.0680  0.00  0.00     0.000 OA
ATOM     35   O  SGN C   2     159.509  34.575  50.8770  0.00  0.00     0.000 OA
ATOM     36   O  SGN C   2     160.688  34.042  48.8350  0.00  0.00     0.000 OA
ATOM     37   O  SGN C   2     159.156  35.911  48.8970  0.00  0.00     0.000 O
ENDBRANCH 22 32
BRANCH 18 38
ATOM     38  O4  IDS C   3     157.561  39.804  48.6670  0.00  0.00     0.000 O
BRANCH 38 42
ATOM     39  C1  IDS C   3     155.265  40.198  51.2550  0.00  0.00     0.000 C
ATOM     40  C2  IDS C   3     155.886  38.826  50.9500  0.00  0.00     0.000 C
ATOM     41  C3  IDS C   3     155.727  38.463  49.4740  0.00  0.00     0.000 C
ATOM     42  C4  IDS C   3     156.144  39.618  48.5740  0.00  0.00     0.000 C
ATOM     43  C5  IDS C   3     155.419  40.899  49.0030  0.00  0.00     0.000 C
ATOM     44  O5  IDS C   3     155.746  41.188  50.3610  0.00  0.00     0.000 O
ATOM     45   O  IDS C   3     154.364  38.118  49.2160  0.00  0.00     0.000 O
ATOM     47  HD  IDS C   3     153.601  38.511  49.3340  0.00  0.00     0.000 HD
BRANCH 40 47
ATOM     47   O  IDS C   3     157.337  38.834  51.2520  0.00  0.00     0.000 O
ATOM     48   S  IDS C   3     157.899  37.975  52.4790  0.00  0.00     0.000 S
ATOM     49   O  IDS C   3     157.573  38.726  53.6720  0.00  0.00     0.000 OA
ATOM     50   O  IDS C   3     159.326  37.882  52.2570  0.00  0.00     0.000 OA
ATOM     51   O  IDS C   3     157.233  36.701  52.4230  0.00  0.00     0.000 OA
ENDBRANCH 40 47
BRANCH 43 52
ATOM     52   C  IDS C   3     155.765  42.087  48.1330  0.00  0.00     0.000 C
ATOM     53   O  IDS C   3     156.731  42.765  48.3950  0.00  0.00     0.000 OA
ATOM     54   O  IDS C   3     155.074  42.351  47.1820  0.00  0.00     0.000 OA
ENDBRANCH 43 52
BRANCH 39 55
ATOM     55  O4  SGN C   4     153.994  40.369  51.6200  0.00  0.00     0.000 O
BRANCH 55 59
ATOM     56  C1  SGN C   4     152.874  43.498  54.1610  0.00  0.00     0.000 C
ATOM     57  C2  SGN C   4     153.800  42.425  54.7590  0.00  0.00     0.000 C
ATOM     58  C3  SGN C   4     154.439  41.586  53.6560  0.00  0.00     0.000 C
ATOM     59  C4  SGN C   4     153.377  41.058  52.6980  0.00  0.00     0.000 C
ATOM     60  C5  SGN C   4     152.566  42.238  52.1660  0.00  0.00     0.000 C
ATOM     61  O5  SGN C   4     151.937  42.895  53.2840  0.00  0.00     0.000 O
ATOM     62   O  SGN C   4     155.169  40.513  54.2360  0.00  0.00     0.000 O
ATOM     64  HD  SGN C   4     155.188  41.138  54.8360  0.00  0.00     0.000 HD
BRANCH 57 66
ATOM     64   N  SGN C   4     153.474  43.040  56.0560  0.00  0.00     0.000 N
ATOM     66  HD  SGN C   4     153.509  42.801  56.8870  0.00  0.00     0.000 HD
ATOM     66   S  SGN C   4     154.563  43.100  57.2220  0.00  0.00     0.000 S
ATOM     67   O  SGN C   4     153.941  43.686  58.3530  0.00  0.00     0.000 OA
ATOM     68   O  SGN C   4     155.128  41.799  57.3300  0.00  0.00     0.000 OA
ATOM     69   O  SGN C   4     155.650  44.074  56.6640  0.00  0.00     0.000 OA
ENDBRANCH 57 66
BRANCH 60 70
ATOM     70   C  SGN C   4     151.479  41.842  51.1910  0.00  0.00     0.000 C
ATOM     71   O  SGN C   4     147.892  41.076  52.0010  0.00  0.00     0.000 OA
ATOM     72   O  SGN C   4     148.790  43.120  51.0700  0.00  0.00     0.000 OA
ATOM     73   O  SGN C   4     150.293  41.429  51.8970  0.00  0.00     0.000 O
ATOM     74   S  SGN C   4     148.898  41.681  51.1580  0.00  0.00     0.000 S
ATOM     75   O  SGN C   4     149.038  41.033  49.8700  0.00  0.00     0.000 OA
ENDBRANCH 60 70
BRANCH 56 76
ATOM     76  O4  IDS C   5     153.006  44.786  53.7940  0.00  0.00     0.000 O
BRANCH 76 80
ATOM     77  C1  IDS C   5     149.361  46.571  53.3640  0.00  0.00     0.000 C
ATOM     78  C2  IDS C   5     150.299  46.750  52.1710  0.00  0.00     0.000 C
ATOM     79  C3  IDS C   5     151.409  45.719  52.2300  0.00  0.00     0.000 C
ATOM     80  C4  IDS C   5     152.283  45.979  53.4530  0.00  0.00     0.000 C
ATOM     81  C5  IDS C   5     151.397  46.422  54.6260  0.00  0.00     0.000 C
ATOM     82  O5  IDS C   5     150.057  45.956  54.4480  0.00  0.00     0.000 O
BRANCH 78 83
ATOM     83   O  IDS C   5     149.565  46.576  50.8960  0.00  0.00     0.000 O
ATOM     84   S  IDS C   5     149.513  47.772  49.8420  0.00  0.00     0.000 S
ATOM     85   O  IDS C   5     149.138  48.943  50.5890  0.00  0.00     0.000 OA
ATOM     86   O  IDS C   5     150.846  47.852  49.2920  0.00  0.00     0.000 OA
ATOM     87   O  IDS C   5     148.529  47.385  48.8600  0.00  0.00     0.000 OA
ENDBRANCH 78 83
BRANCH 81 88
ATOM     88   C  IDS C   5     151.876  45.930  55.9800  0.00  0.00     0.000 C
ATOM     89   O  IDS C   5     151.183  45.195  56.6300  0.00  0.00     0.000 OA
ATOM     90   O  IDS C   5     152.957  46.281  56.3970  0.00  0.00     0.000 OA
ENDBRANCH 81 88
ENDBRANCH 76 80
ENDBRANCH 56 76
ENDBRANCH 55 59
ENDBRANCH 39 55
ENDBRANCH 38 42
ENDBRANCH 18 38
ENDBRANCH 17 21
ENDBRANCH 1 17
TORSDOF 18
ENDMDL
MODEL 55
REMARK VINA RESULT:      -5.0     10.934     15.788
ROOT
ATOM      1  C1  IDS C   1     144.726  44.330  43.2230  0.00  0.00     0.000 C
ATOM      2  C2  IDS C   1     145.716  45.415  42.7930  0.00  0.00     0.000 C
ATOM      3  C3  IDS C   1     146.857  45.533  43.7930  0.00  0.00     0.000 C
ATOM      4  C4  IDS C   1     146.323  45.863  45.1800  0.00  0.00     0.000 C
ATOM      5  C5  IDS C   1     145.032  45.092  45.4400  0.00  0.00     0.000 C
ATOM      6  O5  IDS C   1     144.955  43.958  44.5760  0.00  0.00     0.000 O
ATOM      7   O  IDS C   1     147.773  46.552  43.3660  0.00  0.00     0.000 O
ATOM      9  HD  IDS C   1     147.825  46.526  42.5020  0.00  0.00     0.000 HD
ENDROOT
BRANCH 2 9
ATOM      9   O  IDS C   1     146.310  45.094  41.4750  0.00  0.00     0.000 O
ATOM     10   S  IDS C   1     146.046  46.067  40.2390  0.00  0.00     0.000 S
ATOM     11   O  IDS C   1     146.762  45.492  39.1220  0.00  0.00     0.000 OA
ATOM     12   O  IDS C   1     144.611  46.072  40.0460  0.00  0.00     0.000 OA
ATOM     13   O  IDS C   1     146.566  47.357  40.6340  0.00  0.00     0.000 OA
ENDBRANCH 2 9
BRANCH 5 14
ATOM     14   C  IDS C   1     144.933  44.609  46.8780  0.00  0.00     0.000 C
ATOM     15   O  IDS C   1     144.307  45.257  47.6800  0.00  0.00     0.000 OA
ATOM     16   O  IDS C   1     145.488  43.574  47.2080  0.00  0.00     0.000 OA
ENDBRANCH 5 14
BRANCH 1 17
ATOM     17  O4  SGN C   2     144.195  43.449  42.3700  0.00  0.00     0.000 O
BRANCH 17 21
ATOM     18  C1  SGN C   2     144.384  39.805  40.3180  0.00  0.00     0.000 C
ATOM     19  C2  SGN C   2     145.601  40.175  41.1750  0.00  0.00     0.000 C
ATOM     20  C3  SGN C   2     145.221  41.280  42.1680  0.00  0.00     0.000 C
ATOM     21  C4  SGN C   2     144.603  42.460  41.4280  0.00  0.00     0.000 C
ATOM     22  C5  SGN C   2     143.405  41.970  40.6190  0.00  0.00     0.000 C
ATOM     23  O5  SGN C   2     143.829  40.943  39.6930  0.00  0.00     0.000 O
ATOM     24   O  SGN C   2     146.365  41.684  42.9010  0.00  0.00     0.000 O
ATOM     26  HD  SGN C   2     145.535  41.468  42.7810  0.00  0.00     0.000 HD
BRANCH 19 28
ATOM     26   N  SGN C   2     146.233  38.862  41.3690  0.00  0.00     0.000 N
ATOM     28  HD  SGN C   2     145.837  38.789  40.6020  0.00  0.00     0.000 HD
ATOM     28   O  SGN C   2     148.122  37.513  42.2810  0.00  0.00     0.000 OA
ATOM     29   S  SGN C   2     147.821  38.645  41.2420  0.00  0.00     0.000 S
ATOM     30   O  SGN C   2     148.081  38.150  39.9450  0.00  0.00     0.000 OA
ATOM     31   O  SGN C   2     148.455  39.841  41.6770  0.00  0.00     0.000 OA
ENDBRANCH 19 28
BRANCH 22 32
ATOM     32   C  SGN C   2     142.752  43.055  39.7990  0.00  0.00     0.000 C
ATOM     33   S  SGN C   2     141.146  43.268  37.7950  0.00  0.00     0.000 S
ATOM     34   O  SGN C   2     142.180  42.942  36.8440  0.00  0.00     0.000 OA
ATOM     35   O  SGN C   2     139.857  42.694  37.4700  0.00  0.00     0.000 OA
ATOM     36   O  SGN C   2     141.082  44.669  38.1380  0.00  0.00     0.000 OA
ATOM     37   O  SGN C   2     141.597  42.527  39.1350  0.00  0.00     0.000 O
ENDBRANCH 22 32
BRANCH 18 38
ATOM     38  O4  IDS C   3     143.326  39.045  40.6070  0.00  0.00     0.000 O
BRANCH 38 42
ATOM     39  C1  IDS C   3     141.222  36.956  42.4340  0.00  0.00     0.000 C
ATOM     40  C2  IDS C   3     142.750  36.812  42.5190  0.00  0.00     0.000 C
ATOM     41  C3  IDS C   3     143.373  36.691  41.1290  0.00  0.00     0.000 C
ATOM     42  C4  IDS C   3     142.838  37.765  40.1910  0.00  0.00     0.000 C
ATOM     43  C5  IDS C   3     141.305  37.756  40.2120  0.00  0.00     0.000 C
ATOM     44  O5  IDS C   3     140.855  37.997  41.5440  0.00  0.00     0.000 O
ATOM     45   O  IDS C   3     143.088  35.398  40.5940  0.00  0.00     0.000 O
ATOM     47  HD  IDS C   3     142.366  34.940  40.4500  0.00  0.00     0.000 HD
BRANCH 40 47
ATOM     47   O  IDS C   3     143.349  38.001  43.1730  0.00  0.00     0.000 O
ATOM     48   S  IDS C   3     144.454  37.810  44.3120  0.00  0.00     0.000 S
ATOM     49   O  IDS C   3     143.732  37.426  45.5060  0.00  0.00     0.000 OA
ATOM     50   O  IDS C   3     145.093  39.101  44.4430  0.00  0.00     0.000 OA
ATOM     51   O  IDS C   3     145.346  36.782  43.8460  0.00  0.00     0.000 OA
ENDBRANCH 40 47
BRANCH 43 52
ATOM     52   C  IDS C   3     140.700  38.782  39.2790  0.00  0.00     0.000 C
ATOM     53   O  IDS C   3     139.668  39.336  39.5790  0.00  0.00     0.000 OA
ATOM     54   O  IDS C   3     141.252  39.042  38.2400  0.00  0.00     0.000 OA
ENDBRANCH 43 52
BRANCH 39 55
ATOM     55  O4  SGN C   4     140.382  35.921  42.4340  0.00  0.00     0.000 O
BRANCH 55 59
ATOM     56  C1  SGN C   4     138.021  33.089  44.4110  0.00  0.00     0.000 C
ATOM     57  C2  SGN C   4     137.318  34.384  43.9730  0.00  0.00     0.000 C
ATOM     58  C3  SGN C   4     138.158  35.134  42.9420  0.00  0.00     0.000 C
ATOM     59  C4  SGN C   4     139.586  35.316  43.4430  0.00  0.00     0.000 C
ATOM     60  C5  SGN C   4     140.157  33.946  43.8060  0.00  0.00     0.000 C
ATOM     61  O5  SGN C   4     139.340  33.377  44.8480  0.00  0.00     0.000 O
ATOM     62   O  SGN C   4     137.560  36.394  42.6660  0.00  0.00     0.000 O
ATOM     64  HD  SGN C   4     136.897  35.884  42.8950  0.00  0.00     0.000 HD
BRANCH 57 66
ATOM     64   N  SGN C   4     136.204  33.792  44.7310  0.00  0.00     0.000 N
ATOM     66  HD  SGN C   4     135.545  34.088  45.2080  0.00  0.00     0.000 HD
ATOM     66   S  SGN C   4     134.700  34.247  44.4520  0.00  0.00     0.000 S
ATOM     67   O  SGN C   4     133.870  33.554  45.3680  0.00  0.00     0.000 OA
ATOM     68   O  SGN C   4     134.691  35.669  44.4370  0.00  0.00     0.000 OA
ATOM     69   O  SGN C   4     134.419  33.730  43.0040  0.00  0.00     0.000 OA
ENDBRANCH 57 66
BRANCH 60 70
ATOM     70   C  SGN C   4     141.583  33.993  44.3100  0.00  0.00     0.000 C
ATOM     71   O  SGN C   4     144.281  31.455  43.6880  0.00  0.00     0.000 OA
ATOM     72   O  SGN C   4     143.983  33.589  42.5900  0.00  0.00     0.000 OA
ATOM     73   O  SGN C   4     142.255  32.747  44.0420  0.00  0.00     0.000 O
ATOM     74   S  SGN C   4     143.835  32.824  43.8070  0.00  0.00     0.000 S
ATOM     75   O  SGN C   4     144.351  33.500  44.9800  0.00  0.00     0.000 OA
ENDBRANCH 60 70
BRANCH 56 76
ATOM     76  O4  IDS C   5     137.994  31.800  44.0240  0.00  0.00     0.000 O
BRANCH 76 80
ATOM     77  C1  IDS C   5     137.512  28.628  41.5020  0.00  0.00     0.000 C
ATOM     78  C2  IDS C   5     136.349  29.619  41.5030  0.00  0.00     0.000 C
ATOM     79  C3  IDS C   5     136.797  30.937  42.1030  0.00  0.00     0.000 C
ATOM     80  C4  IDS C   5     137.138  30.738  43.5770  0.00  0.00     0.000 C
ATOM     81  C5  IDS C   5     137.829  29.379  43.7600  0.00  0.00     0.000 C
ATOM     82  O5  IDS C   5     138.439  28.957  42.5360  0.00  0.00     0.000 O
BRANCH 78 83
ATOM     83   O  IDS C   5     135.873  29.871  40.1230  0.00  0.00     0.000 O
ATOM     84   S  IDS C   5     134.405  29.416  39.6950  0.00  0.00     0.000 S
ATOM     85   O  IDS C   5     134.270  28.052  40.1320  0.00  0.00     0.000 OA
ATOM     86   O  IDS C   5     133.514  30.323  40.3790  0.00  0.00     0.000 OA
ATOM     87   O  IDS C   5     134.353  29.562  38.2610  0.00  0.00     0.000 OA
ENDBRANCH 78 83
BRANCH 81 88
ATOM     88   C  IDS C   5     138.904  29.374  44.8320  0.00  0.00     0.000 C
ATOM     89   O  IDS C   5     140.063  29.313  44.5180  0.00  0.00     0.000 OA
ATOM     90   O  IDS C   5     138.587  29.434  45.9980  0.00  0.00     0.000 OA
ENDBRANCH 81 88
ENDBRANCH 76 80
ENDBRANCH 56 76
ENDBRANCH 55 59
ENDBRANCH 39 55
ENDBRANCH 38 42
ENDBRANCH 18 38
ENDBRANCH 17 21
ENDBRANCH 1 17
TORSDOF 18
ENDMDL
MODEL 56
REMARK VINA RESULT:      -4.9     10.406     19.128
ROOT
ATOM      1  C1  IDS C   1     163.295  38.009  47.6200  0.00  0.00     0.000 C
ATOM      2  C2  IDS C   1     162.151  37.659  46.6650  0.00  0.00     0.000 C
ATOM      3  C3  IDS C   1     162.233  38.493  45.3950  0.00  0.00     0.000 C
ATOM      4  C4  IDS C   1     162.177  39.978  45.7230  0.00  0.00     0.000 C
ATOM      5  C5  IDS C   1     162.979  40.265  46.9880  0.00  0.00     0.000 C
ATOM      6  O5  IDS C   1     163.923  39.220  47.2190  0.00  0.00     0.000 O
ATOM      7   O  IDS C   1     161.155  38.144  44.5150  0.00  0.00     0.000 O
ATOM      9  HD  IDS C   1     161.013  37.293  44.5830  0.00  0.00     0.000 HD
ENDROOT
BRANCH 2 9
ATOM      9   O  IDS C   1     162.212  36.234  46.2680  0.00  0.00     0.000 O
ATOM     10   S  IDS C   1     160.976  35.278  46.5850  0.00  0.00     0.000 S
ATOM     11   O  IDS C   1     161.337  33.977  46.0680  0.00  0.00     0.000 OA
ATOM     12   O  IDS C   1     160.832  35.292  48.0260  0.00  0.00     0.000 OA
ATOM     13   O  IDS C   1     159.842  35.859  45.9000  0.00  0.00     0.000 OA
ENDBRANCH 2 9
BRANCH 5 14
ATOM     14   C  IDS C   1     163.731  41.583  46.9040  0.00  0.00     0.000 C
ATOM     15   O  IDS C   1     164.675  41.681  46.1580  0.00  0.00     0.000 OA
ATOM     16   O  IDS C   1     163.377  42.527  47.5900  0.00  0.00     0.000 OA
ENDBRANCH 5 14
BRANCH 1 17
ATOM     17  O4  SGN C   2     163.992  37.086  48.2900  0.00  0.00     0.000 O
BRANCH 17 21
ATOM     18  C1  SGN C   2     167.097  34.299  48.6330  0.00  0.00     0.000 C
ATOM     19  C2  SGN C   2     167.060  35.131  47.3450  0.00  0.00     0.000 C
ATOM     20  C3  SGN C   2     166.164  36.359  47.5460  0.00  0.00     0.000 C
ATOM     21  C4  SGN C   2     164.789  35.930  48.0460  0.00  0.00     0.000 C
ATOM     22  C5  SGN C   2     164.957  35.118  49.3270  0.00  0.00     0.000 C
ATOM     23  O5  SGN C   2     165.795  33.968  49.0710  0.00  0.00     0.000 O
ATOM     24   O  SGN C   2     166.059  37.083  46.3310  0.00  0.00     0.000 O
ATOM     26  HD  SGN C   2     166.150  36.976  47.1860  0.00  0.00     0.000 HD
BRANCH 19 28
ATOM     26   N  SGN C   2     168.427  34.948  46.8390  0.00  0.00     0.000 N
ATOM     28  HD  SGN C   2     168.236  34.183  47.1970  0.00  0.00     0.000 HD
ATOM     28   O  SGN C   2     170.160  35.474  45.1230  0.00  0.00     0.000 OA
ATOM     29   S  SGN C   2     168.751  34.806  45.2700  0.00  0.00     0.000 S
ATOM     30   O  SGN C   2     168.873  33.428  44.9840  0.00  0.00     0.000 OA
ATOM     31   O  SGN C   2     167.800  35.589  44.5610  0.00  0.00     0.000 OA
ENDBRANCH 19 28
BRANCH 22 32
ATOM     32   C  SGN C   2     163.653  34.593  49.8770  0.00  0.00     0.000 C
ATOM     33   S  SGN C   2     162.465  32.332  50.2190  0.00  0.00     0.000 S
ATOM     34   O  SGN C   2     162.108  32.231  48.8260  0.00  0.00     0.000 OA
ATOM     35   O  SGN C   2     162.851  31.069  50.8130  0.00  0.00     0.000 OA
ATOM     36   O  SGN C   2     161.519  33.077  51.0160  0.00  0.00     0.000 OA
ATOM     37   O  SGN C   2     163.798  33.210  50.2210  0.00  0.00     0.000 O
ENDBRANCH 22 32
BRANCH 18 38
ATOM     38  O4  IDS C   3     167.780  34.490  49.7630  0.00  0.00     0.000 O
BRANCH 38 42
ATOM     39  C1  IDS C   3     170.569  34.292  51.8400  0.00  0.00     0.000 C
ATOM     40  C2  IDS C   3     170.244  33.169  50.8420  0.00  0.00     0.000 C
ATOM     41  C3  IDS C   3     168.802  32.689  51.0000  0.00  0.00     0.000 C
ATOM     42  C4  IDS C   3     167.833  33.862  51.0490  0.00  0.00     0.000 C
ATOM     43  C5  IDS C   3     168.294  34.873  52.1060  0.00  0.00     0.000 C
ATOM     44  O5  IDS C   3     169.604  35.329  51.7760  0.00  0.00     0.000 O
ATOM     45   O  IDS C   3     168.688  31.919  52.1980  0.00  0.00     0.000 O
ATOM     47  HD  IDS C   3     168.868  32.058  53.0340  0.00  0.00     0.000 HD
BRANCH 40 47
ATOM     47   O  IDS C   3     170.402  33.651  49.4490  0.00  0.00     0.000 O
ATOM     48   S  IDS C   3     171.731  33.298  48.6310  0.00  0.00     0.000 S
ATOM     49   O  IDS C   3     172.754  34.191  49.1330  0.00  0.00     0.000 OA
ATOM     50   O  IDS C   3     171.405  33.555  47.2460  0.00  0.00     0.000 OA
ATOM     51   O  IDS C   3     172.018  31.914  48.8990  0.00  0.00     0.000 OA
ENDBRANCH 40 47
BRANCH 43 52
ATOM     52   C  IDS C   3     167.360  36.057  52.2310  0.00  0.00     0.000 C
ATOM     53   O  IDS C   3     166.208  35.885  52.5560  0.00  0.00     0.000 OA
ATOM     54   O  IDS C   3     167.771  37.167  52.0070  0.00  0.00     0.000 OA
ENDBRANCH 43 52
BRANCH 39 55
ATOM     55  O4  SGN C   4     171.051  34.075  53.0640  0.00  0.00     0.000 O
BRANCH 55 59
ATOM     56  C1  SGN C   4     173.855  36.131  55.3910  0.00  0.00     0.000 C
ATOM     57  C2  SGN C   4     174.093  36.128  53.8710  0.00  0.00     0.000 C
ATOM     58  C3  SGN C   4     172.829  35.705  53.1260  0.00  0.00     0.000 C
ATOM     59  C4  SGN C   4     172.282  34.401  53.6950  0.00  0.00     0.000 C
ATOM     60  C5  SGN C   4     172.067  34.572  55.1970  0.00  0.00     0.000 C
ATOM     61  O5  SGN C   4     173.339  34.876  55.8040  0.00  0.00     0.000 O
ATOM     62   O  SGN C   4     173.118  35.567  51.7420  0.00  0.00     0.000 O
ATOM     64  HD  SGN C   4     173.682  36.160  52.0220  0.00  0.00     0.000 HD
BRANCH 57 66
ATOM     64   N  SGN C   4     175.512  36.476  54.0500  0.00  0.00     0.000 N
ATOM     66  HD  SGN C   4     176.200  36.580  53.5350  0.00  0.00     0.000 HD
ATOM     66   S  SGN C   4     176.160  37.685  53.2350  0.00  0.00     0.000 S
ATOM     67   O  SGN C   4     177.536  37.733  53.5700  0.00  0.00     0.000 OA
ATOM     68   O  SGN C   4     175.777  37.523  51.8750  0.00  0.00     0.000 OA
ATOM     69   O  SGN C   4     175.441  38.947  53.8100  0.00  0.00     0.000 OA
ENDBRANCH 57 66
BRANCH 60 70
ATOM     70   C  SGN C   4     171.513  33.340  55.8790  0.00  0.00     0.000 C
ATOM     71   O  SGN C   4     168.183  31.720  55.2510  0.00  0.00     0.000 OA
ATOM     72   O  SGN C   4     170.345  31.009  54.4350  0.00  0.00     0.000 OA
ATOM     73   O  SGN C   4     170.130  33.146  55.5260  0.00  0.00     0.000 O
ATOM     74   S  SGN C   4     169.603  31.637  55.5050  0.00  0.00     0.000 S
ATOM     75   O  SGN C   4     169.926  31.113  56.8170  0.00  0.00     0.000 OA
ENDBRANCH 60 70
BRANCH 56 76
ATOM     76  O4  IDS C   5     173.478  37.046  56.3040  0.00  0.00     0.000 O
BRANCH 76 80
ATOM     77  C1  IDS C   5     169.572  38.065  56.9100  0.00  0.00     0.000 C
ATOM     78  C2  IDS C   5     170.304  38.935  55.8880  0.00  0.00     0.000 C
ATOM     79  C3  IDS C   5     171.560  38.229  55.4170  0.00  0.00     0.000 C
ATOM     80  C4  IDS C   5     172.537  38.094  56.5810  0.00  0.00     0.000 C
ATOM     81  C5  IDS C   5     171.757  37.789  57.8670  0.00  0.00     0.000 C
ATOM     82  O5  IDS C   5     170.495  37.190  57.5590  0.00  0.00     0.000 O
BRANCH 78 83
ATOM     83   O  IDS C   5     169.443  39.195  54.7110  0.00  0.00     0.000 O
ATOM     84   S  IDS C   5     168.898  40.669  54.4380  0.00  0.00     0.000 S
ATOM     85   O  IDS C   5     168.352  41.127  55.6880  0.00  0.00     0.000 OA
ATOM     86   O  IDS C   5     170.051  41.427  54.0110  0.00  0.00     0.000 OA
ATOM     87   O  IDS C   5     167.906  40.533  53.3990  0.00  0.00     0.000 OA
ENDBRANCH 78 83
BRANCH 81 88
ATOM     88   C  IDS C   5     172.484  36.860  58.8220  0.00  0.00     0.000 C
ATOM     89   O  IDS C   5     173.347  37.292  59.5380  0.00  0.00     0.000 OA
ATOM     90   O  IDS C   5     172.188  35.687  58.8580  0.00  0.00     0.000 OA
ENDBRANCH 81 88
ENDBRANCH 76 80
ENDBRANCH 56 76
ENDBRANCH 55 59
ENDBRANCH 39 55
ENDBRANCH 38 42
ENDBRANCH 18 38
ENDBRANCH 17 21
ENDBRANCH 1 17
TORSDOF 18
ENDMDL
MODEL 57
REMARK VINA RESULT:      -4.9     18.225     23.399
ROOT
ATOM      1  C1  IDS C   1     132.206  46.636  49.0990  0.00  0.00     0.000 C
ATOM      2  C2  IDS C   1     132.883  46.539  50.4690  0.00  0.00     0.000 C
ATOM      3  C3  IDS C   1     132.255  45.432  51.3040  0.00  0.00     0.000 C
ATOM      4  C4  IDS C   1     130.766  45.684  51.4970  0.00  0.00     0.000 C
ATOM      5  C5  IDS C   1     130.158  46.235  50.2110  0.00  0.00     0.000 C
ATOM      6  O5  IDS C   1     130.986  45.906  49.0960  0.00  0.00     0.000 O
ATOM      7   O  IDS C   1     132.908  45.358  52.5800  0.00  0.00     0.000 O
ATOM      9  HD  IDS C   1     133.751  45.523  52.4640  0.00  0.00     0.000 HD
ENDROOT
BRANCH 2 9
ATOM      9   O  IDS C   1     134.323  46.226  50.3240  0.00  0.00     0.000 O
ATOM     10   S  IDS C   1     135.406  47.220  50.9420  0.00  0.00     0.000 S
ATOM     11   O  IDS C   1     136.695  46.634  50.6480  0.00  0.00     0.000 OA
ATOM     12   O  IDS C   1     135.198  48.488  50.2740  0.00  0.00     0.000 OA
ATOM     13   O  IDS C   1     135.126  47.277  52.3600  0.00  0.00     0.000 OA
ENDBRANCH 2 9
BRANCH 5 14
ATOM     14   C  IDS C   1     128.765  45.686  49.9550  0.00  0.00     0.000 C
ATOM     15   O  IDS C   1     128.639  44.591  49.4640  0.00  0.00     0.000 OA
ATOM     16   O  IDS C   1     127.788  46.356  50.2440  0.00  0.00     0.000 OA
ENDBRANCH 5 14
BRANCH 1 17
ATOM     17  O4  SGN C   2     132.886  46.803  47.9610  0.00  0.00     0.000 O
BRANCH 17 21
ATOM     18  C1  SGN C   2     134.323  45.607  44.2160  0.00  0.00     0.000 C
ATOM     19  C2  SGN C   2     133.235  44.729  44.8460  0.00  0.00     0.000 C
ATOM     20  C3  SGN C   2     132.529  45.502  45.9670  0.00  0.00     0.000 C
ATOM     21  C4  SGN C   2     133.552  46.033  46.9640  0.00  0.00     0.000 C
ATOM     22  C5  SGN C   2     134.573  46.890  46.2220  0.00  0.00     0.000 C
ATOM     23  O5  SGN C   2     135.215  46.104  45.1910  0.00  0.00     0.000 O
ATOM     24   O  SGN C   2     131.582  44.664  46.6080  0.00  0.00     0.000 O
ATOM     26  HD  SGN C   2     131.885  45.395  46.2570  0.00  0.00     0.000 HD
BRANCH 19 28
ATOM     26   N  SGN C   2     132.666  44.062  43.6670  0.00  0.00     0.000 N
ATOM     28  HD  SGN C   2     133.461  44.292  43.4100  0.00  0.00     0.000 HD
ATOM     28   O  SGN C   2     131.173  42.303  42.7200  0.00  0.00     0.000 OA
ATOM     29   S  SGN C   2     132.458  42.469  43.5990  0.00  0.00     0.000 S
ATOM     30   O  SGN C   2     133.558  41.925  42.8980  0.00  0.00     0.000 OA
ATOM     31   O  SGN C   2     132.169  42.014  44.9150  0.00  0.00     0.000 OA
ENDBRANCH 19 28
BRANCH 22 32
ATOM     32   C  SGN C   2     135.670  47.420  47.1120  0.00  0.00     0.000 C
ATOM     33   S  SGN C   2     138.231  47.704  47.0730  0.00  0.00     0.000 S
ATOM     34   O  SGN C   2     138.458  46.307  47.3460  0.00  0.00     0.000 OA
ATOM     35   O  SGN C   2     139.169  48.271  46.1260  0.00  0.00     0.000 OA
ATOM     36   O  SGN C   2     138.047  48.512  48.2550  0.00  0.00     0.000 OA
ATOM     37   O  SGN C   2     136.823  47.733  46.3220  0.00  0.00     0.000 O
ENDBRANCH 22 32
BRANCH 18 38
ATOM     38  O4  IDS C   3     134.223  46.602  43.3310  0.00  0.00     0.000 O
BRANCH 38 42
ATOM     39  C1  IDS C   3     134.970  48.863  40.7910  0.00  0.00     0.000 C
ATOM     40  C2  IDS C   3     134.118  49.283  41.9990  0.00  0.00     0.000 C
ATOM     41  C3  IDS C   3     132.952  48.320  42.2140  0.00  0.00     0.000 C
ATOM     42  C4  IDS C   3     133.419  46.871  42.1770  0.00  0.00     0.000 C
ATOM     43  C5  IDS C   3     134.234  46.621  40.9020  0.00  0.00     0.000 C
ATOM     44  O5  IDS C   3     135.355  47.502  40.8840  0.00  0.00     0.000 O
ATOM     45   O  IDS C   3     131.967  48.535  41.2010  0.00  0.00     0.000 O
ATOM     47  HD  IDS C   3     131.971  48.538  40.3350  0.00  0.00     0.000 HD
BRANCH 40 47
ATOM     47   O  IDS C   3     134.933  49.278  43.2370  0.00  0.00     0.000 O
ATOM     48   S  IDS C   3     136.107  50.348  43.4210  0.00  0.00     0.000 S
ATOM     49   O  IDS C   3     137.207  49.875  42.6090  0.00  0.00     0.000 OA
ATOM     50   O  IDS C   3     136.417  50.334  44.8340  0.00  0.00     0.000 OA
ATOM     51   O  IDS C   3     135.583  51.610  42.9700  0.00  0.00     0.000 OA
ENDBRANCH 40 47
BRANCH 43 52
ATOM     52   C  IDS C   3     134.710  45.190  40.7830  0.00  0.00     0.000 C
ATOM     53   O  IDS C   3     133.905  44.288  40.7410  0.00  0.00     0.000 OA
ATOM     54   O  IDS C   3     135.890  44.956  40.7300  0.00  0.00     0.000 OA
ENDBRANCH 43 52
BRANCH 39 55
ATOM     55  O4  SGN C   4     134.740  49.278  39.5450  0.00  0.00     0.000 O
BRANCH 55 59
ATOM     56  C1  SGN C   4     138.121  50.105  37.2230  0.00  0.00     0.000 C
ATOM     57  C2  SGN C   4     137.630  51.231  38.1490  0.00  0.00     0.000 C
ATOM     58  C3  SGN C   4     136.669  50.686  39.2020  0.00  0.00     0.000 C
ATOM     59  C4  SGN C   4     135.564  49.864  38.5480  0.00  0.00     0.000 C
ATOM     60  C5  SGN C   4     136.206  48.772  37.6940  0.00  0.00     0.000 C
ATOM     61  O5  SGN C   4     137.012  49.405  36.6810  0.00  0.00     0.000 O
ATOM     62   O  SGN C   4     136.118  51.765  39.9460  0.00  0.00     0.000 O
ATOM     64  HD  SGN C   4     136.892  52.053  39.6880  0.00  0.00     0.000 HD
BRANCH 57 66
ATOM     64   N  SGN C   4     138.766  51.917  37.5120  0.00  0.00     0.000 N
ATOM     66  HD  SGN C   4     138.922  52.708  37.1970  0.00  0.00     0.000 HD
ATOM     66   S  SGN C   4     139.313  53.297  38.0980  0.00  0.00     0.000 S
ATOM     67   O  SGN C   4     140.357  53.736  37.2460  0.00  0.00     0.000 OA
ATOM     68   O  SGN C   4     138.184  54.135  38.3100  0.00  0.00     0.000 OA
ATOM     69   O  SGN C   4     139.909  52.900  39.4870  0.00  0.00     0.000 OA
ENDBRANCH 57 66
BRANCH 60 70
ATOM     70   C  SGN C   4     135.205  47.877  36.9950  0.00  0.00     0.000 C
ATOM     71   O  SGN C   4     135.952  44.776  35.0130  0.00  0.00     0.000 OA
ATOM     72   O  SGN C   4     135.125  44.912  37.2820  0.00  0.00     0.000 OA
ATOM     73   O  SGN C   4     135.883  46.910  36.1700  0.00  0.00     0.000 O
ATOM     74   S  SGN C   4     135.147  45.506  35.9640  0.00  0.00     0.000 S
ATOM     75   O  SGN C   4     133.830  45.848  35.4640  0.00  0.00     0.000 OA
ENDBRANCH 60 70
BRANCH 56 76
ATOM     76  O4  IDS C   5     139.178  49.273  37.1980  0.00  0.00     0.000 O
BRANCH 76 80
ATOM     77  C1  IDS C   5     141.687  46.054  37.2690  0.00  0.00     0.000 C
ATOM     78  C2  IDS C   5     140.550  45.995  38.2880  0.00  0.00     0.000 C
ATOM     79  C3  IDS C   5     139.458  46.972  37.8980  0.00  0.00     0.000 C
ATOM     80  C4  IDS C   5     139.990  48.398  37.9950  0.00  0.00     0.000 C
ATOM     81  C5  IDS C   5     141.448  48.431  37.5130  0.00  0.00     0.000 C
ATOM     82  O5  IDS C   5     141.711  47.333  36.6340  0.00  0.00     0.000 O
BRANCH 78 83
ATOM     83   O  IDS C   5     139.964  44.635  38.3410  0.00  0.00     0.000 O
ATOM     84   S  IDS C   5     140.057  43.784  39.6880  0.00  0.00     0.000 S
ATOM     85   O  IDS C   5     141.430  43.858  40.1090  0.00  0.00     0.000 OA
ATOM     86   O  IDS C   5     139.145  44.427  40.6050  0.00  0.00     0.000 OA
ATOM     87   O  IDS C   5     139.640  42.448  39.3350  0.00  0.00     0.000 OA
ENDBRANCH 78 83
BRANCH 81 88
ATOM     88   C  IDS C   5     141.825  49.705  36.7780  0.00  0.00     0.000 C
ATOM     89   O  IDS C   5     142.114  49.661  35.6130  0.00  0.00     0.000 OA
ATOM     90   O  IDS C   5     141.831  50.759  37.3720  0.00  0.00     0.000 OA
ENDBRANCH 81 88
ENDBRANCH 76 80
ENDBRANCH 56 76
ENDBRANCH 55 59
ENDBRANCH 39 55
ENDBRANCH 38 42
ENDBRANCH 18 38
ENDBRANCH 17 21
ENDBRANCH 1 17
TORSDOF 18
ENDMDL
MODEL 58
REMARK VINA RESULT:      -4.8      5.776     12.814
ROOT
ATOM      1  C1  IDS C   1     146.719  43.843  45.3430  0.00  0.00     0.000 C
ATOM      2  C2  IDS C   1     145.848  44.446  46.4480  0.00  0.00     0.000 C
ATOM      3  C3  IDS C   1     144.424  44.662  45.9560  0.00  0.00     0.000 C
ATOM      4  C4  IDS C   1     144.408  45.583  44.7450  0.00  0.00     0.000 C
ATOM      5  C5  IDS C   1     145.589  45.269  43.8330  0.00  0.00     0.000 C
ATOM      6  O5  IDS C   1     146.066  43.947  44.0840  0.00  0.00     0.000 O
ATOM      7   O  IDS C   1     143.627  45.223  47.0090  0.00  0.00     0.000 O
ATOM      9  HD  IDS C   1     143.882  44.874  47.7590  0.00  0.00     0.000 HD
ENDROOT
BRANCH 2 9
ATOM      9   O  IDS C   1     145.784  43.544  47.6200  0.00  0.00     0.000 O
ATOM     10   S  IDS C   1     146.343  44.046  49.0270  0.00  0.00     0.000 S
ATOM     11   O  IDS C   1     146.125  42.957  49.9520  0.00  0.00     0.000 OA
ATOM     12   O  IDS C   1     147.747  44.329  48.8090  0.00  0.00     0.000 OA
ATOM     13   O  IDS C   1     145.576  45.226  49.3590  0.00  0.00     0.000 OA
ENDBRANCH 2 9
BRANCH 5 14
ATOM     14   C  IDS C   1     145.223  45.377  42.3620  0.00  0.00     0.000 C
ATOM     15   O  IDS C   1     146.020  45.842  41.5840  0.00  0.00     0.000 OA
ATOM     16   O  IDS C   1     144.129  44.996  41.9810  0.00  0.00     0.000 OA
ENDBRANCH 5 14
BRANCH 1 17
ATOM     17  O4  SGN C   2     147.591  42.855  45.5620  0.00  0.00     0.000 O
BRANCH 17 21
ATOM     18  C1  SGN C   2     148.620  38.799  45.4390  0.00  0.00     0.000 C
ATOM     19  C2  SGN C   2     147.201  39.162  44.9820  0.00  0.00     0.000 C
ATOM     20  C3  SGN C   2     147.121  40.664  44.6820  0.00  0.00     0.000 C
ATOM     21  C4  SGN C   2     147.610  41.466  45.8810  0.00  0.00     0.000 C
ATOM     22  C5  SGN C   2     149.026  41.020  46.2350  0.00  0.00     0.000 C
ATOM     23  O5  SGN C   2     149.034  39.603  46.5240  0.00  0.00     0.000 O
ATOM     24   O  SGN C   2     145.790  41.017  44.3430  0.00  0.00     0.000 O
ATOM     26  HD  SGN C   2     146.654  41.022  44.2770  0.00  0.00     0.000 HD
BRANCH 19 28
ATOM     26   N  SGN C   2     146.830  37.969  44.2080  0.00  0.00     0.000 N
ATOM     28  HD  SGN C   2     147.344  37.658  44.8320  0.00  0.00     0.000 HD
ATOM     28   O  SGN C   2     145.139  36.755  42.8340  0.00  0.00     0.000 OA
ATOM     29   S  SGN C   2     145.358  37.326  44.2760  0.00  0.00     0.000 S
ATOM     30   O  SGN C   2     145.406  36.247  45.1860  0.00  0.00     0.000 OA
ATOM     31   O  SGN C   2     144.433  38.385  44.4900  0.00  0.00     0.000 OA
ENDBRANCH 19 28
BRANCH 22 32
ATOM     32   C  SGN C   2     149.586  41.715  47.4520  0.00  0.00     0.000 C
ATOM     33   S  SGN C   2     150.380  41.121  49.8300  0.00  0.00     0.000 S
ATOM     34   O  SGN C   2     149.032  40.989  50.3220  0.00  0.00     0.000 OA
ATOM     35   O  SGN C   2     151.295  40.137  50.3720  0.00  0.00     0.000 OA
ATOM     36   O  SGN C   2     150.895  42.469  49.8750  0.00  0.00     0.000 OA
ATOM     37   O  SGN C   2     150.269  40.765  48.2780  0.00  0.00     0.000 O
ENDBRANCH 22 32
BRANCH 18 38
ATOM     38  O4  IDS C   3     149.734  38.615  44.7270  0.00  0.00     0.000 O
BRANCH 38 42
ATOM     39  C1  IDS C   3     151.683  38.071  41.8930  0.00  0.00     0.000 C
ATOM     40  C2  IDS C   3     150.305  37.407  42.0460  0.00  0.00     0.000 C
ATOM     41  C3  IDS C   3     150.193  36.669  43.3800  0.00  0.00     0.000 C
ATOM     42  C4  IDS C   3     150.663  37.543  44.5350  0.00  0.00     0.000 C
ATOM     43  C5  IDS C   3     152.055  38.106  44.2260  0.00  0.00     0.000 C
ATOM     44  O5  IDS C   3     151.994  38.869  43.0230  0.00  0.00     0.000 O
ATOM     45   O  IDS C   3     150.977  35.476  43.3280  0.00  0.00     0.000 O
ATOM     47  HD  IDS C   3     151.806  35.295  43.1520  0.00  0.00     0.000 HD
BRANCH 40 47
ATOM     47   O  IDS C   3     149.229  38.426  42.0100  0.00  0.00     0.000 O
ATOM     48   S  IDS C   3     148.132  38.383  40.8470  0.00  0.00     0.000 S
ATOM     49   O  IDS C   3     148.780  38.919  39.6690  0.00  0.00     0.000 OA
ATOM     50   O  IDS C   3     147.050  39.222  41.3130  0.00  0.00     0.000 OA
ATOM     51   O  IDS C   3     147.754  37.003  40.6950  0.00  0.00     0.000 OA
ENDBRANCH 40 47
BRANCH 43 52
ATOM     52   C  IDS C   3     152.601  38.965  45.3460  0.00  0.00     0.000 C
ATOM     53   O  IDS C   3     152.610  38.544  46.4790  0.00  0.00     0.000 OA
ATOM     54   O  IDS C   3     153.024  40.066  45.1010  0.00  0.00     0.000 OA
ENDBRANCH 43 52
BRANCH 39 55
ATOM     55  O4  SGN C   4     152.738  37.466  41.3480  0.00  0.00     0.000 O
BRANCH 55 59
ATOM     56  C1  SGN C   4     155.189  39.753  38.8450  0.00  0.00     0.000 C
ATOM     57  C2  SGN C   4     153.872  39.243  38.2380  0.00  0.00     0.000 C
ATOM     58  C3  SGN C   4     152.914  38.781  39.3320  0.00  0.00     0.000 C
ATOM     59  C4  SGN C   4     153.607  37.805  40.2770  0.00  0.00     0.000 C
ATOM     60  C5  SGN C   4     154.872  38.465  40.8210  0.00  0.00     0.000 C
ATOM     61  O5  SGN C   4     155.737  38.770  39.7090  0.00  0.00     0.000 O
ATOM     62   O  SGN C   4     151.770  38.179  38.7410  0.00  0.00     0.000 O
ATOM     64  HD  SGN C   4     152.044  38.749  38.1500  0.00  0.00     0.000 HD
BRANCH 57 66
ATOM     64   N  SGN C   4     153.784  40.414  37.3510  0.00  0.00     0.000 N
ATOM     66  HD  SGN C   4     154.167  40.675  36.6190  0.00  0.00     0.000 HD
ATOM     66   S  SGN C   4     153.515  40.231  35.7890  0.00  0.00     0.000 S
ATOM     67   O  SGN C   4     153.545  41.520  35.1990  0.00  0.00     0.000 OA
ATOM     68   O  SGN C   4     154.412  39.229  35.3260  0.00  0.00     0.000 OA
ATOM     69   O  SGN C   4     152.059  39.667  35.7270  0.00  0.00     0.000 OA
ENDBRANCH 57 66
BRANCH 60 70
ATOM     70   C  SGN C   4     155.649  37.593  41.7850  0.00  0.00     0.000 C
ATOM     71   O  SGN C   4     158.547  35.350  40.9630  0.00  0.00     0.000 OA
ATOM     72   O  SGN C   4     158.623  37.545  41.9760  0.00  0.00     0.000 OA
ATOM     73   O  SGN C   4     156.547  36.725  41.0680  0.00  0.00     0.000 O
ATOM     74   S  SGN C   4     157.892  36.307  41.8250  0.00  0.00     0.000 S
ATOM     75   O  SGN C   4     157.449  35.742  43.0840  0.00  0.00     0.000 OA
ENDBRANCH 60 70
BRANCH 56 76
ATOM     76  O4  IDS C   5     155.671  40.949  39.2310  0.00  0.00     0.000 O
BRANCH 76 80
ATOM     77  C1  IDS C   5     155.403  42.199  43.1070  0.00  0.00     0.000 C
ATOM     78  C2  IDS C   5     154.256  42.664  42.2100  0.00  0.00     0.000 C
ATOM     79  C3  IDS C   5     154.207  41.813  40.9560  0.00  0.00     0.000 C
ATOM     80  C4  IDS C   5     155.467  42.051  40.1290  0.00  0.00     0.000 C
ATOM     81  C5  IDS C   5     156.671  42.207  41.0680  0.00  0.00     0.000 C
ATOM     82  O5  IDS C   5     156.416  41.569  42.3230  0.00  0.00     0.000 O
BRANCH 78 83
ATOM     83   O  IDS C   5     152.958  42.538  42.9130  0.00  0.00     0.000 O
ATOM     84   S  IDS C   5     152.040  43.827  43.1190  0.00  0.00     0.000 S
ATOM     85   O  IDS C   5     152.905  44.849  43.6440  0.00  0.00     0.000 OA
ATOM     86   O  IDS C   5     151.525  44.138  41.8060  0.00  0.00     0.000 OA
ATOM     87   O  IDS C   5     151.006  43.426  44.0410  0.00  0.00     0.000 OA
ENDBRANCH 78 83
BRANCH 81 88
ATOM     88   C  IDS C   5     157.962  41.631  40.5160  0.00  0.00     0.000 C
ATOM     89   O  IDS C   5     158.568  42.226  39.6660  0.00  0.00     0.000 OA
ATOM     90   O  IDS C   5     158.375  40.575  40.9370  0.00  0.00     0.000 OA
ENDBRANCH 81 88
ENDBRANCH 76 80
ENDBRANCH 56 76
ENDBRANCH 55 59
ENDBRANCH 39 55
ENDBRANCH 38 42
ENDBRANCH 18 38
ENDBRANCH 17 21
ENDBRANCH 1 17
TORSDOF 18
ENDMDL
MODEL 59
REMARK VINA RESULT:      -4.7      9.733     16.739
ROOT
ATOM      1  C1  IDS C   1     174.013  36.365  55.3710  0.00  0.00     0.000 C
ATOM      2  C2  IDS C   1     175.506  36.687  55.2680  0.00  0.00     0.000 C
ATOM      3  C3  IDS C   1     176.226  36.331  56.5600  0.00  0.00     0.000 C
ATOM      4  C4  IDS C   1     175.629  37.092  57.7350  0.00  0.00     0.000 C
ATOM      5  C5  IDS C   1     174.112  37.166  57.5930  0.00  0.00     0.000 C
ATOM      6  O5  IDS C   1     173.648  36.132  56.7250  0.00  0.00     0.000 O
ATOM      7   O  IDS C   1     177.623  36.637  56.4370  0.00  0.00     0.000 O
ATOM      9  HD  IDS C   1     177.870  36.461  55.6260  0.00  0.00     0.000 HD
ENDROOT
BRANCH 2 9
ATOM      9   O  IDS C   1     176.138  35.912  54.1760  0.00  0.00     0.000 O
ATOM     10   S  IDS C   1     176.679  34.441  54.4710  0.00  0.00     0.000 S
ATOM     11   O  IDS C   1     177.216  33.958  53.2190  0.00  0.00     0.000 OA
ATOM     12   O  IDS C   1     177.690  34.596  55.4960  0.00  0.00     0.000 OA
ATOM     13   O  IDS C   1     175.533  33.682  54.9200  0.00  0.00     0.000 OA
ENDBRANCH 2 9
BRANCH 5 14
ATOM     14   C  IDS C   1     173.403  37.025  58.9300  0.00  0.00     0.000 C
ATOM     15   O  IDS C   1     172.563  36.171  59.0700  0.00  0.00     0.000 OA
ATOM     16   O  IDS C   1     173.688  37.776  59.8480  0.00  0.00     0.000 OA
ENDBRANCH 5 14
BRANCH 1 17
ATOM     17  O4  SGN C   2     173.324  35.783  54.3850  0.00  0.00     0.000 O
BRANCH 17 21
ATOM     18  C1  SGN C   2     171.019  32.699  52.7420  0.00  0.00     0.000 C
ATOM     19  C2  SGN C   2     171.302  32.618  54.2470  0.00  0.00     0.000 C
ATOM     20  C3  SGN C   2     171.767  33.985  54.7620  0.00  0.00     0.000 C
ATOM     21  C4  SGN C   2     172.947  34.484  53.9360  0.00  0.00     0.000 C
ATOM     22  C5  SGN C   2     172.543  34.525  52.4650  0.00  0.00     0.000 C
ATOM     23  O5  SGN C   2     172.130  33.208  52.0340  0.00  0.00     0.000 O
ATOM     24   O  SGN C   2     172.112  33.892  56.1340  0.00  0.00     0.000 O
ATOM     26  HD  SGN C   2     171.761  34.247  55.4270  0.00  0.00     0.000 HD
BRANCH 19 28
ATOM     26   N  SGN C   2     170.922  31.550  55.1810  0.00  0.00     0.000 N
ATOM     28  HD  SGN C   2     171.740  31.733  55.3990  0.00  0.00     0.000 HD
ATOM     28   O  SGN C   2     169.159  30.431  56.5460  0.00  0.00     0.000 OA
ATOM     29   S  SGN C   2     169.909  31.798  56.4050  0.00  0.00     0.000 S
ATOM     30   O  SGN C   2     170.687  32.009  57.5650  0.00  0.00     0.000 OA
ATOM     31   O  SGN C   2     168.974  32.789  55.9970  0.00  0.00     0.000 OA
ENDBRANCH 19 28
BRANCH 22 32
ATOM     32   C  SGN C   2     173.663  34.953  51.5490  0.00  0.00     0.000 C
ATOM     33   S  SGN C   2     174.083  36.666  49.6700  0.00  0.00     0.000 S
ATOM     34   O  SGN C   2     173.366  35.879  48.6980  0.00  0.00     0.000 OA
ATOM     35   O  SGN C   2     173.865  38.092  49.5380  0.00  0.00     0.000 OA
ATOM     36   O  SGN C   2     175.475  36.307  49.8070  0.00  0.00     0.000 OA
ATOM     37   O  SGN C   2     173.410  36.277  51.0640  0.00  0.00     0.000 O
ENDBRANCH 22 32
BRANCH 18 38
ATOM     38  O4  IDS C   3     169.965  33.194  52.0880  0.00  0.00     0.000 O
BRANCH 38 42
ATOM     39  C1  IDS C   3     167.388  35.457  51.4830  0.00  0.00     0.000 C
ATOM     40  C2  IDS C   3     167.811  35.104  52.9180  0.00  0.00     0.000 C
ATOM     41  C3  IDS C   3     167.828  33.591  53.1320  0.00  0.00     0.000 C
ATOM     42  C4  IDS C   3     168.570  32.883  52.0070  0.00  0.00     0.000 C
ATOM     43  C5  IDS C   3     168.011  33.334  50.6520  0.00  0.00     0.000 C
ATOM     44  O5  IDS C   3     168.164  34.747  50.5310  0.00  0.00     0.000 O
ATOM     45   O  IDS C   3     166.485  33.108  53.2030  0.00  0.00     0.000 O
ATOM     47  HD  IDS C   3     165.790  33.155  52.6890  0.00  0.00     0.000 HD
BRANCH 40 47
ATOM     47   O  IDS C   3     169.177  35.608  53.1960  0.00  0.00     0.000 O
ATOM     48   S  IDS C   3     169.422  37.176  53.3900  0.00  0.00     0.000 S
ATOM     49   O  IDS C   3     169.403  37.748  52.0600  0.00  0.00     0.000 OA
ATOM     50   O  IDS C   3     170.719  37.284  54.0200  0.00  0.00     0.000 OA
ATOM     51   O  IDS C   3     168.348  37.657  54.2180  0.00  0.00     0.000 OA
ENDBRANCH 40 47
BRANCH 43 52
ATOM     52   C  IDS C   3     168.684  32.649  49.4830  0.00  0.00     0.000 C
ATOM     53   O  IDS C   3     169.090  33.305  48.5520  0.00  0.00     0.000 OA
ATOM     54   O  IDS C   3     168.813  31.451  49.4870  0.00  0.00     0.000 OA
ENDBRANCH 43 52
BRANCH 39 55
ATOM     55  O4  SGN C   4     166.122  35.653  51.1130  0.00  0.00     0.000 O
BRANCH 55 59
ATOM     56  C1  SGN C   4     162.636  37.931  51.5100  0.00  0.00     0.000 C
ATOM     57  C2  SGN C   4     163.929  38.552  52.0650  0.00  0.00     0.000 C
ATOM     58  C3  SGN C   4     165.156  37.827  51.5170  0.00  0.00     0.000 C
ATOM     59  C4  SGN C   4     165.026  36.322  51.7200  0.00  0.00     0.000 C
ATOM     60  C5  SGN C   4     163.716  35.853  51.0900  0.00  0.00     0.000 C
ATOM     61  O5  SGN C   4     162.629  36.533  51.7470  0.00  0.00     0.000 O
ATOM     62   O  SGN C   4     166.325  38.320  52.1560  0.00  0.00     0.000 O
ATOM     64  HD  SGN C   4     165.770  38.985  52.1770  0.00  0.00     0.000 HD
BRANCH 57 66
ATOM     64   N  SGN C   4     163.057  39.737  52.1020  0.00  0.00     0.000 N
ATOM     66  HD  SGN C   4     162.707  40.237  52.7160  0.00  0.00     0.000 HD
ATOM     66   S  SGN C   4     163.498  41.044  52.9040  0.00  0.00     0.000 S
ATOM     67   O  SGN C   4     162.437  41.980  52.8080  0.00  0.00     0.000 OA
ATOM     68   O  SGN C   4     163.938  40.616  54.1870  0.00  0.00     0.000 OA
ATOM     69   O  SGN C   4     164.731  41.573  52.1040  0.00  0.00     0.000 OA
ENDBRANCH 57 66
BRANCH 60 70
ATOM     70   C  SGN C   4     163.475  34.364  51.2180  0.00  0.00     0.000 C
ATOM     71   O  SGN C   4     162.509  31.991  48.4720  0.00  0.00     0.000 OA
ATOM     72   O  SGN C   4     164.701  32.310  49.4410  0.00  0.00     0.000 OA
ATOM     73   O  SGN C   4     162.922  33.835  49.9980  0.00  0.00     0.000 O
ATOM     74   S  SGN C   4     163.272  32.313  49.6560  0.00  0.00     0.000 S
ATOM     75   O  SGN C   4     162.863  31.566  50.8290  0.00  0.00     0.000 OA
ENDBRANCH 60 70
BRANCH 56 76
ATOM     76  O4  IDS C   5     161.827  38.170  50.4610  0.00  0.00     0.000 O
BRANCH 76 80
ATOM     77  C1  IDS C   5     159.375  38.065  47.2000  0.00  0.00     0.000 C
ATOM     78  C2  IDS C   5     160.465  36.995  47.2090  0.00  0.00     0.000 C
ATOM     79  C3  IDS C   5     161.017  36.833  48.6110  0.00  0.00     0.000 C
ATOM     80  C4  IDS C   5     161.730  38.116  49.0300  0.00  0.00     0.000 C
ATOM     81  C5  IDS C   5     160.952  39.328  48.4980  0.00  0.00     0.000 C
ATOM     82  O5  IDS C   5     159.581  38.985  48.2730  0.00  0.00     0.000 O
BRANCH 78 83
ATOM     83   O  IDS C   5     159.921  35.689  46.7660  0.00  0.00     0.000 O
ATOM     84   S  IDS C   5     160.655  34.876  45.6060  0.00  0.00     0.000 S
ATOM     85   O  IDS C   5     160.880  35.819  44.5440  0.00  0.00     0.000 OA
ATOM     86   O  IDS C   5     161.878  34.389  46.2010  0.00  0.00     0.000 OA
ATOM     87   O  IDS C   5     159.751  33.813  45.2430  0.00  0.00     0.000 OA
ENDBRANCH 78 83
BRANCH 81 88
ATOM     88   C  IDS C   5     160.976  40.530  49.4250  0.00  0.00     0.000 C
ATOM     89   O  IDS C   5     159.992  40.825  50.0480  0.00  0.00     0.000 OA
ATOM     90   O  IDS C   5     161.988  41.184  49.5300  0.00  0.00     0.000 OA
ENDBRANCH 81 88
ENDBRANCH 76 80
ENDBRANCH 56 76
ENDBRANCH 55 59
ENDBRANCH 39 55
ENDBRANCH 38 42
ENDBRANCH 18 38
ENDBRANCH 17 21
ENDBRANCH 1 17
TORSDOF 18
ENDMDL
MODEL 60
REMARK VINA RESULT:      -4.7      8.472     15.625
ROOT
ATOM      1  C1  IDS C   1     145.602  48.470  38.8450  0.00  0.00     0.000 C
ATOM      2  C2  IDS C   1     144.854  49.723  38.3830  0.00  0.00     0.000 C
ATOM      3  C3  IDS C   1     145.179  50.043  36.9320  0.00  0.00     0.000 C
ATOM      4  C4  IDS C   1     146.675  50.257  36.7510  0.00  0.00     0.000 C
ATOM      5  C5  IDS C   1     147.453  49.259  37.6020  0.00  0.00     0.000 C
ATOM      6  O5  IDS C   1     146.629  48.137  37.9190  0.00  0.00     0.000 O
ATOM      7   O  IDS C   1     144.463  51.217  36.5220  0.00  0.00     0.000 O
ATOM      9  HD  IDS C   1     143.685  51.208  36.9010  0.00  0.00     0.000 HD
ENDROOT
BRANCH 2 9
ATOM      9   O  IDS C   1     143.389  49.528  38.4800  0.00  0.00     0.000 O
ATOM     10   S  IDS C   1     142.528  50.501  39.4040  0.00  0.00     0.000 S
ATOM     11   O  IDS C   1     141.157  50.062  39.2720  0.00  0.00     0.000 OA
ATOM     12   O  IDS C   1     143.049  50.328  40.7440  0.00  0.00     0.000 OA
ATOM     13   O  IDS C   1     142.743  51.833  38.8830  0.00  0.00     0.000 OA
ENDBRANCH 2 9
BRANCH 5 14
ATOM     14   C  IDS C   1     148.702  48.755  36.8980  0.00  0.00     0.000 C
ATOM     15   O  IDS C   1     148.609  48.283  35.7910  0.00  0.00     0.000 OA
ATOM     16   O  IDS C   1     149.783  48.829  37.4560  0.00  0.00     0.000 OA
ENDBRANCH 5 14
BRANCH 1 17
ATOM     17  O4  SGN C   2     145.033  47.512  39.5820  0.00  0.00     0.000 O
BRANCH 17 21
ATOM     18  C1  SGN C   2     142.752  44.033  40.0470  0.00  0.00     0.000 C
ATOM     19  C2  SGN C   2     143.060  44.464  38.6080  0.00  0.00     0.000 C
ATOM     20  C3  SGN C   2     144.221  45.467  38.6040  0.00  0.00     0.000 C
ATOM     21  C4  SGN C   2     143.918  46.625  39.5470  0.00  0.00     0.000 C
ATOM     22  C5  SGN C   2     143.634  46.072  40.9400  0.00  0.00     0.000 C
ATOM     23  O5  SGN C   2     142.522  45.148  40.8820  0.00  0.00     0.000 O
ATOM     24   O  SGN C   2     144.451  45.933  37.2850  0.00  0.00     0.000 O
ATOM     26  HD  SGN C   2     144.665  45.646  38.0740  0.00  0.00     0.000 HD
BRANCH 19 28
ATOM     26   N  SGN C   2     142.822  43.216  37.8710  0.00  0.00     0.000 N
ATOM     28  HD  SGN C   2     142.257  43.179  38.5260  0.00  0.00     0.000 HD
ATOM     28   O  SGN C   2     142.769  41.994  35.6970  0.00  0.00     0.000 OA
ATOM     29   S  SGN C   2     142.083  43.188  36.4430  0.00  0.00     0.000 S
ATOM     30   O  SGN C   2     140.728  42.860  36.6720  0.00  0.00     0.000 OA
ATOM     31   O  SGN C   2     142.409  44.395  35.7650  0.00  0.00     0.000 OA
ENDBRANCH 19 28
BRANCH 22 32
ATOM     32   C  SGN C   2     143.263  47.137  41.9430  0.00  0.00     0.000 C
ATOM     33   S  SGN C   2     144.091  48.034  44.2130  0.00  0.00     0.000 S
ATOM     34   O  SGN C   2     143.526  46.923  44.9360  0.00  0.00     0.000 OA
ATOM     35   O  SGN C   2     145.378  48.462  44.7190  0.00  0.00     0.000 OA
ATOM     36   O  SGN C   2     143.169  49.123  43.9920  0.00  0.00     0.000 OA
ATOM     37   O  SGN C   2     144.398  47.444  42.7620  0.00  0.00     0.000 O
ENDBRANCH 22 32
BRANCH 18 38
ATOM     38  O4  IDS C   3     143.379  43.159  40.8380  0.00  0.00     0.000 O
BRANCH 38 42
ATOM     39  C1  IDS C   3     145.428  40.627  42.0700  0.00  0.00     0.000 C
ATOM     40  C2  IDS C   3     144.609  40.428  40.7850  0.00  0.00     0.000 C
ATOM     41  C3  IDS C   3     143.136  40.766  41.0100  0.00  0.00     0.000 C
ATOM     42  C4  IDS C   3     142.980  42.104  41.7200  0.00  0.00     0.000 C
ATOM     43  C5  IDS C   3     143.845  42.125  42.9850  0.00  0.00     0.000 C
ATOM     44  O5  IDS C   3     145.208  41.915  42.6220  0.00  0.00     0.000 O
ATOM     45   O  IDS C   3     142.527  39.734  41.7880  0.00  0.00     0.000 O
ATOM     47  HD  IDS C   3     142.692  39.367  42.5550  0.00  0.00     0.000 HD
BRANCH 40 47
ATOM     47   O  IDS C   3     145.109  41.314  39.7070  0.00  0.00     0.000 O
ATOM     48   S  IDS C   3     145.507  40.694  38.2870  0.00  0.00     0.000 S
ATOM     49   O  IDS C   3     146.799  40.071  38.4740  0.00  0.00     0.000 OA
ATOM     50   O  IDS C   3     145.562  41.821  37.3820  0.00  0.00     0.000 OA
ATOM     51   O  IDS C   3     144.475  39.749  37.9530  0.00  0.00     0.000 OA
ENDBRANCH 40 47
BRANCH 43 52
ATOM     52   C  IDS C   3     143.719  43.417  43.7600  0.00  0.00     0.000 C
ATOM     53   O  IDS C   3     144.710  43.965  44.1840  0.00  0.00     0.000 OA
ATOM     54   O  IDS C   3     142.630  43.896  43.9510  0.00  0.00     0.000 OA
ENDBRANCH 43 52
BRANCH 39 55
ATOM     55  O4  SGN C   4     145.618  39.672  42.9800  0.00  0.00     0.000 O
BRANCH 55 59
ATOM     56  C1  SGN C   4     148.037  37.267  45.4030  0.00  0.00     0.000 C
ATOM     57  C2  SGN C   4     148.190  38.788  45.5720  0.00  0.00     0.000 C
ATOM     58  C3  SGN C   4     147.009  39.524  44.9470  0.00  0.00     0.000 C
ATOM     59  C4  SGN C   4     146.782  39.057  43.5140  0.00  0.00     0.000 C
ATOM     60  C5  SGN C   4     146.615  37.538  43.5140  0.00  0.00     0.000 C
ATOM     61  O5  SGN C   4     147.823  36.951  44.0370  0.00  0.00     0.000 O
ATOM     62   O  SGN C   4     147.247  40.925  44.9850  0.00  0.00     0.000 O
ATOM     64  HD  SGN C   4     147.686  40.612  45.6630  0.00  0.00     0.000 HD
BRANCH 57 66
ATOM     64   N  SGN C   4     149.228  38.341  46.5160  0.00  0.00     0.000 N
ATOM     66  HD  SGN C   4     150.022  38.601  46.7410  0.00  0.00     0.000 HD
ATOM     66   S  SGN C   4     149.842  39.353  47.5860  0.00  0.00     0.000 S
ATOM     67   O  SGN C   4     150.848  38.656  48.3010  0.00  0.00     0.000 OA
ATOM     68   O  SGN C   4     150.180  40.544  46.8860  0.00  0.00     0.000 OA
ATOM     69   O  SGN C   4     148.643  39.656  48.5410  0.00  0.00     0.000 OA
ENDBRANCH 57 66
BRANCH 60 70
ATOM     70   C  SGN C   4     146.372  36.951  42.1400  0.00  0.00     0.000 C
ATOM     71   O  SGN C   4     147.857  33.797  40.7420  0.00  0.00     0.000 OA
ATOM     72   O  SGN C   4     145.634  34.107  41.6420  0.00  0.00     0.000 OA
ATOM     73   O  SGN C   4     147.273  35.854  41.8940  0.00  0.00     0.000 O
ATOM     74   S  SGN C   4     146.742  34.697  40.9260  0.00  0.00     0.000 S
ATOM     75   O  SGN C   4     146.346  35.383  39.7120  0.00  0.00     0.000 OA
ENDBRANCH 60 70
BRANCH 56 76
ATOM     76  O4  IDS C   5     147.522  36.264  46.1380  0.00  0.00     0.000 O
BRANCH 76 80
ATOM     77  C1  IDS C   5     144.097  34.223  45.2650  0.00  0.00     0.000 C
ATOM     78  C2  IDS C   5     143.886  35.493  46.0900  0.00  0.00     0.000 C
ATOM     79  C3  IDS C   5     145.108  36.384  45.9840  0.00  0.00     0.000 C
ATOM     80  C4  IDS C   5     146.303  35.693  46.6350  0.00  0.00     0.000 C
ATOM     81  C5  IDS C   5     146.250  34.189  46.3270  0.00  0.00     0.000 C
ATOM     82  O5  IDS C   5     145.492  33.946  45.1390  0.00  0.00     0.000 O
BRANCH 78 83
ATOM     83   O  IDS C   5     142.711  36.249  45.5970  0.00  0.00     0.000 O
ATOM     84   S  IDS C   5     141.524  36.611  46.6000  0.00  0.00     0.000 S
ATOM     85   O  IDS C   5     141.201  35.389  47.2880  0.00  0.00     0.000 OA
ATOM     86   O  IDS C   5     142.062  37.629  47.4710  0.00  0.00     0.000 OA
ATOM     87   O  IDS C   5     140.449  37.099  45.7720  0.00  0.00     0.000 OA
ENDBRANCH 78 83
BRANCH 81 88
ATOM     88   C  IDS C   5     147.615  33.552  46.1380  0.00  0.00     0.000 C
ATOM     89   O  IDS C   5     148.290  33.288  47.0960  0.00  0.00     0.000 OA
ATOM     90   O  IDS C   5     148.013  33.311  45.0210  0.00  0.00     0.000 OA
ENDBRANCH 81 88
ENDBRANCH 76 80
ENDBRANCH 56 76
ENDBRANCH 55 59
ENDBRANCH 39 55
ENDBRANCH 38 42
ENDBRANCH 18 38
ENDBRANCH 17 21
ENDBRANCH 1 17
TORSDOF 18
ENDMDL
MODEL 61
REMARK VINA RESULT:      -4.6     12.541     17.926
ROOT
ATOM      1  C1  IDS C   1     145.720  35.434  37.6310  0.00  0.00     0.000 C
ATOM      2  C2  IDS C   1     146.936  34.788  36.9610  0.00  0.00     0.000 C
ATOM      3  C3  IDS C   1     148.230  35.338  37.5430  0.00  0.00     0.000 C
ATOM      4  C4  IDS C   1     148.301  36.848  37.3630  0.00  0.00     0.000 C
ATOM      5  C5  IDS C   1     146.926  37.468  37.5950  0.00  0.00     0.000 C
ATOM      6  O5  IDS C   1     146.114  36.585  38.3680  0.00  0.00     0.000 O
ATOM      7   O  IDS C   1     149.353  34.715  36.9040  0.00  0.00     0.000 O
ATOM      9  HD  IDS C   1     149.151  33.888  36.7460  0.00  0.00     0.000 HD
ENDROOT
BRANCH 2 9
ATOM      9   O  IDS C   1     146.938  33.323  37.1740  0.00  0.00     0.000 O
ATOM     10   S  IDS C   1     147.017  32.348  35.9150  0.00  0.00     0.000 S
ATOM     11   O  IDS C   1     147.014  31.006  36.4520  0.00  0.00     0.000 OA
ATOM     12   O  IDS C   1     145.841  32.641  35.1210  0.00  0.00     0.000 OA
ATOM     13   O  IDS C   1     148.251  32.679  35.2370  0.00  0.00     0.000 OA
ENDBRANCH 2 9
BRANCH 5 14
ATOM     14   C  IDS C   1     147.013  38.800  38.3200  0.00  0.00     0.000 C
ATOM     15   O  IDS C   1     146.312  39.716  37.9660  0.00  0.00     0.000 OA
ATOM     16   O  IDS C   1     147.792  38.934  39.2490  0.00  0.00     0.000 OA
ENDBRANCH 5 14
BRANCH 1 17
ATOM     17  O4  SGN C   2     144.640  34.741  38.0030  0.00  0.00     0.000 O
BRANCH 17 21
ATOM     18  C1  SGN C   2     142.360  32.337  40.5610  0.00  0.00     0.000 C
ATOM     19  C2  SGN C   2     143.565  33.051  41.1840  0.00  0.00     0.000 C
ATOM     20  C3  SGN C   2     144.026  34.190  40.2650  0.00  0.00     0.000 C
ATOM     21  C4  SGN C   2     144.278  33.660  38.8580  0.00  0.00     0.000 C
ATOM     22  C5  SGN C   2     143.011  32.980  38.3480  0.00  0.00     0.000 C
ATOM     23  O5  SGN C   2     142.637  31.908  39.2440  0.00  0.00     0.000 O
ATOM     24   O  SGN C   2     145.193  34.795  40.7960  0.00  0.00     0.000 O
ATOM     26  HD  SGN C   2     144.413  34.770  40.4190  0.00  0.00     0.000 HD
BRANCH 19 28
ATOM     26   N  SGN C   2     143.242  32.978  42.6150  0.00  0.00     0.000 N
ATOM     28  HD  SGN C   2     142.936  32.233  42.2960  0.00  0.00     0.000 HD
ATOM     28   O  SGN C   2     143.838  33.535  44.9720  0.00  0.00     0.000 OA
ATOM     29   S  SGN C   2     144.365  32.728  43.7380  0.00  0.00     0.000 S
ATOM     30   O  SGN C   2     144.348  31.352  44.0580  0.00  0.00     0.000 OA
ATOM     31   O  SGN C   2     145.570  33.329  43.2840  0.00  0.00     0.000 OA
ENDBRANCH 19 28
BRANCH 22 32
ATOM     32   C  SGN C   2     143.171  32.367  36.9790  0.00  0.00     0.000 C
ATOM     33   S  SGN C   2     142.894  30.072  35.8380  0.00  0.00     0.000 S
ATOM     34   O  SGN C   2     144.129  29.573  36.3870  0.00  0.00     0.000 OA
ATOM     35   O  SGN C   2     141.834  29.086  35.8000  0.00  0.00     0.000 OA
ATOM     36   O  SGN C   2     143.050  30.796  34.5980  0.00  0.00     0.000 OA
ATOM     37   O  SGN C   2     142.403  31.160  36.8980  0.00  0.00     0.000 O
ENDBRANCH 22 32
BRANCH 18 38
ATOM     38  O4  IDS C   3     141.073  32.692  40.5220  0.00  0.00     0.000 O
BRANCH 38 42
ATOM     39  C1  IDS C   3     137.841  33.225  41.7040  0.00  0.00     0.000 C
ATOM     40  C2  IDS C   3     138.673  32.025  42.1850  0.00  0.00     0.000 C
ATOM     41  C3  IDS C   3     139.222  31.224  41.0050  0.00  0.00     0.000 C
ATOM     42  C4  IDS C   3     139.872  32.137  39.9750  0.00  0.00     0.000 C
ATOM     43  C5  IDS C   3     138.903  33.262  39.5930  0.00  0.00     0.000 C
ATOM     44  O5  IDS C   3     138.563  34.003  40.7630  0.00  0.00     0.000 O
ATOM     45   O  IDS C   3     138.159  30.489  40.3960  0.00  0.00     0.000 O
ATOM     47  HD  IDS C   3     137.387  30.694  40.0620  0.00  0.00     0.000 HD
BRANCH 40 47
ATOM     47   O  IDS C   3     139.831  32.484  42.9890  0.00  0.00     0.000 O
ATOM     48   S  IDS C   3     139.673  32.687  44.5680  0.00  0.00     0.000 S
ATOM     49   O  IDS C   3     138.966  33.939  44.7380  0.00  0.00     0.000 OA
ATOM     50   O  IDS C   3     141.024  32.741  45.0810  0.00  0.00     0.000 OA
ATOM     51   O  IDS C   3     138.928  31.556  45.0510  0.00  0.00     0.000 OA
ENDBRANCH 40 47
BRANCH 43 52
ATOM     52   C  IDS C   3     139.472  34.196  38.5480  0.00  0.00     0.000 C
ATOM     53   O  IDS C   3     139.603  35.372  38.7980  0.00  0.00     0.000 OA
ATOM     54   O  IDS C   3     139.792  33.763  37.4700  0.00  0.00     0.000 OA
ENDBRANCH 43 52
BRANCH 39 55
ATOM     55  O4  SGN C   4     136.530  33.168  41.4690  0.00  0.00     0.000 O
BRANCH 55 59
ATOM     56  C1  SGN C   4     133.041  34.767  39.8030  0.00  0.00     0.000 C
ATOM     57  C2  SGN C   4     133.706  33.614  39.0310  0.00  0.00     0.000 C
ATOM     58  C3  SGN C   4     134.706  32.875  39.9170  0.00  0.00     0.000 C
ATOM     59  C4  SGN C   4     135.674  33.856  40.5680  0.00  0.00     0.000 C
ATOM     60  C5  SGN C   4     134.869  34.914  41.3200  0.00  0.00     0.000 C
ATOM     61  O5  SGN C   4     134.034  35.606  40.3710  0.00  0.00     0.000 O
ATOM     62   O  SGN C   4     135.411  31.916  39.1410  0.00  0.00     0.000 O
ATOM     64  HD  SGN C   4     134.644  31.993  38.7460  0.00  0.00     0.000 HD
BRANCH 57 66
ATOM     64   N  SGN C   4     133.523  33.538  37.5730  0.00  0.00     0.000 N
ATOM     66  HD  SGN C   4     133.352  32.915  36.9960  0.00  0.00     0.000 HD
ATOM     66   S  SGN C   4     132.208  32.880  36.9530  0.00  0.00     0.000 S
ATOM     67   O  SGN C   4     132.348  32.896  35.5430  0.00  0.00     0.000 OA
ATOM     68   O  SGN C   4     132.007  31.641  37.6220  0.00  0.00     0.000 OA
ATOM     69   O  SGN C   4     131.069  33.864  37.3720  0.00  0.00     0.000 OA
ENDBRANCH 57 66
BRANCH 60 70
ATOM     70   C  SGN C   4     135.724  35.947  42.0220  0.00  0.00     0.000 C
ATOM     71   O  SGN C   4     138.159  38.321  40.4280  0.00  0.00     0.000 OA
ATOM     72   O  SGN C   4     135.917  38.804  41.1960  0.00  0.00     0.000 OA
ATOM     73   O  SGN C   4     136.678  36.520  41.1070  0.00  0.00     0.000 O
ATOM     74   S  SGN C   4     137.122  38.029  41.3900  0.00  0.00     0.000 S
ATOM     75   O  SGN C   4     137.591  38.026  42.7620  0.00  0.00     0.000 OA
ENDBRANCH 60 70
BRANCH 56 76
ATOM     76  O4  IDS C   5     131.918  34.917  40.5290  0.00  0.00     0.000 O
BRANCH 76 80
ATOM     77  C1  IDS C   5     131.638  33.985  44.4930  0.00  0.00     0.000 C
ATOM     78  C2  IDS C   5     131.301  32.834  43.5460  0.00  0.00     0.000 C
ATOM     79  C3  IDS C   5     131.847  33.130  42.1630  0.00  0.00     0.000 C
ATOM     80  C4  IDS C   5     131.124  34.339  41.5760  0.00  0.00     0.000 C
ATOM     81  C5  IDS C   5     130.870  35.368  42.6870  0.00  0.00     0.000 C
ATOM     82  O5  IDS C   5     131.806  35.196  43.7550  0.00  0.00     0.000 O
BRANCH 78 83
ATOM     83   O  IDS C   5     131.902  31.568  44.0260  0.00  0.00     0.000 O
ATOM     84   S  IDS C   5     132.242  31.388  45.5740  0.00  0.00     0.000 S
ATOM     85   O  IDS C   5     132.960  32.573  45.9610  0.00  0.00     0.000 OA
ATOM     86   O  IDS C   5     130.962  31.261  46.2310  0.00  0.00     0.000 OA
ATOM     87   O  IDS C   5     133.034  30.186  45.6630  0.00  0.00     0.000 OA
ENDBRANCH 78 83
BRANCH 81 88
ATOM     88   C  IDS C   5     130.964  36.810  42.2230  0.00  0.00     0.000 C
ATOM     89   O  IDS C   5     130.068  37.294  41.5860  0.00  0.00     0.000 OA
ATOM     90   O  IDS C   5     131.943  37.465  42.5010  0.00  0.00     0.000 OA
ENDBRANCH 81 88
ENDBRANCH 76 80
ENDBRANCH 56 76
ENDBRANCH 55 59
ENDBRANCH 39 55
ENDBRANCH 38 42
ENDBRANCH 18 38
ENDBRANCH 17 21
ENDBRANCH 1 17
TORSDOF 18
ENDMDL
MODEL 62
REMARK VINA RESULT:      -4.6      6.611     13.377
ROOT
ATOM      1  C1  IDS C   1     156.178  50.135  54.9380  0.00  0.00     0.000 C
ATOM      2  C2  IDS C   1     156.205  51.267  55.9690  0.00  0.00     0.000 C
ATOM      3  C3  IDS C   1     155.058  52.239  55.7340  0.00  0.00     0.000 C
ATOM      4  C4  IDS C   1     155.135  52.833  54.3350  0.00  0.00     0.000 C
ATOM      5  C5  IDS C   1     155.569  51.765  53.3360  0.00  0.00     0.000 C
ATOM      6  O5  IDS C   1     155.307  50.464  53.8630  0.00  0.00     0.000 O
ATOM      7   O  IDS C   1     155.101  53.287  56.7140  0.00  0.00     0.000 O
ATOM      9  HD  IDS C   1     155.362  52.945  57.4660  0.00  0.00     0.000 HD
ENDROOT
BRANCH 2 9
ATOM      9   O  IDS C   1     156.062  50.732  57.3420  0.00  0.00     0.000 O
ATOM     10   S  IDS C   1     157.200  51.028  58.4200  0.00  0.00     0.000 S
ATOM     11   O  IDS C   1     156.762  50.392  59.6430  0.00  0.00     0.000 OA
ATOM     12   O  IDS C   1     158.410  50.443  57.8810  0.00  0.00     0.000 OA
ATOM     13   O  IDS C   1     157.272  52.468  58.5330  0.00  0.00     0.000 OA
ENDBRANCH 2 9
BRANCH 5 14
ATOM     14   C  IDS C   1     154.850  51.899  52.0050  0.00  0.00     0.000 C
ATOM     15   O  IDS C   1     155.308  51.361  51.0260  0.00  0.00     0.000 OA
ATOM     16   O  IDS C   1     153.820  52.548  51.9360  0.00  0.00     0.000 OA
ENDBRANCH 5 14
BRANCH 1 17
ATOM     17  O4  SGN C   2     156.390  48.855  55.2570  0.00  0.00     0.000 O
BRANCH 17 21
ATOM     18  C1  SGN C   2     155.111  45.052  56.4510  0.00  0.00     0.000 C
ATOM     19  C2  SGN C   2     154.016  46.086  56.1650  0.00  0.00     0.000 C
ATOM     20  C3  SGN C   2     154.598  47.249  55.3520  0.00  0.00     0.000 C
ATOM     21  C4  SGN C   2     155.822  47.821  56.0570  0.00  0.00     0.000 C
ATOM     22  C5  SGN C   2     156.837  46.703  56.2800  0.00  0.00     0.000 C
ATOM     23  O5  SGN C   2     156.236  45.647  57.0650  0.00  0.00     0.000 O
ATOM     24   O  SGN C   2     153.609  48.247  55.1610  0.00  0.00     0.000 O
ATOM     26  HD  SGN C   2     154.265  47.726  54.9380  0.00  0.00     0.000 HD
BRANCH 19 28
ATOM     26   N  SGN C   2     152.874  45.353  55.6030  0.00  0.00     0.000 N
ATOM     28  HD  SGN C   2     153.502  44.758  55.6410  0.00  0.00     0.000 HD
ATOM     28   O  SGN C   2     150.406  45.006  55.4820  0.00  0.00     0.000 OA
ATOM     29   S  SGN C   2     151.601  44.932  56.4910  0.00  0.00     0.000 S
ATOM     30   O  SGN C   2     151.780  43.586  56.8800  0.00  0.00     0.000 OA
ATOM     31   O  SGN C   2     151.419  45.932  57.4850  0.00  0.00     0.000 OA
ENDBRANCH 19 28
BRANCH 22 32
ATOM     32   C  SGN C   2     158.068  47.153  57.0270  0.00  0.00     0.000 C
ATOM     33   S  SGN C   2     160.465  46.327  57.4890  0.00  0.00     0.000 S
ATOM     34   O  SGN C   2     160.020  45.368  58.4690  0.00  0.00     0.000 OA
ATOM     35   O  SGN C   2     161.544  45.844  56.6520  0.00  0.00     0.000 OA
ATOM     36   O  SGN C   2     160.699  47.648  58.0210  0.00  0.00     0.000 OA
ATOM     37   O  SGN C   2     159.222  46.487  56.5010  0.00  0.00     0.000 O
ENDBRANCH 22 32
BRANCH 18 38
ATOM     38  O4  IDS C   3     155.633  44.109  55.6630  0.00  0.00     0.000 O
BRANCH 38 42
ATOM     39  C1  IDS C   3     156.705  42.068  53.0530  0.00  0.00     0.000 C
ATOM     40  C2  IDS C   3     155.217  42.412  53.2300  0.00  0.00     0.000 C
ATOM     41  C3  IDS C   3     154.745  42.108  54.6520  0.00  0.00     0.000 C
ATOM     42  C4  IDS C   3     155.707  42.679  55.6850  0.00  0.00     0.000 C
ATOM     43  C5  IDS C   3     157.137  42.224  55.3710  0.00  0.00     0.000 C
ATOM     44  O5  IDS C   3     157.493  42.672  54.0650  0.00  0.00     0.000 O
ATOM     45   O  IDS C   3     154.638  40.694  54.8230  0.00  0.00     0.000 O
ATOM     47  HD  IDS C   3     155.176  40.023  54.7220  0.00  0.00     0.000 HD
BRANCH 40 47
ATOM     47   O  IDS C   3     154.983  43.854  52.9820  0.00  0.00     0.000 O
ATOM     48   S  IDS C   3     153.624  44.332  52.2870  0.00  0.00     0.000 S
ATOM     49   O  IDS C   3     153.774  44.039  50.8780  0.00  0.00     0.000 OA
ATOM     50   O  IDS C   3     153.540  45.752  52.5510  0.00  0.00     0.000 OA
ATOM     51   O  IDS C   3     152.565  43.578  52.9040  0.00  0.00     0.000 OA
ENDBRANCH 40 47
BRANCH 43 52
ATOM     52   C  IDS C   3     158.147  42.732  56.3760  0.00  0.00     0.000 C
ATOM     53   O  IDS C   3     159.156  43.280  55.9920  0.00  0.00     0.000 OA
ATOM     54   O  IDS C   3     157.942  42.589  57.5540  0.00  0.00     0.000 OA
ENDBRANCH 43 52
BRANCH 39 55
ATOM     55  O4  SGN C   4     157.145  40.871  52.6640  0.00  0.00     0.000 O
BRANCH 55 59
ATOM     56  C1  SGN C   4     157.652  37.874  49.7890  0.00  0.00     0.000 C
ATOM     57  C2  SGN C   4     157.951  39.315  49.3400  0.00  0.00     0.000 C
ATOM     58  C3  SGN C   4     158.114  40.235  50.5470  0.00  0.00     0.000 C
ATOM     59  C4  SGN C   4     156.931  40.090  51.4970  0.00  0.00     0.000 C
ATOM     60  C5  SGN C   4     156.784  38.618  51.8770  0.00  0.00     0.000 C
ATOM     61  O5  SGN C   4     156.542  37.862  50.6730  0.00  0.00     0.000 O
ATOM     62   O  SGN C   4     158.240  41.581  50.1060  0.00  0.00     0.000 O
ATOM     64  HD  SGN C   4     158.554  41.108  49.4520  0.00  0.00     0.000 HD
BRANCH 57 66
ATOM     64   N  SGN C   4     157.857  38.874  47.9390  0.00  0.00     0.000 N
ATOM     66  HD  SGN C   4     157.835  39.258  47.1630  0.00  0.00     0.000 HD
ATOM     66   S  SGN C   4     158.937  39.349  46.8650  0.00  0.00     0.000 S
ATOM     67   O  SGN C   4     158.549  38.818  45.6090  0.00  0.00     0.000 OA
ATOM     68   O  SGN C   4     159.083  40.756  47.0140  0.00  0.00     0.000 OA
ATOM     69   O  SGN C   4     160.256  38.657  47.3350  0.00  0.00     0.000 OA
ENDBRANCH 57 66
BRANCH 60 70
ATOM     70   C  SGN C   4     155.641  38.344  52.8310  0.00  0.00     0.000 C
ATOM     71   O  SGN C   4     151.997  39.040  52.2450  0.00  0.00     0.000 OA
ATOM     72   O  SGN C   4     153.137  36.914  52.0790  0.00  0.00     0.000 OA
ATOM     73   O  SGN C   4     154.422  38.935  52.3410  0.00  0.00     0.000 O
ATOM     74   S  SGN C   4     153.061  38.197  52.7400  0.00  0.00     0.000 S
ATOM     75   O  SGN C   4     153.100  38.104  54.1860  0.00  0.00     0.000 OA
ENDBRANCH 60 70
BRANCH 56 76
ATOM     76  O4  IDS C   5     158.384  36.774  50.0400  0.00  0.00     0.000 O
BRANCH 76 80
ATOM     77  C1  IDS C   5     161.371  35.520  52.5220  0.00  0.00     0.000 C
ATOM     78  C2  IDS C   5     161.804  36.549  51.4790  0.00  0.00     0.000 C
ATOM     79  C3  IDS C   5     160.586  37.261  50.9230  0.00  0.00     0.000 C
ATOM     80  C4  IDS C   5     159.723  36.267  50.1510  0.00  0.00     0.000 C
ATOM     81  C5  IDS C   5     159.726  34.916  50.8810  0.00  0.00     0.000 C
ATOM     82  O5  IDS C   5     160.033  35.095  52.2670  0.00  0.00     0.000 O
BRANCH 78 83
ATOM     83   O  IDS C   5     162.702  37.561  52.0830  0.00  0.00     0.000 O
ATOM     84   S  IDS C   5     164.250  37.230  52.2810  0.00  0.00     0.000 S
ATOM     85   O  IDS C   5     164.301  35.937  52.9100  0.00  0.00     0.000 OA
ATOM     86   O  IDS C   5     164.812  37.236  50.9500  0.00  0.00     0.000 OA
ATOM     87   O  IDS C   5     164.773  38.288  53.1100  0.00  0.00     0.000 OA
ENDBRANCH 78 83
BRANCH 81 88
ATOM     88   C  IDS C   5     158.408  34.168  50.7970  0.00  0.00     0.000 C
ATOM     89   O  IDS C   5     157.654  34.176  51.7320  0.00  0.00     0.000 OA
ATOM     90   O  IDS C   5     158.125  33.567  49.7850  0.00  0.00     0.000 OA
ENDBRANCH 81 88
ENDBRANCH 76 80
ENDBRANCH 56 76
ENDBRANCH 55 59
ENDBRANCH 39 55
ENDBRANCH 38 42
ENDBRANCH 18 38
ENDBRANCH 17 21
ENDBRANCH 1 17
TORSDOF 18
ENDMDL
MODEL 63
REMARK VINA RESULT:      -4.4     12.539     21.419
ROOT
ATOM      1  C1  IDS C   1     132.670  44.472  42.2460  0.00  0.00     0.000 C
ATOM      2  C2  IDS C   1     131.444  44.869  41.4190  0.00  0.00     0.000 C
ATOM      3  C3  IDS C   1     130.163  44.637  42.2070  0.00  0.00     0.000 C
ATOM      4  C4  IDS C   1     130.041  43.176  42.6160  0.00  0.00     0.000 C
ATOM      5  C5  IDS C   1     131.406  42.631  43.0240  0.00  0.00     0.000 C
ATOM      6  O5  IDS C   1     132.278  43.705  43.3770  0.00  0.00     0.000 O
ATOM      7   O  IDS C   1     129.030  45.019  41.4140  0.00  0.00     0.000 O
ATOM      9  HD  IDS C   1     129.247  45.715  40.9460  0.00  0.00     0.000 HD
ENDROOT
BRANCH 2 9
ATOM      9   O  IDS C   1     131.493  46.304  41.0580  0.00  0.00     0.000 O
ATOM     10   S  IDS C   1     131.641  46.722  39.5270  0.00  0.00     0.000 S
ATOM     11   O  IDS C   1     131.644  48.168  39.5090  0.00  0.00     0.000 OA
ATOM     12   O  IDS C   1     132.897  46.150  39.0870  0.00  0.00     0.000 OA
ATOM     13   O  IDS C   1     130.496  46.155  38.8500  0.00  0.00     0.000 OA
ENDBRANCH 2 9
BRANCH 5 14
ATOM     14   C  IDS C   1     131.314  41.678  44.2030  0.00  0.00     0.000 C
ATOM     15   O  IDS C   1     130.515  40.775  44.1760  0.00  0.00     0.000 OA
ATOM     16   O  IDS C   1     132.046  41.834  45.1670  0.00  0.00     0.000 OA
ENDBRANCH 5 14
BRANCH 1 17
ATOM     17  O4  SGN C   2     133.785  45.207  42.2920  0.00  0.00     0.000 O
BRANCH 17 21
ATOM     18  C1  SGN C   2     135.995  48.131  44.3140  0.00  0.00     0.000 C
ATOM     19  C2  SGN C   2     134.526  47.974  44.7250  0.00  0.00     0.000 C
ATOM     20  C3  SGN C   2     133.987  46.628  44.2250  0.00  0.00     0.000 C
ATOM     21  C4  SGN C   2     134.231  46.488  42.7270  0.00  0.00     0.000 C
ATOM     22  C5  SGN C   2     135.721  46.658  42.4470  0.00  0.00     0.000 C
ATOM     23  O5  SGN C   2     136.165  47.949  42.9240  0.00  0.00     0.000 O
ATOM     24   O  SGN C   2     132.606  46.519  44.5280  0.00  0.00     0.000 O
ATOM     26  HD  SGN C   2     133.426  46.250  44.4540  0.00  0.00     0.000 HD
BRANCH 19 28
ATOM     26   N  SGN C   2     134.513  48.648  46.0310  0.00  0.00     0.000 N
ATOM     28  HD  SGN C   2     135.076  49.113  45.5640  0.00  0.00     0.000 HD
ATOM     28   O  SGN C   2     133.254  49.321  48.0760  0.00  0.00     0.000 OA
ATOM     29   S  SGN C   2     133.270  49.540  46.5260  0.00  0.00     0.000 S
ATOM     30   O  SGN C   2     133.584  50.891  46.2630  0.00  0.00     0.000 OA
ATOM     31   O  SGN C   2     132.087  48.974  45.9760  0.00  0.00     0.000 OA
ENDBRANCH 19 28
BRANCH 22 32
ATOM     32   C  SGN C   2     136.065  46.595  40.9790  0.00  0.00     0.000 C
ATOM     33   S  SGN C   2     136.876  44.863  39.2510  0.00  0.00     0.000 S
ATOM     34   O  SGN C   2     138.233  44.914  39.7350  0.00  0.00     0.000 OA
ATOM     35   O  SGN C   2     136.443  43.534  38.8750  0.00  0.00     0.000 OA
ATOM     36   O  SGN C   2     136.566  45.870  38.2630  0.00  0.00     0.000 OA
ATOM     37   O  SGN C   2     135.989  45.238  40.5240  0.00  0.00     0.000 O
ENDBRANCH 22 32
BRANCH 18 38
ATOM     38  O4  IDS C   3     137.100  47.604  44.8470  0.00  0.00     0.000 O
BRANCH 38 42
ATOM     39  C1  IDS C   3     140.208  46.874  46.2370  0.00  0.00     0.000 C
ATOM     40  C2  IDS C   3     139.754  46.217  44.9240  0.00  0.00     0.000 C
ATOM     41  C3  IDS C   3     138.377  45.572  45.0760  0.00  0.00     0.000 C
ATOM     42  C4  IDS C   3     137.393  46.524  45.7400  0.00  0.00     0.000 C
ATOM     43  C5  IDS C   3     137.995  47.069  47.0410  0.00  0.00     0.000 C
ATOM     44  O5  IDS C   3     139.213  47.748  46.7430  0.00  0.00     0.000 O
ATOM     45   O  IDS C   3     138.497  44.380  45.8560  0.00  0.00     0.000 O
ATOM     47  HD  IDS C   3     138.814  44.191  46.6390  0.00  0.00     0.000 HD
BRANCH 40 47
ATOM     47   O  IDS C   3     139.655  47.228  43.8440  0.00  0.00     0.000 O
ATOM     48   S  IDS C   3     140.480  47.028  42.4890  0.00  0.00     0.000 S
ATOM     49   O  IDS C   3     141.847  47.388  42.8000  0.00  0.00     0.000 OA
ATOM     50   O  IDS C   3     139.873  47.932  41.5360  0.00  0.00     0.000 OA
ATOM     51   O  IDS C   3     140.337  45.643  42.1260  0.00  0.00     0.000 OA
ENDBRANCH 40 47
BRANCH 43 52
ATOM     52   C  IDS C   3     137.058  48.004  47.7730  0.00  0.00     0.000 C
ATOM     53   O  IDS C   3     136.193  47.553  48.4890  0.00  0.00     0.000 OA
ATOM     54   O  IDS C   3     137.179  49.196  47.6400  0.00  0.00     0.000 OA
ENDBRANCH 43 52
BRANCH 39 55
ATOM     55  O4  SGN C   4     140.901  46.237  47.1810  0.00  0.00     0.000 O
BRANCH 55 59
ATOM     56  C1  SGN C   4     145.049  46.750  47.0000  0.00  0.00     0.000 C
ATOM     57  C2  SGN C   4     144.466  45.577  46.1930  0.00  0.00     0.000 C
ATOM     58  C3  SGN C   4     142.957  45.736  46.0210  0.00  0.00     0.000 C
ATOM     59  C4  SGN C   4     142.287  45.987  47.3670  0.00  0.00     0.000 C
ATOM     60  C5  SGN C   4     142.949  47.195  48.0270  0.00  0.00     0.000 C
ATOM     61  O5  SGN C   4     144.345  46.894  48.2230  0.00  0.00     0.000 O
ATOM     62   O  SGN C   4     142.423  44.571  45.4050  0.00  0.00     0.000 O
ATOM     64  HD  SGN C   4     143.239  44.615  45.1160  0.00  0.00     0.000 HD
BRANCH 57 66
ATOM     64   N  SGN C   4     145.875  45.508  45.7740  0.00  0.00     0.000 N
ATOM     66  HD  SGN C   4     146.493  44.902  45.7570  0.00  0.00     0.000 HD
ATOM     66   S  SGN C   4     146.360  44.395  44.7390  0.00  0.00     0.000 S
ATOM     67   O  SGN C   4     147.761  44.542  44.5820  0.00  0.00     0.000 OA
ATOM     68   O  SGN C   4     145.834  43.152  45.1870  0.00  0.00     0.000 OA
ATOM     69   O  SGN C   4     145.645  44.790  43.4070  0.00  0.00     0.000 OA
ENDBRANCH 57 66
BRANCH 60 70
ATOM     70   C  SGN C   4     142.361  47.553  49.3750  0.00  0.00     0.000 C
ATOM     71   O  SGN C   4     139.315  49.654  50.0200  0.00  0.00     0.000 OA
ATOM     72   O  SGN C   4     139.483  47.242  50.0820  0.00  0.00     0.000 OA
ATOM     73   O  SGN C   4     141.323  48.541  49.2260  0.00  0.00     0.000 O
ATOM     74   S  SGN C   4     140.145  48.507  50.3070  0.00  0.00     0.000 S
ATOM     75   O  SGN C   4     140.817  48.587  51.5890  0.00  0.00     0.000 OA
ENDBRANCH 60 70
BRANCH 56 76
ATOM     76  O4  IDS C   5     145.600  47.942  46.7030  0.00  0.00     0.000 O
BRANCH 76 80
ATOM     77  C1  IDS C   5     143.153  51.169  46.2020  0.00  0.00     0.000 C
ATOM     78  C2  IDS C   5     143.595  50.500  44.9010  0.00  0.00     0.000 C
ATOM     79  C3  IDS C   5     144.109  49.104  45.1900  0.00  0.00     0.000 C
ATOM     80  C4  IDS C   5     145.378  49.190  46.0310  0.00  0.00     0.000 C
ATOM     81  C5  IDS C   5     145.237  50.330  47.0500  0.00  0.00     0.000 C
ATOM     82  O5  IDS C   5     143.856  50.604  47.3080  0.00  0.00     0.000 O
BRANCH 78 83
ATOM     83   O  IDS C   5     142.460  50.396  43.9540  0.00  0.00     0.000 O
ATOM     84   S  IDS C   5     142.602  50.983  42.4780  0.00  0.00     0.000 S
ATOM     85   O  IDS C   5     143.130  52.313  42.6300  0.00  0.00     0.000 OA
ATOM     86   O  IDS C   5     143.509  50.087  41.7990  0.00  0.00     0.000 OA
ATOM     87   O  IDS C   5     141.273  50.959  41.9180  0.00  0.00     0.000 OA
ENDBRANCH 78 83
BRANCH 81 88
ATOM     88   C  IDS C   5     145.905  50.051  48.3840  0.00  0.00     0.000 C
ATOM     89   O  IDS C   5     147.104  50.034  48.4610  0.00  0.00     0.000 OA
ATOM     90   O  IDS C   5     145.225  49.848  49.3630  0.00  0.00     0.000 OA
ENDBRANCH 81 88
ENDBRANCH 76 80
ENDBRANCH 56 76
ENDBRANCH 55 59
ENDBRANCH 39 55
ENDBRANCH 38 42
ENDBRANCH 18 38
ENDBRANCH 17 21
ENDBRANCH 1 17
TORSDOF 18
ENDMDL
MODEL 64
REMARK VINA RESULT:      -4.4     11.950     18.038
ROOT
ATOM      1  C1  IDS C   1     146.484  35.765  37.6920  0.00  0.00     0.000 C
ATOM      2  C2  IDS C   1     147.447  34.710  37.1400  0.00  0.00     0.000 C
ATOM      3  C3  IDS C   1     148.829  34.863  37.7580  0.00  0.00     0.000 C
ATOM      4  C4  IDS C   1     149.391  36.250  37.4800  0.00  0.00     0.000 C
ATOM      5  C5  IDS C   1     148.284  37.295  37.5890  0.00  0.00     0.000 C
ATOM      6  O5  IDS C   1     147.204  36.786  38.3720  0.00  0.00     0.000 O
ATOM      7   O  IDS C   1     149.710  33.862  37.2290  0.00  0.00     0.000 O
ATOM      9  HD  IDS C   1     149.257  33.133  37.1160  0.00  0.00     0.000 HD
ENDROOT
BRANCH 2 9
ATOM      9   O  IDS C   1     146.967  33.345  37.4510  0.00  0.00     0.000 O
ATOM     10   S  IDS C   1     146.764  32.296  36.2670  0.00  0.00     0.000 S
ATOM     11   O  IDS C   1     146.310  31.074  36.8920  0.00  0.00     0.000 OA
ATOM     12   O  IDS C   1     145.771  32.885  35.3910  0.00  0.00     0.000 OA
ATOM     13   O  IDS C   1     148.059  32.156  35.6370  0.00  0.00     0.000 OA
ENDBRANCH 2 9
BRANCH 5 14
ATOM     14   C  IDS C   1     148.774  38.584  38.2260  0.00  0.00     0.000 C
ATOM     15   O  IDS C   1     148.430  39.644  37.7620  0.00  0.00     0.000 OA
ATOM     16   O  IDS C   1     149.511  38.538  39.1970  0.00  0.00     0.000 OA
ENDBRANCH 5 14
BRANCH 1 17
ATOM     17  O4  SGN C   2     145.226  35.488  38.0460  0.00  0.00     0.000 O
BRANCH 17 21
ATOM     18  C1  SGN C   2     142.233  34.105  40.6260  0.00  0.00     0.000 C
ATOM     19  C2  SGN C   2     143.609  34.368  41.2490  0.00  0.00     0.000 C
ATOM     20  C3  SGN C   2     144.445  35.248  40.3120  0.00  0.00     0.000 C
ATOM     21  C4  SGN C   2     144.503  34.626  38.9210  0.00  0.00     0.000 C
ATOM     22  C5  SGN C   2     143.080  34.419  38.4090  0.00  0.00     0.000 C
ATOM     23  O5  SGN C   2     142.349  33.571  39.3240  0.00  0.00     0.000 O
ATOM     24   O  SGN C   2     145.747  35.420  40.8450  0.00  0.00     0.000 O
ATOM     26  HD  SGN C   2     145.010  35.659  40.4580  0.00  0.00     0.000 HD
BRANCH 19 28
ATOM     26   N  SGN C   2     143.268  34.479  42.6740  0.00  0.00     0.000 N
ATOM     28  HD  SGN C   2     142.691  33.910  42.3680  0.00  0.00     0.000 HD
ATOM     28   O  SGN C   2     144.013  34.827  45.0290  0.00  0.00     0.000 OA
ATOM     29   S  SGN C   2     144.183  33.836  43.8290  0.00  0.00     0.000 S
ATOM     30   O  SGN C   2     143.610  32.594  44.1840  0.00  0.00     0.000 OA
ATOM     31   O  SGN C   2     145.534  33.885  43.3880  0.00  0.00     0.000 OA
ENDBRANCH 19 28
BRANCH 22 32
ATOM     32   C  SGN C   2     143.022  33.752  37.0560  0.00  0.00     0.000 C
ATOM     33   S  SGN C   2     141.346  32.420  35.6210  0.00  0.00     0.000 S
ATOM     34   O  SGN C   2     141.539  31.217  36.3900  0.00  0.00     0.000 OA
ATOM     35   O  SGN C   2     139.973  32.636  35.2140  0.00  0.00     0.000 OA
ATOM     36   O  SGN C   2     142.298  32.593  34.5490  0.00  0.00     0.000 OA
ATOM     37   O  SGN C   2     141.657  33.600  36.6520  0.00  0.00     0.000 O
ENDBRANCH 22 32
BRANCH 18 38
ATOM     38  O4  IDS C   3     141.153  34.888  40.5590  0.00  0.00     0.000 O
BRANCH 38 42
ATOM     39  C1  IDS C   3     138.136  36.301  41.5730  0.00  0.00     0.000 C
ATOM     40  C2  IDS C   3     138.454  34.824  41.8580  0.00  0.00     0.000 C
ATOM     41  C3  IDS C   3     138.876  34.094  40.5830  0.00  0.00     0.000 C
ATOM     42  C4  IDS C   3     139.929  34.885  39.8180  0.00  0.00     0.000 C
ATOM     43  C5  IDS C   3     139.443  36.324  39.6040  0.00  0.00     0.000 C
ATOM     44  O5  IDS C   3     139.198  36.927  40.8730  0.00  0.00     0.000 O
ATOM     45   O  IDS C   3     137.731  33.888  39.7540  0.00  0.00     0.000 O
ATOM     47  HD  IDS C   3     137.123  34.401  39.4110  0.00  0.00     0.000 HD
BRANCH 40 47
ATOM     47   O  IDS C   3     139.570  34.710  42.8260  0.00  0.00     0.000 O
ATOM     48   S  IDS C   3     139.260  34.404  44.3650  0.00  0.00     0.000 S
ATOM     49   O  IDS C   3     138.798  35.652  44.9330  0.00  0.00     0.000 OA
ATOM     50   O  IDS C   3     140.520  33.972  44.9290  0.00  0.00     0.000 OA
ATOM     51   O  IDS C   3     138.252  33.378  44.3800  0.00  0.00     0.000 OA
ENDBRANCH 40 47
BRANCH 43 52
ATOM     52   C  IDS C   3     140.429  37.165  38.8230  0.00  0.00     0.000 C
ATOM     53   O  IDS C   3     140.813  36.792  37.7390  0.00  0.00     0.000 OA
ATOM     54   O  IDS C   3     140.826  38.203  39.2870  0.00  0.00     0.000 OA
ENDBRANCH 43 52
BRANCH 39 55
ATOM     55  O4  SGN C   4     136.926  36.743  41.2310  0.00  0.00     0.000 O
BRANCH 55 59
ATOM     56  C1  SGN C   4     132.762  36.455  41.5160  0.00  0.00     0.000 C
ATOM     57  C2  SGN C   4     133.571  35.920  42.7100  0.00  0.00     0.000 C
ATOM     58  C3  SGN C   4     135.008  36.433  42.6630  0.00  0.00     0.000 C
ATOM     59  C4  SGN C   4     135.628  36.169  41.2950  0.00  0.00     0.000 C
ATOM     60  C5  SGN C   4     134.732  36.785  40.2230  0.00  0.00     0.000 C
ATOM     61  O5  SGN C   4     133.435  36.161  40.3030  0.00  0.00     0.000 O
ATOM     62   O  SGN C   4     135.770  35.808  43.6870  0.00  0.00     0.000 O
ATOM     64  HD  SGN C   4     134.960  35.817  43.9940  0.00  0.00     0.000 HD
BRANCH 57 66
ATOM     64   N  SGN C   4     133.375  35.187  43.9710  0.00  0.00     0.000 N
ATOM     66  HD  SGN C   4     133.081  35.374  44.7640  0.00  0.00     0.000 HD
ATOM     66   S  SGN C   4     131.953  35.185  44.6960  0.00  0.00     0.000 S
ATOM     67   O  SGN C   4     132.093  34.455  45.9030  0.00  0.00     0.000 OA
ATOM     68   O  SGN C   4     131.508  36.534  44.7420  0.00  0.00     0.000 OA
ATOM     69   O  SGN C   4     131.037  34.389  43.7120  0.00  0.00     0.000 OA
ENDBRANCH 57 66
BRANCH 60 70
ATOM     70   C  SGN C   4     135.249  36.598  38.8130  0.00  0.00     0.000 C
ATOM     71   O  SGN C   4     134.424  33.786  36.4640  0.00  0.00     0.000 OA
ATOM     72   O  SGN C   4     133.517  36.027  36.4560  0.00  0.00     0.000 OA
ATOM     73   O  SGN C   4     134.877  35.301  38.3080  0.00  0.00     0.000 O
ATOM     74   S  SGN C   4     134.661  35.186  36.7270  0.00  0.00     0.000 S
ATOM     75   O  SGN C   4     135.892  35.683  36.1480  0.00  0.00     0.000 OA
ENDBRANCH 60 70
BRANCH 56 76
ATOM     76  O4  IDS C   5     131.965  37.516  41.2930  0.00  0.00     0.000 O
BRANCH 76 80
ATOM     77  C1  IDS C   5     129.873  41.002  40.9340  0.00  0.00     0.000 C
ATOM     78  C2  IDS C   5     130.713  40.895  42.2060  0.00  0.00     0.000 C
ATOM     79  C3  IDS C   5     131.759  39.810  42.0410  0.00  0.00     0.000 C
ATOM     80  C4  IDS C   5     131.073  38.453  41.9150  0.00  0.00     0.000 C
ATOM     81  C5  IDS C   5     129.791  38.607  41.0830  0.00  0.00     0.000 C
ATOM     82  O5  IDS C   5     129.877  39.757  40.2360  0.00  0.00     0.000 O
BRANCH 78 83
ATOM     83   O  IDS C   5     131.405  42.175  42.4870  0.00  0.00     0.000 O
ATOM     84   S  IDS C   5     131.345  42.804  43.9510  0.00  0.00     0.000 S
ATOM     85   O  IDS C   5     129.960  42.779  44.3370  0.00  0.00     0.000 OA
ATOM     86   O  IDS C   5     132.177  41.948  44.7650  0.00  0.00     0.000 OA
ATOM     87   O  IDS C   5     131.878  44.139  43.8250  0.00  0.00     0.000 OA
ENDBRANCH 78 83
BRANCH 81 88
ATOM     88   C  IDS C   5     129.482  37.411  40.2020  0.00  0.00     0.000 C
ATOM     89   O  IDS C   5     129.023  36.412  40.6870  0.00  0.00     0.000 OA
ATOM     90   O  IDS C   5     129.699  37.472  39.0130  0.00  0.00     0.000 OA
ENDBRANCH 81 88
ENDBRANCH 76 80
ENDBRANCH 56 76
ENDBRANCH 55 59
ENDBRANCH 39 55
ENDBRANCH 38 42
ENDBRANCH 18 38
ENDBRANCH 17 21
ENDBRANCH 1 17
TORSDOF 18
ENDMDL
MODEL 65
REMARK VINA RESULT:      -4.4     14.288     22.503
ROOT
ATOM      1  C1  IDS C   1     132.462  44.709  41.5350  0.00  0.00     0.000 C
ATOM      2  C2  IDS C   1     131.547  45.134  40.3830  0.00  0.00     0.000 C
ATOM      3  C3  IDS C   1     130.094  44.807  40.6980  0.00  0.00     0.000 C
ATOM      4  C4  IDS C   1     129.922  43.316  40.9520  0.00  0.00     0.000 C
ATOM      5  C5  IDS C   1     131.111  42.779  41.7440  0.00  0.00     0.000 C
ATOM      6  O5  IDS C   1     131.767  43.847  42.4280  0.00  0.00     0.000 O
ATOM      7   O  IDS C   1     129.257  45.217  39.6080  0.00  0.00     0.000 O
ATOM      9  HD  IDS C   1     129.577  45.953  39.2810  0.00  0.00     0.000 HD
ENDROOT
BRANCH 2 9
ATOM      9   O  IDS C   1     131.635  46.593  40.1510  0.00  0.00     0.000 O
ATOM     10   S  IDS C   1     132.203  47.132  38.7610  0.00  0.00     0.000 S
ATOM     11   O  IDS C   1     132.147  48.574  38.8430  0.00  0.00     0.000 OA
ATOM     12   O  IDS C   1     133.556  46.624  38.6700  0.00  0.00     0.000 OA
ATOM     13   O  IDS C   1     131.329  46.593  37.7420  0.00  0.00     0.000 OA
ENDBRANCH 2 9
BRANCH 5 14
ATOM     14   C  IDS C   1     130.695  41.736  42.7670  0.00  0.00     0.000 C
ATOM     15   O  IDS C   1     129.989  40.819  42.4260  0.00  0.00     0.000 OA
ATOM     16   O  IDS C   1     131.075  41.835  43.9210  0.00  0.00     0.000 OA
ENDBRANCH 5 14
BRANCH 1 17
ATOM     17  O4  SGN C   2     133.464  45.468  41.9860  0.00  0.00     0.000 O
BRANCH 17 21
ATOM     18  C1  SGN C   2     134.886  48.498  44.5020  0.00  0.00     0.000 C
ATOM     19  C2  SGN C   2     133.376  48.228  44.5370  0.00  0.00     0.000 C
ATOM     20  C3  SGN C   2     133.079  46.858  43.9150  0.00  0.00     0.000 C
ATOM     21  C4  SGN C   2     133.692  46.769  42.5220  0.00  0.00     0.000 C
ATOM     22  C5  SGN C   2     135.189  47.050  42.6190  0.00  0.00     0.000 C
ATOM     23  O5  SGN C   2     135.405  48.359  43.1960  0.00  0.00     0.000 O
ATOM     24   O  SGN C   2     131.678  46.644  43.8670  0.00  0.00     0.000 O
ATOM     26  HD  SGN C   2     132.509  46.436  43.9970  0.00  0.00     0.000 HD
BRANCH 19 28
ATOM     26   N  SGN C   2     132.998  48.853  45.8110  0.00  0.00     0.000 N
ATOM     28  HD  SGN C   2     133.641  49.354  45.5200  0.00  0.00     0.000 HD
ATOM     28   O  SGN C   2     131.224  49.407  47.4760  0.00  0.00     0.000 OA
ATOM     29   S  SGN C   2     131.632  49.683  45.9890  0.00  0.00     0.000 S
ATOM     30   O  SGN C   2     131.946  51.053  45.8530  0.00  0.00     0.000 OA
ATOM     31   O  SGN C   2     130.657  49.097  45.1360  0.00  0.00     0.000 OA
ENDBRANCH 19 28
BRANCH 22 32
ATOM     32   C  SGN C   2     135.887  47.044  41.2810  0.00  0.00     0.000 C
ATOM     33   S  SGN C   2     137.588  45.602  39.9880  0.00  0.00     0.000 S
ATOM     34   O  SGN C   2     138.701  46.109  40.7520  0.00  0.00     0.000 OA
ATOM     35   O  SGN C   2     137.688  44.190  39.6830  0.00  0.00     0.000 OA
ATOM     36   O  SGN C   2     137.239  46.414  38.8460  0.00  0.00     0.000 OA
ATOM     37   O  SGN C   2     136.344  45.719  40.9820  0.00  0.00     0.000 O
ENDBRANCH 22 32
BRANCH 18 38
ATOM     38  O4  IDS C   3     135.862  48.039  45.2890  0.00  0.00     0.000 O
BRANCH 38 42
ATOM     39  C1  IDS C   3     138.338  47.474  47.6710  0.00  0.00     0.000 C
ATOM     40  C2  IDS C   3     138.639  47.342  46.1700  0.00  0.00     0.000 C
ATOM     41  C3  IDS C   3     137.635  46.417  45.4840  0.00  0.00     0.000 C
ATOM     42  C4  IDS C   3     136.205  46.775  45.8660  0.00  0.00     0.000 C
ATOM     43  C5  IDS C   3     136.077  46.844  47.3920  0.00  0.00     0.000 C
ATOM     44  O5  IDS C   3     136.982  47.827  47.8920  0.00  0.00     0.000 O
ATOM     45   O  IDS C   3     137.908  45.064  45.8540  0.00  0.00     0.000 O
ATOM     47  HD  IDS C   3     137.982  44.638  46.6050  0.00  0.00     0.000 HD
BRANCH 40 47
ATOM     47   O  IDS C   3     138.552  48.664  45.5040  0.00  0.00     0.000 O
ATOM     48   S  IDS C   3     139.792  49.208  44.6530  0.00  0.00     0.000 S
ATOM     49   O  IDS C   3     140.762  49.677  45.6190  0.00  0.00     0.000 OA
ATOM     50   O  IDS C   3     139.255  50.280  43.8430  0.00  0.00     0.000 OA
ATOM     51   O  IDS C   3     140.271  48.097  43.8750  0.00  0.00     0.000 OA
ENDBRANCH 40 47
BRANCH 43 52
ATOM     52   C  IDS C   3     134.672  47.169  47.8480  0.00  0.00     0.000 C
ATOM     53   O  IDS C   3     133.780  46.371  47.6700  0.00  0.00     0.000 OA
ATOM     54   O  IDS C   3     134.448  48.223  48.3880  0.00  0.00     0.000 OA
ENDBRANCH 43 52
BRANCH 39 55
ATOM     55  O4  SGN C   4     138.846  46.664  48.6000  0.00  0.00     0.000 O
BRANCH 55 59
ATOM     56  C1  SGN C   4     142.457  47.950  50.2770  0.00  0.00     0.000 C
ATOM     57  C2  SGN C   4     142.558  47.045  49.0370  0.00  0.00     0.000 C
ATOM     58  C3  SGN C   4     141.220  46.977  48.3060  0.00  0.00     0.000 C
ATOM     59  C4  SGN C   4     140.097  46.621  49.2720  0.00  0.00     0.000 C
ATOM     60  C5  SGN C   4     140.104  47.623  50.4240  0.00  0.00     0.000 C
ATOM     61  O5  SGN C   4     141.377  47.532  51.0950  0.00  0.00     0.000 O
ATOM     62   O  SGN C   4     141.300  46.023  47.2560  0.00  0.00     0.000 O
ATOM     64  HD  SGN C   4     142.112  46.310  47.3490  0.00  0.00     0.000 HD
BRANCH 57 66
ATOM     64   N  SGN C   4     143.967  47.447  49.1790  0.00  0.00     0.000 N
ATOM     66  HD  SGN C   4     144.723  47.044  49.3050  0.00  0.00     0.000 HD
ATOM     66   S  SGN C   4     145.092  46.804  48.2480  0.00  0.00     0.000 S
ATOM     67   O  SGN C   4     146.340  47.338  48.6580  0.00  0.00     0.000 OA
ATOM     68   O  SGN C   4     144.894  45.396  48.2680  0.00  0.00     0.000 OA
ATOM     69   O  SGN C   4     144.743  47.338  46.8220  0.00  0.00     0.000 OA
ENDBRANCH 57 66
BRANCH 60 70
ATOM     70   C  SGN C   4     139.021  47.380  51.4530  0.00  0.00     0.000 C
ATOM     71   O  SGN C   4     135.552  48.819  51.4590  0.00  0.00     0.000 OA
ATOM     72   O  SGN C   4     136.224  46.596  50.7860  0.00  0.00     0.000 OA
ATOM     73   O  SGN C   4     137.905  48.263  51.2300  0.00  0.00     0.000 O
ATOM     74   S  SGN C   4     136.466  47.719  51.6630  0.00  0.00     0.000 S
ATOM     75   O  SGN C   4     136.615  47.342  53.0550  0.00  0.00     0.000 OA
ENDBRANCH 60 70
BRANCH 56 76
ATOM     76  O4  IDS C   5     142.688  49.249  50.5410  0.00  0.00     0.000 O
BRANCH 76 80
ATOM     77  C1  IDS C   5     139.525  51.815  50.2720  0.00  0.00     0.000 C
ATOM     78  C2  IDS C   5     140.469  51.843  49.0700  0.00  0.00     0.000 C
ATOM     79  C3  IDS C   5     141.323  50.591  49.0570  0.00  0.00     0.000 C
ATOM     80  C4  IDS C   5     142.244  50.588  50.2730  0.00  0.00     0.000 C
ATOM     81  C5  IDS C   5     141.490  51.156  51.4840  0.00  0.00     0.000 C
ATOM     82  O5  IDS C   5     140.078  51.007  51.3110  0.00  0.00     0.000 O
BRANCH 78 83
ATOM     83   O  IDS C   5     139.703  51.901  47.8030  0.00  0.00     0.000 O
ATOM     84   S  IDS C   5     139.905  53.133  46.8100  0.00  0.00     0.000 S
ATOM     85   O  IDS C   5     139.804  54.316  47.6210  0.00  0.00     0.000 OA
ATOM     86   O  IDS C   5     141.217  52.946  46.2380  0.00  0.00     0.000 OA
ATOM     87   O  IDS C   5     138.851  53.022  45.8310  0.00  0.00     0.000 OA
ENDBRANCH 78 83
BRANCH 81 88
ATOM     88   C  IDS C   5     141.861  50.501  52.8020  0.00  0.00     0.000 C
ATOM     89   O  IDS C   5     142.934  50.719  53.2980  0.00  0.00     0.000 OA
ATOM     90   O  IDS C   5     141.072  49.764  53.3470  0.00  0.00     0.000 OA
ENDBRANCH 81 88
ENDBRANCH 76 80
ENDBRANCH 56 76
ENDBRANCH 55 59
ENDBRANCH 39 55
ENDBRANCH 38 42
ENDBRANCH 18 38
ENDBRANCH 17 21
ENDBRANCH 1 17
TORSDOF 18
ENDMDL
MODEL 66
REMARK VINA RESULT:      -4.3     16.836     21.534
ROOT
ATOM      1  C1  IDS C   1     173.012  36.469  55.4550  0.00  0.00     0.000 C
ATOM      2  C2  IDS C   1     174.080  37.170  56.3000  0.00  0.00     0.000 C
ATOM      3  C3  IDS C   1     173.568  37.432  57.7080  0.00  0.00     0.000 C
ATOM      4  C4  IDS C   1     172.312  38.291  57.6730  0.00  0.00     0.000 C
ATOM      5  C5  IDS C   1     171.425  37.872  56.5040  0.00  0.00     0.000 C
ATOM      6  O5  IDS C   1     171.745  36.542  56.0960  0.00  0.00     0.000 O
ATOM      7   O  IDS C   1     174.586  38.084  58.4810  0.00  0.00     0.000 O
ATOM      9  HD  IDS C   1     175.354  37.761  58.2470  0.00  0.00     0.000 HD
ENDROOT
BRANCH 2 9
ATOM      9   O  IDS C   1     175.295  36.332  56.4150  0.00  0.00     0.000 O
ATOM     10   S  IDS C   1     176.709  36.942  56.0010  0.00  0.00     0.000 S
ATOM     11   O  IDS C   1     177.677  35.895  56.2390  0.00  0.00     0.000 OA
ATOM     12   O  IDS C   1     176.589  37.291  54.6010  0.00  0.00     0.000 OA
ATOM     13   O  IDS C   1     176.907  38.093  56.8540  0.00  0.00     0.000 OA
ENDBRANCH 2 9
BRANCH 5 14
ATOM     14   C  IDS C   1     169.948  37.925  56.8580  0.00  0.00     0.000 C
ATOM     15   O  IDS C   1     169.124  37.789  55.9870  0.00  0.00     0.000 OA
ATOM     16   O  IDS C   1     169.609  38.105  58.0150  0.00  0.00     0.000 OA
ENDBRANCH 5 14
BRANCH 1 17
ATOM     17  O4  SGN C   2     173.287  35.450  54.6350  0.00  0.00     0.000 O
BRANCH 17 21
ATOM     18  C1  SGN C   2     172.739  31.533  53.2630  0.00  0.00     0.000 C
ATOM     19  C2  SGN C   2     171.797  32.009  54.3760  0.00  0.00     0.000 C
ATOM     20  C3  SGN C   2     171.831  33.539  54.4660  0.00  0.00     0.000 C
ATOM     21  C4  SGN C   2     173.267  34.025  54.6190  0.00  0.00     0.000 C
ATOM     22  C5  SGN C   2     174.099  33.494  53.4560  0.00  0.00     0.000 C
ATOM     23  O5  SGN C   2     174.042  32.049  53.4340  0.00  0.00     0.000 O
ATOM     24   O  SGN C   2     171.029  33.977  55.5510  0.00  0.00     0.000 O
ATOM     26  HD  SGN C   2     171.352  33.989  54.7470  0.00  0.00     0.000 HD
BRANCH 19 28
ATOM     26   N  SGN C   2     170.850  30.982  54.8310  0.00  0.00     0.000 N
ATOM     28  HD  SGN C   2     171.496  30.935  55.4060  0.00  0.00     0.000 HD
ATOM     28   O  SGN C   2     168.490  30.209  55.0740  0.00  0.00     0.000 OA
ATOM     29   S  SGN C   2     169.453  31.354  55.5360  0.00  0.00     0.000 S
ATOM     30   O  SGN C   2     169.640  31.251  56.9320  0.00  0.00     0.000 OA
ATOM     31   O  SGN C   2     169.001  32.581  54.9760  0.00  0.00     0.000 OA
ENDBRANCH 19 28
BRANCH 22 32
ATOM     32   C  SGN C   2     175.558  33.871  53.5420  0.00  0.00     0.000 C
ATOM     33   S  SGN C   2     177.416  34.793  52.0120  0.00  0.00     0.000 S
ATOM     34   O  SGN C   2     177.613  33.518  51.3680  0.00  0.00     0.000 OA
ATOM     35   O  SGN C   2     177.511  35.921  51.1090  0.00  0.00     0.000 OA
ATOM     36   O  SGN C   2     178.177  34.963  53.2270  0.00  0.00     0.000 OA
ATOM     37   O  SGN C   2     175.888  34.767  52.4750  0.00  0.00     0.000 O
ENDBRANCH 22 32
BRANCH 18 38
ATOM     38  O4  IDS C   3     172.568  31.516  51.9390  0.00  0.00     0.000 O
BRANCH 38 42
ATOM     39  C1  IDS C   3     172.274  30.769  48.5500  0.00  0.00     0.000 C
ATOM     40  C2  IDS C   3     173.210  31.888  49.0360  0.00  0.00     0.000 C
ATOM     41  C3  IDS C   3     172.471  32.869  49.9460  0.00  0.00     0.000 C
ATOM     42  C4  IDS C   3     171.670  32.136  51.0120  0.00  0.00     0.000 C
ATOM     43  C5  IDS C   3     170.780  31.074  50.3550  0.00  0.00     0.000 C
ATOM     44  O5  IDS C   3     171.602  30.155  49.6370  0.00  0.00     0.000 O
ATOM     45   O  IDS C   3     171.597  33.678  49.1570  0.00  0.00     0.000 O
ATOM     47  HD  IDS C   3     170.957  33.520  48.5950  0.00  0.00     0.000 HD
BRANCH 40 47
ATOM     47   O  IDS C   3     174.337  31.322  49.8150  0.00  0.00     0.000 O
ATOM     48   S  IDS C   3     175.671  30.861  49.0640  0.00  0.00     0.000 S
ATOM     49   O  IDS C   3     175.361  29.588  48.4490  0.00  0.00     0.000 OA
ATOM     50   O  IDS C   3     176.672  30.745  50.1020  0.00  0.00     0.000 OA
ATOM     51   O  IDS C   3     175.970  31.887  48.1010  0.00  0.00     0.000 OA
ENDBRANCH 40 47
BRANCH 43 52
ATOM     52   C  IDS C   3     169.931  30.321  51.3550  0.00  0.00     0.000 C
ATOM     53   O  IDS C   3     169.923  29.111  51.3500  0.00  0.00     0.000 OA
ATOM     54   O  IDS C   3     169.265  30.931  52.1530  0.00  0.00     0.000 OA
ENDBRANCH 43 52
BRANCH 39 55
ATOM     55  O4  SGN C   4     171.546  30.847  47.4360  0.00  0.00     0.000 O
BRANCH 55 59
ATOM     56  C1  SGN C   4     169.261  29.100  44.3980  0.00  0.00     0.000 C
ATOM     57  C2  SGN C   4     168.488  29.655  45.6070  0.00  0.00     0.000 C
ATOM     58  C3  SGN C   4     169.368  30.594  46.4280  0.00  0.00     0.000 C
ATOM     59  C4  SGN C   4     170.697  29.927  46.7640  0.00  0.00     0.000 C
ATOM     60  C5  SGN C   4     171.356  29.463  45.4670  0.00  0.00     0.000 C
ATOM     61  O5  SGN C   4     170.479  28.514  44.8280  0.00  0.00     0.000 O
ATOM     62   O  SGN C   4     168.683  30.973  47.6140  0.00  0.00     0.000 O
ATOM     64  HD  SGN C   4     168.053  30.814  47.0410  0.00  0.00     0.000 HD
BRANCH 57 66
ATOM     64   N  SGN C   4     167.317  29.988  44.7800  0.00  0.00     0.000 N
ATOM     66  HD  SGN C   4     166.675  29.549  44.4000  0.00  0.00     0.000 HD
ATOM     66   S  SGN C   4     165.859  29.496  45.2020  0.00  0.00     0.000 S
ATOM     67   O  SGN C   4     164.960  29.913  44.1890  0.00  0.00     0.000 OA
ATOM     68   O  SGN C   4     165.962  28.113  45.5190  0.00  0.00     0.000 OA
ATOM     69   O  SGN C   4     165.566  30.290  46.5150  0.00  0.00     0.000 OA
ENDBRANCH 57 66
BRANCH 60 70
ATOM     70   C  SGN C   4     172.696  28.789  45.6700  0.00  0.00     0.000 C
ATOM     71   O  SGN C   4     174.029  25.813  43.8070  0.00  0.00     0.000 OA
ATOM     72   O  SGN C   4     174.594  28.140  43.4660  0.00  0.00     0.000 OA
ATOM     73   O  SGN C   4     172.762  27.561  44.9200  0.00  0.00     0.000 O
ATOM     74   S  SGN C   4     174.210  27.114  44.4090  0.00  0.00     0.000 S
ATOM     75   O  SGN C   4     175.032  27.089  45.6020  0.00  0.00     0.000 OA
ENDBRANCH 60 70
BRANCH 56 76
ATOM     76  O4  IDS C   5     169.414  29.455  43.1090  0.00  0.00     0.000 O
BRANCH 76 80
ATOM     77  C1  IDS C   5     172.686  31.579  41.9080  0.00  0.00     0.000 C
ATOM     78  C2  IDS C   5     171.458  32.432  42.2260  0.00  0.00     0.000 C
ATOM     79  C3  IDS C   5     170.477  31.631  43.0600  0.00  0.00     0.000 C
ATOM     80  C4  IDS C   5     169.937  30.467  42.2340  0.00  0.00     0.000 C
ATOM     81  C5  IDS C   5     171.065  29.892  41.3650  0.00  0.00     0.000 C
ATOM     82  O5  IDS C   5     172.342  30.194  41.9360  0.00  0.00     0.000 O
BRANCH 78 83
ATOM     83   O  IDS C   5     171.843  33.641  42.9900  0.00  0.00     0.000 O
ATOM     84   S  IDS C   5     171.425  35.084  42.4540  0.00  0.00     0.000 S
ATOM     85   O  IDS C   5     171.796  35.114  41.0650  0.00  0.00     0.000 OA
ATOM     86   O  IDS C   5     169.998  35.166  42.6620  0.00  0.00     0.000 OA
ATOM     87   O  IDS C   5     172.159  36.028  43.2600  0.00  0.00     0.000 OA
ENDBRANCH 78 83
BRANCH 81 88
ATOM     88   C  IDS C   5     170.992  28.388  41.1760  0.00  0.00     0.000 C
ATOM     89   O  IDS C   5     171.747  27.672  41.7770  0.00  0.00     0.000 OA
ATOM     90   O  IDS C   5     170.172  27.919  40.4210  0.00  0.00     0.000 OA
ENDBRANCH 81 88
ENDBRANCH 76 80
ENDBRANCH 56 76
ENDBRANCH 55 59
ENDBRANCH 39 55
ENDBRANCH 38 42
ENDBRANCH 18 38
ENDBRANCH 17 21
ENDBRANCH 1 17
TORSDOF 18
ENDMDL
MODEL 67
REMARK VINA RESULT:      -4.3      8.463     15.963
ROOT
ATOM      1  C1  IDS C   1     143.791  48.315  38.8260  0.00  0.00     0.000 C
ATOM      2  C2  IDS C   1     142.770  49.455  38.7720  0.00  0.00     0.000 C
ATOM      3  C3  IDS C   1     142.856  50.196  37.4460  0.00  0.00     0.000 C
ATOM      4  C4  IDS C   1     144.253  50.764  37.2380  0.00  0.00     0.000 C
ATOM      5  C5  IDS C   1     145.301  49.771  37.7330  0.00  0.00     0.000 C
ATOM      6  O5  IDS C   1     144.747  48.456  37.7820  0.00  0.00     0.000 O
ATOM      7   O  IDS C   1     141.888  51.254  37.4180  0.00  0.00     0.000 O
ATOM      9  HD  IDS C   1     141.176  50.983  37.8280  0.00  0.00     0.000 HD
ENDROOT
BRANCH 2 9
ATOM      9   O  IDS C   1     141.391  48.933  38.9030  0.00  0.00     0.000 O
ATOM     10   S  IDS C   1     140.439  49.511  40.0440  0.00  0.00     0.000 S
ATOM     11   O  IDS C   1     139.178  48.818  39.8980  0.00  0.00     0.000 OA
ATOM     12   O  IDS C   1     141.105  49.213  41.2950  0.00  0.00     0.000 OA
ATOM     13   O  IDS C   1     140.331  50.931  39.7870  0.00  0.00     0.000 OA
ENDBRANCH 2 9
BRANCH 5 14
ATOM     14   C  IDS C   1     146.530  49.743  36.8420  0.00  0.00     0.000 C
ATOM     15   O  IDS C   1     146.504  49.112  35.8130  0.00  0.00     0.000 OA
ATOM     16   O  IDS C   1     147.532  50.354  37.1720  0.00  0.00     0.000 OA
ENDBRANCH 5 14
BRANCH 1 17
ATOM     17  O4  SGN C   2     143.504  47.103  39.3080  0.00  0.00     0.000 O
BRANCH 17 21
ATOM     18  C1  SGN C   2     142.966  42.964  38.9770  0.00  0.00     0.000 C
ATOM     19  C2  SGN C   2     143.574  43.677  37.7630  0.00  0.00     0.000 C
ATOM     20  C3  SGN C   2     144.093  45.059  38.1780  0.00  0.00     0.000 C
ATOM     21  C4  SGN C   2     142.988  45.849  38.8700  0.00  0.00     0.000 C
ATOM     22  C5  SGN C   2     142.469  45.043  40.0580  0.00  0.00     0.000 C
ATOM     23  O5  SGN C   2     141.980  43.760  39.6020  0.00  0.00     0.000 O
ATOM     24   O  SGN C   2     144.577  45.754  37.0410  0.00  0.00     0.000 O
ATOM     26  HD  SGN C   2     144.578  45.477  37.8610  0.00  0.00     0.000 HD
BRANCH 19 28
ATOM     26   N  SGN C   2     143.853  42.912  36.5400  0.00  0.00     0.000 N
ATOM     28  HD  SGN C   2     143.213  43.447  36.3070  0.00  0.00     0.000 HD
ATOM     28   O  SGN C   2     145.501  41.730  35.0880  0.00  0.00     0.000 OA
ATOM     29   S  SGN C   2     145.178  43.151  35.6610  0.00  0.00     0.000 S
ATOM     30   O  SGN C   2     144.830  44.002  34.5880  0.00  0.00     0.000 OA
ATOM     31   O  SGN C   2     146.222  43.530  36.5480  0.00  0.00     0.000 OA
ENDBRANCH 19 28
BRANCH 22 32
ATOM     32   C  SGN C   2     141.327  45.712  40.7820  0.00  0.00     0.000 C
ATOM     33   S  SGN C   2     140.462  45.997  43.1930  0.00  0.00     0.000 S
ATOM     34   O  SGN C   2     139.921  44.662  43.2300  0.00  0.00     0.000 OA
ATOM     35   O  SGN C   2     141.070  46.412  44.4400  0.00  0.00     0.000 OA
ATOM     36   O  SGN C   2     139.565  46.981  42.6350  0.00  0.00     0.000 OA
ATOM     37   O  SGN C   2     141.674  45.902  42.1590  0.00  0.00     0.000 O
ENDBRANCH 22 32
BRANCH 18 38
ATOM     38  O4  IDS C   3     143.559  42.328  39.9900  0.00  0.00     0.000 O
BRANCH 38 42
ATOM     39  C1  IDS C   3     145.537  40.052  41.7310  0.00  0.00     0.000 C
ATOM     40  C2  IDS C   3     144.720  39.615  40.5050  0.00  0.00     0.000 C
ATOM     41  C3  IDS C   3     143.254  40.027  40.6420  0.00  0.00     0.000 C
ATOM     42  C4  IDS C   3     143.129  41.485  41.0640  0.00  0.00     0.000 C
ATOM     43  C5  IDS C   3     143.989  41.742  42.3070  0.00  0.00     0.000 C
ATOM     44  O5  IDS C   3     145.348  41.430  42.0070  0.00  0.00     0.000 O
ATOM     45   O  IDS C   3     142.616  39.189  41.6080  0.00  0.00     0.000 O
ATOM     47  HD  IDS C   3     142.768  38.983  42.4350  0.00  0.00     0.000 HD
BRANCH 40 47
ATOM     47   O  IDS C   3     145.247  40.251  39.2740  0.00  0.00     0.000 O
ATOM     48   S  IDS C   3     146.713  39.881  38.7520  0.00  0.00     0.000 S
ATOM     49   O  IDS C   3     147.632  40.602  39.6060  0.00  0.00     0.000 OA
ATOM     50   O  IDS C   3     146.756  40.340  37.3810  0.00  0.00     0.000 OA
ATOM     51   O  IDS C   3     146.840  38.454  38.8760  0.00  0.00     0.000 OA
ENDBRANCH 40 47
BRANCH 43 52
ATOM     52   C  IDS C   3     143.892  43.168  42.8020  0.00  0.00     0.000 C
ATOM     53   O  IDS C   3     143.007  43.483  43.5630  0.00  0.00     0.000 OA
ATOM     54   O  IDS C   3     144.700  43.983  42.4350  0.00  0.00     0.000 OA
ENDBRANCH 43 52
BRANCH 39 55
ATOM     55  O4  SGN C   4     145.699  39.297  42.8180  0.00  0.00     0.000 O
BRANCH 55 59
ATOM     56  C1  SGN C   4     148.007  37.578  45.8540  0.00  0.00     0.000 C
ATOM     57  C2  SGN C   4     147.890  39.112  45.8640  0.00  0.00     0.000 C
ATOM     58  C3  SGN C   4     146.735  39.572  44.9800  0.00  0.00     0.000 C
ATOM     59  C4  SGN C   4     146.835  38.944  43.5950  0.00  0.00     0.000 C
ATOM     60  C5  SGN C   4     146.909  37.426  43.7480  0.00  0.00     0.000 C
ATOM     61  O5  SGN C   4     148.084  37.106  44.5180  0.00  0.00     0.000 O
ATOM     62   O  SGN C   4     146.742  40.991  44.8890  0.00  0.00     0.000 O
ATOM     64  HD  SGN C   4     147.101  40.821  45.6580  0.00  0.00     0.000 HD
BRANCH 57 66
ATOM     64   N  SGN C   4     147.775  39.606  47.2460  0.00  0.00     0.000 N
ATOM     66  HD  SGN C   4     148.155  39.435  48.0050  0.00  0.00     0.000 HD
ATOM     66   S  SGN C   4     149.061  40.134  48.0290  0.00  0.00     0.000 S
ATOM     67   O  SGN C   4     148.648  40.480  49.3400  0.00  0.00     0.000 OA
ATOM     68   O  SGN C   4     150.084  39.162  47.8520  0.00  0.00     0.000 OA
ATOM     69   O  SGN C   4     149.462  41.430  47.2520  0.00  0.00     0.000 OA
ENDBRANCH 57 66
BRANCH 60 70
ATOM     70   C  SGN C   4     147.001  36.683  42.4330  0.00  0.00     0.000 C
ATOM     71   O  SGN C   4     149.907  36.664  40.0530  0.00  0.00     0.000 OA
ATOM     72   O  SGN C   4     149.295  34.951  41.6460  0.00  0.00     0.000 OA
ATOM     73   O  SGN C   4     148.179  37.085  41.7080  0.00  0.00     0.000 O
ATOM     74   S  SGN C   4     148.837  35.987  40.7490  0.00  0.00     0.000 S
ATOM     75   O  SGN C   4     147.759  35.562  39.8790  0.00  0.00     0.000 OA
ENDBRANCH 60 70
BRANCH 56 76
ATOM     76  O4  IDS C   5     147.536  36.572  46.6140  0.00  0.00     0.000 O
BRANCH 76 80
ATOM     77  C1  IDS C   5     144.366  34.190  45.6470  0.00  0.00     0.000 C
ATOM     78  C2  IDS C   5     143.992  35.473  46.3890  0.00  0.00     0.000 C
ATOM     79  C3  IDS C   5     145.136  36.465  46.3090  0.00  0.00     0.000 C
ATOM     80  C4  IDS C   5     146.341  35.917  47.0660  0.00  0.00     0.000 C
ATOM     81  C5  IDS C   5     146.440  34.402  46.8360  0.00  0.00     0.000 C
ATOM     82  O5  IDS C   5     145.784  34.035  45.6190  0.00  0.00     0.000 O
BRANCH 78 83
ATOM     83   O  IDS C   5     142.789  36.095  45.7870  0.00  0.00     0.000 O
ATOM     84   S  IDS C   5     141.542  36.464  46.7100  0.00  0.00     0.000 S
ATOM     85   O  IDS C   5     141.274  35.293  47.5010  0.00  0.00     0.000 OA
ATOM     86   O  IDS C   5     141.975  37.595  47.4980  0.00  0.00     0.000 OA
ATOM     87   O  IDS C   5     140.470  36.797  45.8040  0.00  0.00     0.000 OA
ENDBRANCH 78 83
BRANCH 81 88
ATOM     88   C  IDS C   5     147.865  33.882  46.7630  0.00  0.00     0.000 C
ATOM     89   O  IDS C   5     148.506  33.750  47.7710  0.00  0.00     0.000 OA
ATOM     90   O  IDS C   5     148.346  33.603  45.6890  0.00  0.00     0.000 OA
ENDBRANCH 81 88
ENDBRANCH 76 80
ENDBRANCH 56 76
ENDBRANCH 55 59
ENDBRANCH 39 55
ENDBRANCH 38 42
ENDBRANCH 18 38
ENDBRANCH 17 21
ENDBRANCH 1 17
TORSDOF 18
ENDMDL
MODEL 68
REMARK VINA RESULT:      -4.3     10.536     18.077
ROOT
ATOM      1  C1  IDS C   1     145.776  33.787  29.1980  0.00  0.00     0.000 C
ATOM      2  C2  IDS C   1     145.582  32.844  28.0070  0.00  0.00     0.000 C
ATOM      3  C3  IDS C   1     146.840  32.789  27.1520  0.00  0.00     0.000 C
ATOM      4  C4  IDS C   1     147.202  34.176  26.6400  0.00  0.00     0.000 C
ATOM      5  C5  IDS C   1     146.952  35.217  27.7270  0.00  0.00     0.000 C
ATOM      6  O5  IDS C   1     146.933  34.592  29.0100  0.00  0.00     0.000 O
ATOM      7   O  IDS C   1     146.636  31.897  26.0460  0.00  0.00     0.000 O
ATOM      9  HD  IDS C   1     146.149  31.234  26.3180  0.00  0.00     0.000 HD
ENDROOT
BRANCH 2 9
ATOM      9   O  IDS C   1     145.295  31.466  28.4670  0.00  0.00     0.000 O
ATOM     10   S  IDS C   1     143.980  30.727  27.9510  0.00  0.00     0.000 S
ATOM     11   O  IDS C   1     143.997  29.416  28.5620  0.00  0.00     0.000 OA
ATOM     12   O  IDS C   1     142.871  31.544  28.4010  0.00  0.00     0.000 OA
ATOM     13   O  IDS C   1     144.095  30.676  26.5100  0.00  0.00     0.000 OA
ENDBRANCH 2 9
BRANCH 5 14
ATOM     14   C  IDS C   1     148.014  36.303  27.7360  0.00  0.00     0.000 C
ATOM     15   O  IDS C   1     147.751  37.394  27.2910  0.00  0.00     0.000 OA
ATOM     16   O  IDS C   1     149.120  36.064  28.1900  0.00  0.00     0.000 OA
ENDBRANCH 5 14
BRANCH 1 17
ATOM     17  O4  SGN C   2     145.361  33.493  30.4340  0.00  0.00     0.000 O
BRANCH 17 21
ATOM     18  C1  SGN C   2     145.689  31.679  34.1920  0.00  0.00     0.000 C
ATOM     19  C2  SGN C   2     146.951  31.686  33.3210  0.00  0.00     0.000 C
ATOM     20  C3  SGN C   2     146.804  32.725  32.2030  0.00  0.00     0.000 C
ATOM     21  C4  SGN C   2     145.516  32.481  31.4250  0.00  0.00     0.000 C
ATOM     22  C5  SGN C   2     144.338  32.501  32.3950  0.00  0.00     0.000 C
ATOM     23  O5  SGN C   2     144.525  31.492  33.4140  0.00  0.00     0.000 O
ATOM     24   O  SGN C   2     147.932  32.673  31.3450  0.00  0.00     0.000 O
ATOM     26  HD  SGN C   2     147.308  33.049  31.8140  0.00  0.00     0.000 HD
BRANCH 19 28
ATOM     26   N  SGN C   2     147.993  31.345  34.2990  0.00  0.00     0.000 N
ATOM     28  HD  SGN C   2     147.344  30.805  34.4930  0.00  0.00     0.000 HD
ATOM     28   O  SGN C   2     150.415  31.130  34.8540  0.00  0.00     0.000 OA
ATOM     29   S  SGN C   2     149.328  30.547  33.8900  0.00  0.00     0.000 S
ATOM     30   O  SGN C   2     149.124  29.186  34.2080  0.00  0.00     0.000 OA
ATOM     31   O  SGN C   2     149.659  30.916  32.5570  0.00  0.00     0.000 OA
ENDBRANCH 19 28
BRANCH 22 32
ATOM     32   C  SGN C   2     143.013  32.211  31.7330  0.00  0.00     0.000 C
ATOM     33   S  SGN C   2     140.498  32.448  32.2430  0.00  0.00     0.000 S
ATOM     34   O  SGN C   2     140.498  31.305  33.1210  0.00  0.00     0.000 OA
ATOM     35   O  SGN C   2     139.661  33.535  32.7060  0.00  0.00     0.000 OA
ATOM     36   O  SGN C   2     140.299  32.122  30.8510  0.00  0.00     0.000 OA
ATOM     37   O  SGN C   2     141.988  33.012  32.3330  0.00  0.00     0.000 O
ENDBRANCH 22 32
BRANCH 18 38
ATOM     38  O4  IDS C   3     145.302  32.517  35.1570  0.00  0.00     0.000 O
BRANCH 38 42
ATOM     39  C1  IDS C   3     144.666  34.187  38.1450  0.00  0.00     0.000 C
ATOM     40  C2  IDS C   3     143.542  33.922  37.1320  0.00  0.00     0.000 C
ATOM     41  C3  IDS C   3     143.928  34.412  35.7360  0.00  0.00     0.000 C
ATOM     42  C4  IDS C   3     145.322  33.935  35.3520  0.00  0.00     0.000 C
ATOM     43  C5  IDS C   3     146.319  34.297  36.4600  0.00  0.00     0.000 C
ATOM     44  O5  IDS C   3     145.906  33.681  37.6790  0.00  0.00     0.000 O
ATOM     45   O  IDS C   3     143.882  35.840  35.7070  0.00  0.00     0.000 O
ATOM     47  HD  IDS C   3     144.247  36.474  36.1690  0.00  0.00     0.000 HD
BRANCH 40 47
ATOM     47   O  IDS C   3     143.263  32.470  37.0320  0.00  0.00     0.000 O
ATOM     48   S  IDS C   3     141.768  31.932  37.2170  0.00  0.00     0.000 S
ATOM     49   O  IDS C   3     141.510  31.958  38.6410  0.00  0.00     0.000 OA
ATOM     50   O  IDS C   3     141.778  30.588  36.6810  0.00  0.00     0.000 OA
ATOM     51   O  IDS C   3     140.919  32.829  36.4800  0.00  0.00     0.000 OA
ENDBRANCH 40 47
BRANCH 43 52
ATOM     52   C  IDS C   3     147.735  33.877  36.1340  0.00  0.00     0.000 C
ATOM     53   O  IDS C   3     148.308  33.083  36.8440  0.00  0.00     0.000 OA
ATOM     54   O  IDS C   3     148.286  34.336  35.1660  0.00  0.00     0.000 OA
ENDBRANCH 43 52
BRANCH 39 55
ATOM     55  O4  SGN C   4     144.772  35.311  38.8540  0.00  0.00     0.000 O
BRANCH 55 59
ATOM     56  C1  SGN C   4     145.277  34.981  42.9940  0.00  0.00     0.000 C
ATOM     57  C2  SGN C   4     143.861  34.723  42.4520  0.00  0.00     0.000 C
ATOM     58  C3  SGN C   4     143.893  34.484  40.9450  0.00  0.00     0.000 C
ATOM     59  C4  SGN C   4     144.659  35.599  40.2410  0.00  0.00     0.000 C
ATOM     60  C5  SGN C   4     146.048  35.711  40.8650  0.00  0.00     0.000 C
ATOM     61  O5  SGN C   4     145.893  36.028  42.2620  0.00  0.00     0.000 O
ATOM     62   O  SGN C   4     142.565  34.397  40.4480  0.00  0.00     0.000 O
ATOM     64  HD  SGN C   4     142.508  34.125  41.2680  0.00  0.00     0.000 HD
BRANCH 57 66
ATOM     64   N  SGN C   4     143.638  34.469  43.8840  0.00  0.00     0.000 N
ATOM     66  HD  SGN C   4     143.053  34.706  44.4780  0.00  0.00     0.000 HD
ATOM     66   S  SGN C   4     142.236  33.907  44.4000  0.00  0.00     0.000 S
ATOM     67   O  SGN C   4     142.305  33.826  45.8140  0.00  0.00     0.000 OA
ATOM     68   O  SGN C   4     141.222  34.698  43.7940  0.00  0.00     0.000 OA
ATOM     69   O  SGN C   4     142.172  32.465  43.8010  0.00  0.00     0.000 OA
ENDBRANCH 57 66
BRANCH 60 70
ATOM     70   C  SGN C   4     146.914  36.784  40.2410  0.00  0.00     0.000 C
ATOM     71   O  SGN C   4     149.819  38.550  41.8370  0.00  0.00     0.000 OA
ATOM     72   O  SGN C   4     149.894  36.740  40.2350  0.00  0.00     0.000 OA
ATOM     73   O  SGN C   4     147.789  37.364  41.2270  0.00  0.00     0.000 O
ATOM     74   S  SGN C   4     149.193  37.916  40.6990  0.00  0.00     0.000 S
ATOM     75   O  SGN C   4     148.852  38.841  39.6370  0.00  0.00     0.000 OA
ENDBRANCH 60 70
BRANCH 56 76
ATOM     76  O4  IDS C   5     146.255  34.226  43.5270  0.00  0.00     0.000 O
BRANCH 76 80
ATOM     77  C1  IDS C   5     147.629  34.505  47.3600  0.00  0.00     0.000 C
ATOM     78  C2  IDS C   5     148.317  35.444  46.3700  0.00  0.00     0.000 C
ATOM     79  C3  IDS C   5     147.468  35.586  45.1220  0.00  0.00     0.000 C
ATOM     80  C4  IDS C   5     147.397  34.245  44.3970  0.00  0.00     0.000 C
ATOM     81  C5  IDS C   5     147.302  33.113  45.4310  0.00  0.00     0.000 C
ATOM     82  O5  IDS C   5     146.768  33.603  46.6640  0.00  0.00     0.000 O
BRANCH 78 83
ATOM     83   O  IDS C   5     148.503  36.788  46.9660  0.00  0.00     0.000 O
ATOM     84   S  IDS C   5     149.942  37.476  46.9360  0.00  0.00     0.000 S
ATOM     85   O  IDS C   5     150.866  36.481  47.4090  0.00  0.00     0.000 OA
ATOM     86   O  IDS C   5     150.158  37.840  45.5550  0.00  0.00     0.000 OA
ATOM     87   O  IDS C   5     149.844  38.623  47.8050  0.00  0.00     0.000 OA
ENDBRANCH 78 83
BRANCH 81 88
ATOM     88   C  IDS C   5     146.438  31.947  44.9890  0.00  0.00     0.000 C
ATOM     89   O  IDS C   5     146.941  31.004  44.4390  0.00  0.00     0.000 OA
ATOM     90   O  IDS C   5     145.246  31.973  45.1940  0.00  0.00     0.000 OA
ENDBRANCH 81 88
ENDBRANCH 76 80
ENDBRANCH 56 76
ENDBRANCH 55 59
ENDBRANCH 39 55
ENDBRANCH 38 42
ENDBRANCH 18 38
ENDBRANCH 17 21
ENDBRANCH 1 17
TORSDOF 18
ENDMDL
MODEL 69
REMARK VINA RESULT:      -4.3     12.320     20.325
ROOT
ATOM      1  C1  IDS C   1     134.172  45.004  42.7350  0.00  0.00     0.000 C
ATOM      2  C2  IDS C   1     133.287  45.633  41.6560  0.00  0.00     0.000 C
ATOM      3  C3  IDS C   1     131.814  45.431  41.9800  0.00  0.00     0.000 C
ATOM      4  C4  IDS C   1     131.487  43.949  42.0950  0.00  0.00     0.000 C
ATOM      5  C5  IDS C   1     132.626  43.215  42.7970  0.00  0.00     0.000 C
ATOM      6  O5  IDS C   1     133.406  44.136  43.5610  0.00  0.00     0.000 O
ATOM      7   O  IDS C   1     131.005  46.033  40.9590  0.00  0.00     0.000 O
ATOM      9  HD  IDS C   1     131.396  46.760  40.6960  0.00  0.00     0.000 HD
ENDROOT
BRANCH 2 9
ATOM      9   O  IDS C   1     133.527  47.091  41.5620  0.00  0.00     0.000 O
ATOM     10   S  IDS C   1     133.932  47.729  40.1580  0.00  0.00     0.000 S
ATOM     11   O  IDS C   1     134.079  49.148  40.3950  0.00  0.00     0.000 OA
ATOM     12   O  IDS C   1     135.175  47.088  39.7830  0.00  0.00     0.000 OA
ATOM     13   O  IDS C   1     132.844  47.421  39.2560  0.00  0.00     0.000 OA
ENDBRANCH 2 9
BRANCH 5 14
ATOM     14   C  IDS C   1     132.120  42.126  43.7270  0.00  0.00     0.000 C
ATOM     15   O  IDS C   1     132.409  42.163  44.8980  0.00  0.00     0.000 OA
ATOM     16   O  IDS C   1     131.429  41.224  43.2830  0.00  0.00     0.000 OA
ENDBRANCH 5 14
BRANCH 1 17
ATOM     17  O4  SGN C   2     135.258  45.606  43.2280  0.00  0.00     0.000 O
BRANCH 17 21
ATOM     18  C1  SGN C   2     137.470  47.622  46.1550  0.00  0.00     0.000 C
ATOM     19  C2  SGN C   2     136.171  46.950  46.6170  0.00  0.00     0.000 C
ATOM     20  C3  SGN C   2     135.715  45.926  45.5710  0.00  0.00     0.000 C
ATOM     21  C4  SGN C   2     135.618  46.584  44.1990  0.00  0.00     0.000 C
ATOM     22  C5  SGN C   2     136.966  47.210  43.8510  0.00  0.00     0.000 C
ATOM     23  O5  SGN C   2     137.333  48.176  44.8630  0.00  0.00     0.000 O
ATOM     24   O  SGN C   2     134.470  45.366  45.9530  0.00  0.00     0.000 O
ATOM     26  HD  SGN C   2     135.278  45.365  45.6430  0.00  0.00     0.000 HD
BRANCH 19 28
ATOM     26   N  SGN C   2     136.407  46.814  48.0610  0.00  0.00     0.000 N
ATOM     28  HD  SGN C   2     136.886  47.500  47.8380  0.00  0.00     0.000 HD
ATOM     28   O  SGN C   2     135.549  46.181  50.3170  0.00  0.00     0.000 OA
ATOM     29   S  SGN C   2     135.291  47.198  49.1540  0.00  0.00     0.000 S
ATOM     30   O  SGN C   2     135.582  48.499  49.6190  0.00  0.00     0.000 OA
ATOM     31   O  SGN C   2     134.017  46.923  48.5850  0.00  0.00     0.000 OA
ENDBRANCH 19 28
BRANCH 22 32
ATOM     32   C  SGN C   2     136.963  47.942  42.5320  0.00  0.00     0.000 C
ATOM     33   S  SGN C   2     137.831  50.158  41.5420  0.00  0.00     0.000 S
ATOM     34   O  SGN C   2     136.778  50.925  42.1590  0.00  0.00     0.000 OA
ATOM     35   O  SGN C   2     139.115  50.828  41.5420  0.00  0.00     0.000 OA
ATOM     36   O  SGN C   2     137.476  49.595  40.2610  0.00  0.00     0.000 OA
ATOM     37   O  SGN C   2     138.024  48.905  42.5120  0.00  0.00     0.000 O
ENDBRANCH 22 32
BRANCH 18 38
ATOM     38  O4  IDS C   3     138.728  47.178  46.1860  0.00  0.00     0.000 O
BRANCH 38 42
ATOM     39  C1  IDS C   3     141.942  45.955  45.6370  0.00  0.00     0.000 C
ATOM     40  C2  IDS C   3     140.713  45.040  45.5060  0.00  0.00     0.000 C
ATOM     41  C3  IDS C   3     139.835  45.112  46.7540  0.00  0.00     0.000 C
ATOM     42  C4  IDS C   3     139.572  46.556  47.1610  0.00  0.00     0.000 C
ATOM     43  C5  IDS C   3     140.900  47.316  47.2640  0.00  0.00     0.000 C
ATOM     44  O5  IDS C   3     141.563  47.271  46.0020  0.00  0.00     0.000 O
ATOM     45   O  IDS C   3     140.477  44.419  47.8250  0.00  0.00     0.000 O
ATOM     47  HD  IDS C   3     141.251  44.471  48.2110  0.00  0.00     0.000 HD
BRANCH 40 47
ATOM     47   O  IDS C   3     139.880  45.451  44.3510  0.00  0.00     0.000 O
ATOM     48   S  IDS C   3     140.464  45.335  42.8670  0.00  0.00     0.000 S
ATOM     49   O  IDS C   3     141.367  46.455  42.7070  0.00  0.00     0.000 OA
ATOM     50   O  IDS C   3     139.312  45.425  41.9960  0.00  0.00     0.000 OA
ATOM     51   O  IDS C   3     141.133  44.064  42.7910  0.00  0.00     0.000 OA
ENDBRANCH 40 47
BRANCH 43 52
ATOM     52   C  IDS C   3     140.720  48.755  47.6930  0.00  0.00     0.000 C
ATOM     53   O  IDS C   3     140.908  49.649  46.8990  0.00  0.00     0.000 OA
ATOM     54   O  IDS C   3     140.388  49.005  48.8240  0.00  0.00     0.000 OA
ENDBRANCH 43 52
BRANCH 39 55
ATOM     55  O4  SGN C   4     143.104  45.560  46.1590  0.00  0.00     0.000 O
BRANCH 55 59
ATOM     56  C1  SGN C   4     146.348  45.738  43.5230  0.00  0.00     0.000 C
ATOM     57  C2  SGN C   4     145.597  44.398  43.6000  0.00  0.00     0.000 C
ATOM     58  C3  SGN C   4     144.237  44.577  44.2690  0.00  0.00     0.000 C
ATOM     59  C4  SGN C   4     144.384  45.308  45.5980  0.00  0.00     0.000 C
ATOM     60  C5  SGN C   4     145.115  46.627  45.3540  0.00  0.00     0.000 C
ATOM     61  O5  SGN C   4     146.416  46.329  44.8100  0.00  0.00     0.000 O
ATOM     62   O  SGN C   4     143.630  43.306  44.4610  0.00  0.00     0.000 O
ATOM     64  HD  SGN C   4     144.138  43.201  43.7670  0.00  0.00     0.000 HD
BRANCH 57 66
ATOM     64   N  SGN C   4     145.906  44.093  42.1930  0.00  0.00     0.000 N
ATOM     66  HD  SGN C   4     146.600  43.826  41.7490  0.00  0.00     0.000 HD
ATOM     66   S  SGN C   4     146.535  42.683  41.7880  0.00  0.00     0.000 S
ATOM     67   O  SGN C   4     146.775  42.711  40.3910  0.00  0.00     0.000 OA
ATOM     68   O  SGN C   4     147.617  42.439  42.6780  0.00  0.00     0.000 OA
ATOM     69   O  SGN C   4     145.392  41.664  42.0980  0.00  0.00     0.000 OA
ENDBRANCH 57 66
BRANCH 60 70
ATOM     70   C  SGN C   4     145.315  47.455  46.6050  0.00  0.00     0.000 C
ATOM     71   O  SGN C   4     147.362  50.587  46.9340  0.00  0.00     0.000 OA
ATOM     72   O  SGN C   4     144.958  50.411  46.7330  0.00  0.00     0.000 OA
ATOM     73   O  SGN C   4     146.327  48.458  46.3900  0.00  0.00     0.000 O
ATOM     74   S  SGN C   4     146.178  49.812  47.2270  0.00  0.00     0.000 S
ATOM     75   O  SGN C   4     146.093  49.387  48.6090  0.00  0.00     0.000 OA
ENDBRANCH 60 70
BRANCH 56 76
ATOM     76  O4  IDS C   5     146.465  46.724  42.6150  0.00  0.00     0.000 O
BRANCH 76 80
ATOM     77  C1  IDS C   5     147.393  48.842  39.2520  0.00  0.00     0.000 C
ATOM     78  C2  IDS C   5     148.527  47.966  39.7830  0.00  0.00     0.000 C
ATOM     79  C3  IDS C   5     147.970  46.920  40.7280  0.00  0.00     0.000 C
ATOM     80  C4  IDS C   5     147.396  47.603  41.9650  0.00  0.00     0.000 C
ATOM     81  C5  IDS C   5     146.702  48.908  41.5500  0.00  0.00     0.000 C
ATOM     82  O5  IDS C   5     146.306  48.851  40.1770  0.00  0.00     0.000 O
BRANCH 78 83
ATOM     83   O  IDS C   5     149.218  47.273  38.6710  0.00  0.00     0.000 O
ATOM     84   S  IDS C   5     150.796  47.434  38.4940  0.00  0.00     0.000 S
ATOM     85   O  IDS C   5     151.060  48.846  38.5720  0.00  0.00     0.000 OA
ATOM     86   O  IDS C   5     151.377  46.686  39.5840  0.00  0.00     0.000 OA
ATOM     87   O  IDS C   5     151.104  46.867  37.2040  0.00  0.00     0.000 OA
ENDBRANCH 78 83
BRANCH 81 88
ATOM     88   C  IDS C   5     145.467  49.236  42.3690  0.00  0.00     0.000 C
ATOM     89   O  IDS C   5     144.375  49.002  41.9260  0.00  0.00     0.000 OA
ATOM     90   O  IDS C   5     145.590  49.731  43.4660  0.00  0.00     0.000 OA
ENDBRANCH 81 88
ENDBRANCH 76 80
ENDBRANCH 56 76
ENDBRANCH 55 59
ENDBRANCH 39 55
ENDBRANCH 38 42
ENDBRANCH 18 38
ENDBRANCH 17 21
ENDBRANCH 1 17
TORSDOF 18
ENDMDL
MODEL 70
REMARK VINA RESULT:      -4.1      5.656     14.152
ROOT
ATOM      1  C1  IDS C   1     155.429  37.605  41.9230  0.00  0.00     0.000 C
ATOM      2  C2  IDS C   1     155.337  37.946  40.4330  0.00  0.00     0.000 C
ATOM      3  C3  IDS C   1     154.038  38.675  40.1240  0.00  0.00     0.000 C
ATOM      4  C4  IDS C   1     152.838  37.825  40.5190  0.00  0.00     0.000 C
ATOM      5  C5  IDS C   1     153.121  37.098  41.8300  0.00  0.00     0.000 C
ATOM      6  O5  IDS C   1     154.161  37.764  42.5460  0.00  0.00     0.000 O
ATOM      7   O  IDS C   1     153.978  38.988  38.7250  0.00  0.00     0.000 O
ATOM      9  HD  IDS C   1     154.776  39.190  38.4570  0.00  0.00     0.000 HD
ENDROOT
BRANCH 2 9
ATOM      9   O  IDS C   1     156.453  38.831  40.0260  0.00  0.00     0.000 O
ATOM     10   S  IDS C   1     157.385  38.404  38.8040  0.00  0.00     0.000 S
ATOM     11   O  IDS C   1     158.352  39.468  38.6530  0.00  0.00     0.000 OA
ATOM     12   O  IDS C   1     157.987  37.145  39.1950  0.00  0.00     0.000 OA
ATOM     13   O  IDS C   1     156.507  38.278  37.6620  0.00  0.00     0.000 OA
ENDBRANCH 2 9
BRANCH 5 14
ATOM     14   C  IDS C   1     151.893  37.025  42.7210  0.00  0.00     0.000 C
ATOM     15   O  IDS C   1     151.139  36.088  42.6170  0.00  0.00     0.000 OA
ATOM     16   O  IDS C   1     151.678  37.912  43.5300  0.00  0.00     0.000 OA
ENDBRANCH 5 14
BRANCH 1 17
ATOM     17  O4  SGN C   2     156.547  37.758  42.6370  0.00  0.00     0.000 O
BRANCH 17 21
ATOM     18  C1  SGN C   2     158.978  39.521  45.5550  0.00  0.00     0.000 C
ATOM     19  C2  SGN C   2     157.476  39.821  45.6390  0.00  0.00     0.000 C
ATOM     20  C3  SGN C   2     156.694  38.799  44.8040  0.00  0.00     0.000 C
ATOM     21  C4  SGN C   2     157.239  38.758  43.3810  0.00  0.00     0.000 C
ATOM     22  C5  SGN C   2     158.733  38.448  43.4280  0.00  0.00     0.000 C
ATOM     23  O5  SGN C   2     159.416  39.452  44.2140  0.00  0.00     0.000 O
ATOM     24   O  SGN C   2     155.315  39.126  44.8100  0.00  0.00     0.000 O
ATOM     26  HD  SGN C   2     156.008  38.608  44.8460  0.00  0.00     0.000 HD
BRANCH 19 28
ATOM     26   N  SGN C   2     157.352  40.305  47.0210  0.00  0.00     0.000 N
ATOM     28  HD  SGN C   2     158.124  40.602  46.7670  0.00  0.00     0.000 HD
ATOM     28   O  SGN C   2     155.899  41.124  48.8750  0.00  0.00     0.000 OA
ATOM     29   S  SGN C   2     156.356  41.501  47.4260  0.00  0.00     0.000 S
ATOM     30   O  SGN C   2     157.120  42.687  47.4870  0.00  0.00     0.000 OA
ATOM     31   O  SGN C   2     155.229  41.435  46.5630  0.00  0.00     0.000 OA
ENDBRANCH 19 28
BRANCH 22 32
ATOM     32   C  SGN C   2     159.386  38.441  42.0680  0.00  0.00     0.000 C
ATOM     33   S  SGN C   2     161.751  38.574  41.0520  0.00  0.00     0.000 S
ATOM     34   O  SGN C   2     161.839  39.996  41.2700  0.00  0.00     0.000 OA
ATOM     35   O  SGN C   2     162.993  37.870  41.2940  0.00  0.00     0.000 OA
ATOM     36   O  SGN C   2     161.116  38.207  39.8080  0.00  0.00     0.000 OA
ATOM     37   O  SGN C   2     160.761  38.061  42.1950  0.00  0.00     0.000 O
ENDBRANCH 22 32
BRANCH 18 38
ATOM     38  O4  IDS C   3     159.709  38.597  46.1820  0.00  0.00     0.000 O
BRANCH 38 42
ATOM     39  C1  IDS C   3     161.460  35.786  47.2580  0.00  0.00     0.000 C
ATOM     40  C2  IDS C   3     159.943  35.730  47.0210  0.00  0.00     0.000 C
ATOM     41  C3  IDS C   3     159.225  36.850  47.7730  0.00  0.00     0.000 C
ATOM     42  C4  IDS C   3     159.904  38.193  47.5420  0.00  0.00     0.000 C
ATOM     43  C5  IDS C   3     161.403  38.075  47.8420  0.00  0.00     0.000 C
ATOM     44  O5  IDS C   3     161.973  37.081  46.9920  0.00  0.00     0.000 O
ATOM     45   O  IDS C   3     159.212  36.550  49.1700  0.00  0.00     0.000 O
ATOM     47  HD  IDS C   3     159.818  36.367  49.7620  0.00  0.00     0.000 HD
BRANCH 40 47
ATOM     47   O  IDS C   3     159.635  35.893  45.5800  0.00  0.00     0.000 O
ATOM     48   S  IDS C   3     160.218  34.848  44.5190  0.00  0.00     0.000 S
ATOM     49   O  IDS C   3     161.609  35.202  44.3360  0.00  0.00     0.000 OA
ATOM     50   O  IDS C   3     159.434  35.048  43.3190  0.00  0.00     0.000 OA
ATOM     51   O  IDS C   3     160.046  33.543  45.0970  0.00  0.00     0.000 OA
ENDBRANCH 40 47
BRANCH 43 52
ATOM     52   C  IDS C   3     162.142  39.382  47.6600  0.00  0.00     0.000 C
ATOM     53   O  IDS C   3     162.487  39.731  46.5550  0.00  0.00     0.000 OA
ATOM     54   O  IDS C   3     162.383  40.070  48.6190  0.00  0.00     0.000 OA
ENDBRANCH 43 52
BRANCH 39 55
ATOM     55  O4  SGN C   4     162.075  35.153  48.2570  0.00  0.00     0.000 O
BRANCH 55 59
ATOM     56  C1  SGN C   4     165.776  33.473  47.2640  0.00  0.00     0.000 C
ATOM     57  C2  SGN C   4     164.543  32.569  47.0970  0.00  0.00     0.000 C
ATOM     58  C3  SGN C   4     163.260  33.395  47.1040  0.00  0.00     0.000 C
ATOM     59  C4  SGN C   4     163.222  34.317  48.3180  0.00  0.00     0.000 C
ATOM     60  C5  SGN C   4     164.489  35.169  48.3280  0.00  0.00     0.000 C
ATOM     61  O5  SGN C   4     165.626  34.288  48.4160  0.00  0.00     0.000 O
ATOM     62   O  SGN C   4     162.135  32.527  47.0980  0.00  0.00     0.000 O
ATOM     64  HD  SGN C   4     162.757  32.078  46.6970  0.00  0.00     0.000 HD
BRANCH 57 66
ATOM     64   N  SGN C   4     164.655  31.105  47.1990  0.00  0.00     0.000 N
ATOM     66  HD  SGN C   4     164.383  30.423  46.7390  0.00  0.00     0.000 HD
ATOM     66   S  SGN C   4     165.219  30.247  45.9770  0.00  0.00     0.000 S
ATOM     67   O  SGN C   4     165.149  28.881  46.3490  0.00  0.00     0.000 OA
ATOM     68   O  SGN C   4     164.539  30.689  44.8090  0.00  0.00     0.000 OA
ATOM     69   O  SGN C   4     166.717  30.682  45.8780  0.00  0.00     0.000 OA
ENDBRANCH 57 66
BRANCH 60 70
ATOM     70   C  SGN C   4     164.564  36.138  49.4880  0.00  0.00     0.000 C
ATOM     71   O  SGN C   4     164.256  35.315  53.1390  0.00  0.00     0.000 OA
ATOM     72   O  SGN C   4     166.282  35.744  51.8910  0.00  0.00     0.000 OA
ATOM     73   O  SGN C   4     164.194  35.484  50.7170  0.00  0.00     0.000 O
ATOM     74   S  SGN C   4     164.876  36.038  52.0530  0.00  0.00     0.000 S
ATOM     75   O  SGN C   4     164.580  37.456  52.0600  0.00  0.00     0.000 OA
ENDBRANCH 60 70
BRANCH 56 76
ATOM     76  O4  IDS C   5     166.632  34.096  46.4340  0.00  0.00     0.000 O
BRANCH 76 80
ATOM     77  C1  IDS C   5     165.402  36.831  43.6660  0.00  0.00     0.000 C
ATOM     78  C2  IDS C   5     165.472  35.394  43.1500  0.00  0.00     0.000 C
ATOM     79  C3  IDS C   5     165.500  34.429  44.3190  0.00  0.00     0.000 C
ATOM     80  C4  IDS C   5     166.793  34.620  45.1070  0.00  0.00     0.000 C
ATOM     81  C5  IDS C   5     167.140  36.115  45.1600  0.00  0.00     0.000 C
ATOM     82  O5  IDS C   5     165.966  36.911  44.9750  0.00  0.00     0.000 O
BRANCH 78 83
ATOM     83   O  IDS C   5     164.290  35.081  42.3130  0.00  0.00     0.000 O
ATOM     84   S  IDS C   5     164.493  34.538  40.8270  0.00  0.00     0.000 S
ATOM     85   O  IDS C   5     165.443  35.423  40.2080  0.00  0.00     0.000 OA
ATOM     86   O  IDS C   5     164.989  33.191  40.9800  0.00  0.00     0.000 OA
ATOM     87   O  IDS C   5     163.189  34.584  40.2120  0.00  0.00     0.000 OA
ENDBRANCH 78 83
BRANCH 81 88
ATOM     88   C  IDS C   5     167.788  36.551  46.4610  0.00  0.00     0.000 C
ATOM     89   O  IDS C   5     167.148  37.165  47.2720  0.00  0.00     0.000 OA
ATOM     90   O  IDS C   5     168.947  36.276  46.6750  0.00  0.00     0.000 OA
ENDBRANCH 81 88
ENDBRANCH 76 80
ENDBRANCH 56 76
ENDBRANCH 55 59
ENDBRANCH 39 55
ENDBRANCH 38 42
ENDBRANCH 18 38
ENDBRANCH 17 21
ENDBRANCH 1 17
TORSDOF 18
ENDMDL
MODEL 71
REMARK VINA RESULT:      -4.1     12.141     19.960
ROOT
ATOM      1  C1  IDS C   1     133.950  45.577  43.1410  0.00  0.00     0.000 C
ATOM      2  C2  IDS C   1     132.738  46.446  42.7970  0.00  0.00     0.000 C
ATOM      3  C3  IDS C   1     131.508  45.988  43.5680  0.00  0.00     0.000 C
ATOM      4  C4  IDS C   1     131.189  44.533  43.2550  0.00  0.00     0.000 C
ATOM      5  C5  IDS C   1     132.478  43.726  43.1440  0.00  0.00     0.000 C
ATOM      6  O5  IDS C   1     133.538  44.399  43.8230  0.00  0.00     0.000 O
ATOM      7   O  IDS C   1     130.388  46.819  43.2320  0.00  0.00     0.000 O
ATOM      9  HD  IDS C   1     130.673  47.629  43.1200  0.00  0.00     0.000 HD
ENDROOT
BRANCH 2 9
ATOM      9   O  IDS C   1     132.986  47.862  43.1510  0.00  0.00     0.000 O
ATOM     10   S  IDS C   1     132.706  49.001  42.0710  0.00  0.00     0.000 S
ATOM     11   O  IDS C   1     133.028  50.252  42.7220  0.00  0.00     0.000 OA
ATOM     12   O  IDS C   1     133.581  48.703  40.9560  0.00  0.00     0.000 OA
ATOM     13   O  IDS C   1     131.304  48.889  41.7330  0.00  0.00     0.000 OA
ENDBRANCH 2 9
BRANCH 5 14
ATOM     14   C  IDS C   1     132.336  42.334  43.7340  0.00  0.00     0.000 C
ATOM     15   O  IDS C   1     132.467  42.177  44.9230  0.00  0.00     0.000 OA
ATOM     16   O  IDS C   1     132.093  41.388  43.0030  0.00  0.00     0.000 OA
ENDBRANCH 5 14
BRANCH 1 17
ATOM     17  O4  SGN C   2     135.169  46.081  43.3570  0.00  0.00     0.000 O
BRANCH 17 21
ATOM     18  C1  SGN C   2     138.211  47.894  45.5900  0.00  0.00     0.000 C
ATOM     19  C2  SGN C   2     137.077  47.233  46.3840  0.00  0.00     0.000 C
ATOM     20  C3  SGN C   2     136.298  46.274  45.4750  0.00  0.00     0.000 C
ATOM     21  C4  SGN C   2     135.833  47.001  44.2190  0.00  0.00     0.000 C
ATOM     22  C5  SGN C   2     137.044  47.609  43.5180  0.00  0.00     0.000 C
ATOM     23  O5  SGN C   2     137.726  48.514  44.4170  0.00  0.00     0.000 O
ATOM     24   O  SGN C   2     135.197  45.727  46.1820  0.00  0.00     0.000 O
ATOM     26  HD  SGN C   2     135.880  45.721  45.6500  0.00  0.00     0.000 HD
BRANCH 19 28
ATOM     26   N  SGN C   2     137.644  46.636  47.6010  0.00  0.00     0.000 N
ATOM     28  HD  SGN C   2     138.338  46.800  47.1100  0.00  0.00     0.000 HD
ATOM     28   O  SGN C   2     137.527  46.299  50.0700  0.00  0.00     0.000 OA
ATOM     29   S  SGN C   2     137.703  47.428  48.9990  0.00  0.00     0.000 S
ATOM     30   O  SGN C   2     139.000  47.972  49.1250  0.00  0.00     0.000 OA
ATOM     31   O  SGN C   2     136.572  48.288  49.0560  0.00  0.00     0.000 OA
ENDBRANCH 19 28
BRANCH 22 32
ATOM     32   C  SGN C   2     136.686  48.405  42.2870  0.00  0.00     0.000 C
ATOM     33   S  SGN C   2     137.873  49.554  40.3090  0.00  0.00     0.000 S
ATOM     34   O  SGN C   2     138.283  50.676  41.1180  0.00  0.00     0.000 OA
ATOM     35   O  SGN C   2     138.874  49.133  39.3510  0.00  0.00     0.000 OA
ATOM     36   O  SGN C   2     136.553  49.689  39.7410  0.00  0.00     0.000 OA
ATOM     37   O  SGN C   2     137.763  48.344  41.3440  0.00  0.00     0.000 O
ENDBRANCH 22 32
BRANCH 18 38
ATOM     38  O4  IDS C   3     139.406  47.417  45.2350  0.00  0.00     0.000 O
BRANCH 38 42
ATOM     39  C1  IDS C   3     142.329  46.231  43.7590  0.00  0.00     0.000 C
ATOM     40  C2  IDS C   3     141.189  45.273  44.1410  0.00  0.00     0.000 C
ATOM     41  C3  IDS C   3     140.771  45.463  45.5990  0.00  0.00     0.000 C
ATOM     42  C4  IDS C   3     140.564  46.936  45.9240  0.00  0.00     0.000 C
ATOM     43  C5  IDS C   3     141.799  47.741  45.4980  0.00  0.00     0.000 C
ATOM     44  O5  IDS C   3     142.007  47.569  44.0980  0.00  0.00     0.000 O
ATOM     45   O  IDS C   3     141.777  44.917  46.4540  0.00  0.00     0.000 O
ATOM     47  HD  IDS C   3     142.629  45.035  46.5500  0.00  0.00     0.000 HD
BRANCH 40 47
ATOM     47   O  IDS C   3     139.995  45.524  43.3000  0.00  0.00     0.000 O
ATOM     48   S  IDS C   3     140.082  45.328  41.7150  0.00  0.00     0.000 S
ATOM     49   O  IDS C   3     140.774  46.494  41.2080  0.00  0.00     0.000 OA
ATOM     50   O  IDS C   3     138.710  45.260  41.2630  0.00  0.00     0.000 OA
ATOM     51   O  IDS C   3     140.812  44.107  41.4960  0.00  0.00     0.000 OA
ENDBRANCH 40 47
BRANCH 43 52
ATOM     52   C  IDS C   3     141.676  49.214  45.8170  0.00  0.00     0.000 C
ATOM     53   O  IDS C   3     141.627  49.579  46.9690  0.00  0.00     0.000 OA
ATOM     54   O  IDS C   3     141.630  50.017  44.9210  0.00  0.00     0.000 OA
ENDBRANCH 43 52
BRANCH 39 55
ATOM     55  O4  SGN C   4     143.621  45.932  43.8960  0.00  0.00     0.000 O
BRANCH 55 59
ATOM     56  C1  SGN C   4     144.960  43.094  41.1290  0.00  0.00     0.000 C
ATOM     57  C2  SGN C   4     144.872  42.637  42.5950  0.00  0.00     0.000 C
ATOM     58  C3  SGN C   4     144.017  43.601  43.4130  0.00  0.00     0.000 C
ATOM     59  C4  SGN C   4     144.488  45.037  43.2140  0.00  0.00     0.000 C
ATOM     60  C5  SGN C   4     144.490  45.351  41.7190  0.00  0.00     0.000 C
ATOM     61  O5  SGN C   4     145.398  44.441  41.0670  0.00  0.00     0.000 O
ATOM     62   O  SGN C   4     144.074  43.241  44.7860  0.00  0.00     0.000 O
ATOM     64  HD  SGN C   4     144.201  42.497  44.3610  0.00  0.00     0.000 HD
BRANCH 57 66
ATOM     64   N  SGN C   4     145.851  41.541  42.5170  0.00  0.00     0.000 N
ATOM     66  HD  SGN C   4     146.120  40.904  43.0380  0.00  0.00     0.000 HD
ATOM     66   S  SGN C   4     145.410  40.035  42.8080  0.00  0.00     0.000 S
ATOM     67   O  SGN C   4     146.571  39.227  42.7170  0.00  0.00     0.000 OA
ATOM     68   O  SGN C   4     144.659  40.048  44.0160  0.00  0.00     0.000 OA
ATOM     69   O  SGN C   4     144.447  39.696  41.6250  0.00  0.00     0.000 OA
ENDBRANCH 57 66
BRANCH 60 70
ATOM     70   C  SGN C   4     144.933  46.760  41.3910  0.00  0.00     0.000 C
ATOM     71   O  SGN C   4     145.286  48.277  37.9730  0.00  0.00     0.000 OA
ATOM     72   O  SGN C   4     143.474  48.588  39.5440  0.00  0.00     0.000 OA
ATOM     73   O  SGN C   4     145.145  46.906  39.9740  0.00  0.00     0.000 O
ATOM     74   S  SGN C   4     144.890  48.361  39.3600  0.00  0.00     0.000 S
ATOM     75   O  SGN C   4     145.724  49.247  40.1470  0.00  0.00     0.000 OA
ENDBRANCH 60 70
BRANCH 56 76
ATOM     76  O4  IDS C   5     144.278  42.836  39.9980  0.00  0.00     0.000 O
BRANCH 76 80
ATOM     77  C1  IDS C   5     141.380  41.796  37.3180  0.00  0.00     0.000 C
ATOM     78  C2  IDS C   5     141.482  40.873  38.5330  0.00  0.00     0.000 C
ATOM     79  C3  IDS C   5     142.245  41.567  39.6430  0.00  0.00     0.000 C
ATOM     80  C4  IDS C   5     143.690  41.792  39.2060  0.00  0.00     0.000 C
ATOM     81  C5  IDS C   5     143.718  42.168  37.7180  0.00  0.00     0.000 C
ATOM     82  O5  IDS C   5     142.464  42.726  37.3160  0.00  0.00     0.000 O
BRANCH 78 83
ATOM     83   O  IDS C   5     140.134  40.523  39.0390  0.00  0.00     0.000 O
ATOM     84   S  IDS C   5     139.706  38.991  39.1610  0.00  0.00     0.000 S
ATOM     85   O  IDS C   5     140.046  38.384  37.9030  0.00  0.00     0.000 OA
ATOM     86   O  IDS C   5     140.474  38.472  40.2690  0.00  0.00     0.000 OA
ATOM     87   O  IDS C   5     138.288  39.002  39.4240  0.00  0.00     0.000 OA
ENDBRANCH 78 83
BRANCH 81 88
ATOM     88   C  IDS C   5     144.801  43.169  37.3560  0.00  0.00     0.000 C
ATOM     89   O  IDS C   5     144.511  44.318  37.1580  0.00  0.00     0.000 OA
ATOM     90   O  IDS C   5     145.950  42.802  37.2700  0.00  0.00     0.000 OA
ENDBRANCH 81 88
ENDBRANCH 76 80
ENDBRANCH 56 76
ENDBRANCH 55 59
ENDBRANCH 39 55
ENDBRANCH 38 42
ENDBRANCH 18 38
ENDBRANCH 17 21
ENDBRANCH 1 17
TORSDOF 18
ENDMDL
MODEL 72
REMARK VINA RESULT:      -4.0     12.626     20.314
ROOT
ATOM      1  C1  IDS C   1     133.906  45.477  43.2700  0.00  0.00     0.000 C
ATOM      2  C2  IDS C   1     132.797  46.306  42.6150  0.00  0.00     0.000 C
ATOM      3  C3  IDS C   1     131.429  45.874  43.1230  0.00  0.00     0.000 C
ATOM      4  C4  IDS C   1     131.190  44.398  42.8340  0.00  0.00     0.000 C
ATOM      5  C5  IDS C   1     132.475  43.607  43.0580  0.00  0.00     0.000 C
ATOM      6  O5  IDS C   1     133.357  44.334  43.9130  0.00  0.00     0.000 O
ATOM      7   O  IDS C   1     130.408  46.666  42.5000  0.00  0.00     0.000 O
ATOM      9  HD  IDS C   1     130.709  47.472  42.4060  0.00  0.00     0.000 HD
ENDROOT
BRANCH 2 9
ATOM      9   O  IDS C   1     132.956  47.743  42.9310  0.00  0.00     0.000 O
ATOM     10   S  IDS C   1     133.079  48.798  41.7410  0.00  0.00     0.000 S
ATOM     11   O  IDS C   1     133.207  50.093  42.3720  0.00  0.00     0.000 OA
ATOM     12   O  IDS C   1     134.261  48.412  40.9990  0.00  0.00     0.000 OA
ATOM     13   O  IDS C   1     131.862  48.667  40.9710  0.00  0.00     0.000 OA
ENDBRANCH 2 9
BRANCH 5 14
ATOM     14   C  IDS C   1     132.210  42.248  43.6850  0.00  0.00     0.000 C
ATOM     15   O  IDS C   1     132.437  42.081  44.8580  0.00  0.00     0.000 OA
ATOM     16   O  IDS C   1     131.773  41.340  42.9980  0.00  0.00     0.000 OA
ENDBRANCH 5 14
BRANCH 1 17
ATOM     17  O4  SGN C   2     135.045  46.012  43.7180  0.00  0.00     0.000 O
BRANCH 17 21
ATOM     18  C1  SGN C   2     137.483  47.828  46.5960  0.00  0.00     0.000 C
ATOM     19  C2  SGN C   2     136.153  47.245  47.0910  0.00  0.00     0.000 C
ATOM     20  C3  SGN C   2     135.594  46.269  46.0490  0.00  0.00     0.000 C
ATOM     21  C4  SGN C   2     135.504  46.950  44.6880  0.00  0.00     0.000 C
ATOM     22  C5  SGN C   2     136.882  47.482  44.3050  0.00  0.00     0.000 C
ATOM     23  O5  SGN C   2     137.347  48.406  45.3150  0.00  0.00     0.000 O
ATOM     24   O  SGN C   2     134.324  45.795  46.4640  0.00  0.00     0.000 O
ATOM     26  HD  SGN C   2     135.121  45.740  46.1280  0.00  0.00     0.000 HD
BRANCH 19 28
ATOM     26   N  SGN C   2     136.373  46.713  48.4430  0.00  0.00     0.000 N
ATOM     28  HD  SGN C   2     137.173  46.874  48.1530  0.00  0.00     0.000 HD
ATOM     28   O  SGN C   2     135.590  46.476  50.8000  0.00  0.00     0.000 OA
ATOM     29   S  SGN C   2     136.037  47.564  49.7660  0.00  0.00     0.000 S
ATOM     30   O  SGN C   2     137.244  48.145  50.2160  0.00  0.00     0.000 OA
ATOM     31   O  SGN C   2     134.923  48.396  49.4720  0.00  0.00     0.000 OA
ENDBRANCH 19 28
BRANCH 22 32
ATOM     32   C  SGN C   2     136.891  48.229  42.9940  0.00  0.00     0.000 C
ATOM     33   S  SGN C   2     137.565  50.546  42.0870  0.00  0.00     0.000 S
ATOM     34   O  SGN C   2     136.387  51.176  42.6270  0.00  0.00     0.000 OA
ATOM     35   O  SGN C   2     138.758  51.361  42.1890  0.00  0.00     0.000 OA
ATOM     36   O  SGN C   2     137.376  49.965  40.7790  0.00  0.00     0.000 OA
ATOM     37   O  SGN C   2     137.831  49.309  43.0610  0.00  0.00     0.000 O
ENDBRANCH 22 32
BRANCH 18 38
ATOM     38  O4  IDS C   3     138.706  47.295  46.5840  0.00  0.00     0.000 O
BRANCH 38 42
ATOM     39  C1  IDS C   3     141.872  45.984  45.9610  0.00  0.00     0.000 C
ATOM     40  C2  IDS C   3     140.610  45.122  45.7920  0.00  0.00     0.000 C
ATOM     41  C3  IDS C   3     139.739  45.165  47.0460  0.00  0.00     0.000 C
ATOM     42  C4  IDS C   3     139.530  46.596  47.5230  0.00  0.00     0.000 C
ATOM     43  C5  IDS C   3     140.885  47.302  47.6570  0.00  0.00     0.000 C
ATOM     44  O5  IDS C   3     141.542  47.294  46.3900  0.00  0.00     0.000 O
ATOM     45   O  IDS C   3     140.359  44.398  48.0800  0.00  0.00     0.000 O
ATOM     47  HD  IDS C   3     141.135  44.403  48.4640  0.00  0.00     0.000 HD
BRANCH 40 47
ATOM     47   O  IDS C   3     139.789  45.618  44.6620  0.00  0.00     0.000 O
ATOM     48   S  IDS C   3     140.328  45.475  43.1630  0.00  0.00     0.000 S
ATOM     49   O  IDS C   3     141.319  46.516  42.9960  0.00  0.00     0.000 OA
ATOM     50   O  IDS C   3     139.169  45.674  42.3210  0.00  0.00     0.000 OA
ATOM     51   O  IDS C   3     140.885  44.153  43.0560  0.00  0.00     0.000 OA
ENDBRANCH 40 47
BRANCH 43 52
ATOM     52   C  IDS C   3     140.759  48.724  48.1550  0.00  0.00     0.000 C
ATOM     53   O  IDS C   3     140.379  48.936  49.2830  0.00  0.00     0.000 OA
ATOM     54   O  IDS C   3     141.038  49.640  47.4240  0.00  0.00     0.000 OA
ENDBRANCH 43 52
BRANCH 39 55
ATOM     55  O4  SGN C   4     143.020  45.523  46.4580  0.00  0.00     0.000 O
BRANCH 55 59
ATOM     56  C1  SGN C   4     146.348  45.971  43.9610  0.00  0.00     0.000 C
ATOM     57  C2  SGN C   4     145.535  44.676  43.7970  0.00  0.00     0.000 C
ATOM     58  C3  SGN C   4     144.164  44.809  44.4560  0.00  0.00     0.000 C
ATOM     59  C4  SGN C   4     144.304  45.303  45.8920  0.00  0.00     0.000 C
ATOM     60  C5  SGN C   4     145.101  46.607  45.8870  0.00  0.00     0.000 C
ATOM     61  O5  SGN C   4     146.403  46.339  45.3300  0.00  0.00     0.000 O
ATOM     62   O  SGN C   4     143.495  43.556  44.4210  0.00  0.00     0.000 O
ATOM     64  HD  SGN C   4     144.019  43.542  43.7310  0.00  0.00     0.000 HD
BRANCH 57 66
ATOM     64   N  SGN C   4     146.677  44.083  43.0820  0.00  0.00     0.000 N
ATOM     66  HD  SGN C   4     146.897  43.295  42.8000  0.00  0.00     0.000 HD
ATOM     66   S  SGN C   4     146.449  43.240  41.7470  0.00  0.00     0.000 S
ATOM     67   O  SGN C   4     147.714  42.753  41.3310  0.00  0.00     0.000 OA
ATOM     68   O  SGN C   4     145.398  42.318  42.0110  0.00  0.00     0.000 OA
ATOM     69   O  SGN C   4     145.938  44.301  40.7210  0.00  0.00     0.000 OA
ENDBRANCH 57 66
BRANCH 60 70
ATOM     70   C  SGN C   4     145.300  47.206  47.2620  0.00  0.00     0.000 C
ATOM     71   O  SGN C   4     147.312  50.258  48.1230  0.00  0.00     0.000 OA
ATOM     72   O  SGN C   4     144.910  50.089  47.9050  0.00  0.00     0.000 OA
ATOM     73   O  SGN C   4     146.299  48.244  47.2210  0.00  0.00     0.000 O
ATOM     74   S  SGN C   4     146.139  49.429  48.2810  0.00  0.00     0.000 S
ATOM     75   O  SGN C   4     146.069  48.768  49.5690  0.00  0.00     0.000 OA
ENDBRANCH 60 70
BRANCH 56 76
ATOM     76  O4  IDS C   5     146.537  47.087  43.2330  0.00  0.00     0.000 O
BRANCH 76 80
ATOM     77  C1  IDS C   5     145.776  50.125  40.6160  0.00  0.00     0.000 C
ATOM     78  C2  IDS C   5     145.426  48.733  40.0910  0.00  0.00     0.000 C
ATOM     79  C3  IDS C   5     145.323  47.758  41.2470  0.00  0.00     0.000 C
ATOM     80  C4  IDS C   5     146.693  47.593  41.8990  0.00  0.00     0.000 C
ATOM     81  C5  IDS C   5     147.413  48.949  41.9200  0.00  0.00     0.000 C
ATOM     82  O5  IDS C   5     146.468  50.021  41.8600  0.00  0.00     0.000 O
BRANCH 78 83
ATOM     83   O  IDS C   5     144.127  48.754  39.3790  0.00  0.00     0.000 O
ATOM     84   S  IDS C   5     144.032  48.201  37.8860  0.00  0.00     0.000 S
ATOM     85   O  IDS C   5     145.115  48.817  37.1670  0.00  0.00     0.000 OA
ATOM     86   O  IDS C   5     144.170  46.768  38.0030  0.00  0.00     0.000 OA
ATOM     87   O  IDS C   5     142.731  48.597  37.4040  0.00  0.00     0.000 OA
ENDBRANCH 78 83
BRANCH 81 88
ATOM     88   C  IDS C   5     148.277  49.168  43.1490  0.00  0.00     0.000 C
ATOM     89   O  IDS C   5     147.874  49.857  44.0480  0.00  0.00     0.000 OA
ATOM     90   O  IDS C   5     149.366  48.646  43.2160  0.00  0.00     0.000 OA
ENDBRANCH 81 88
ENDBRANCH 76 80
ENDBRANCH 56 76
ENDBRANCH 55 59
ENDBRANCH 39 55
ENDBRANCH 38 42
ENDBRANCH 18 38
ENDBRANCH 17 21
ENDBRANCH 1 17
TORSDOF 18
ENDMDL
MODEL 73
REMARK VINA RESULT:      -3.9      8.829     15.573
ROOT
ATOM      1  C1  IDS C   1     151.896  37.192  32.7980  0.00  0.00     0.000 C
ATOM      2  C2  IDS C   1     152.339  38.607  32.4150  0.00  0.00     0.000 C
ATOM      3  C3  IDS C   1     152.938  38.626  31.0170  0.00  0.00     0.000 C
ATOM      4  C4  IDS C   1     154.131  37.685  30.9310  0.00  0.00     0.000 C
ATOM      5  C5  IDS C   1     153.853  36.413  31.7260  0.00  0.00     0.000 C
ATOM      6  O5  IDS C   1     152.447  36.240  31.8990  0.00  0.00     0.000 O
ATOM      7   O  IDS C   1     153.341  39.961  30.6790  0.00  0.00     0.000 O
ATOM      9  HD  IDS C   1     152.766  40.512  31.0180  0.00  0.00     0.000 HD
ENDROOT
BRANCH 2 9
ATOM      9   O  IDS C   1     151.189  39.540  32.4210  0.00  0.00     0.000 O
ATOM     10   S  IDS C   1     151.262  40.867  33.3020  0.00  0.00     0.000 S
ATOM     11   O  IDS C   1     150.010  41.557  33.0830  0.00  0.00     0.000 OA
ATOM     12   O  IDS C   1     151.427  40.419  34.6700  0.00  0.00     0.000 OA
ATOM     13   O  IDS C   1     152.403  41.606  32.8090  0.00  0.00     0.000 OA
ENDBRANCH 2 9
BRANCH 5 14
ATOM     14   C  IDS C   1     154.410  35.176  31.0410  0.00  0.00     0.000 C
ATOM     15   O  IDS C   1     153.654  34.402  30.5060  0.00  0.00     0.000 OA
ATOM     16   O  IDS C   1     155.613  34.974  31.0410  0.00  0.00     0.000 OA
ENDBRANCH 5 14
BRANCH 1 17
ATOM     17  O4  SGN C   2     150.740  36.935  33.4170  0.00  0.00     0.000 O
BRANCH 17 21
ATOM     18  C1  SGN C   2     147.066  34.959  33.7720  0.00  0.00     0.000 C
ATOM     19  C2  SGN C   2     147.980  34.509  32.6260  0.00  0.00     0.000 C
ATOM     20  C3  SGN C   2     149.411  35.000  32.8780  0.00  0.00     0.000 C
ATOM     21  C4  SGN C   2     149.414  36.506  33.1190  0.00  0.00     0.000 C
ATOM     22  C5  SGN C   2     148.477  36.826  34.2800  0.00  0.00     0.000 C
ATOM     23  O5  SGN C   2     147.144  36.355  33.9770  0.00  0.00     0.000 O
ATOM     24   O  SGN C   2     150.238  34.661  31.7780  0.00  0.00     0.000 O
ATOM     26  HD  SGN C   2     150.028  34.759  32.6130  0.00  0.00     0.000 HD
BRANCH 19 28
ATOM     26   N  SGN C   2     147.431  33.181  32.3190  0.00  0.00     0.000 N
ATOM     28  HD  SGN C   2     146.743  33.630  32.5930  0.00  0.00     0.000 HD
ATOM     28   O  SGN C   2     147.487  31.117  30.9190  0.00  0.00     0.000 OA
ATOM     29   S  SGN C   2     147.238  32.659  30.8100  0.00  0.00     0.000 S
ATOM     30   O  SGN C   2     145.888  32.875  30.4550  0.00  0.00     0.000 OA
ATOM     31   O  SGN C   2     148.272  33.231  30.0200  0.00  0.00     0.000 OA
ENDBRANCH 19 28
BRANCH 22 32
ATOM     32   C  SGN C   2     148.362  38.304  34.5660  0.00  0.00     0.000 C
ATOM     33   S  SGN C   2     148.197  39.877  36.6000  0.00  0.00     0.000 S
ATOM     34   O  SGN C   2     146.809  39.558  36.8210  0.00  0.00     0.000 OA
ATOM     35   O  SGN C   2     148.960  40.030  37.8210  0.00  0.00     0.000 OA
ATOM     36   O  SGN C   2     148.412  40.944  35.6510  0.00  0.00     0.000 OA
ATOM     37   O  SGN C   2     148.795  38.571  35.9050  0.00  0.00     0.000 O
ENDBRANCH 22 32
BRANCH 18 38
ATOM     38  O4  IDS C   3     146.915  34.460  35.0010  0.00  0.00     0.000 O
BRANCH 38 42
ATOM     39  C1  IDS C   3     145.341  35.431  37.9520  0.00  0.00     0.000 C
ATOM     40  C2  IDS C   3     146.587  34.532  37.9780  0.00  0.00     0.000 C
ATOM     41  C3  IDS C   3     146.413  33.318  37.0650  0.00  0.00     0.000 C
ATOM     42  C4  IDS C   3     145.896  33.731  35.6930  0.00  0.00     0.000 C
ATOM     43  C5  IDS C   3     144.644  34.603  35.8510  0.00  0.00     0.000 C
ATOM     44  O5  IDS C   3     144.973  35.757  36.6220  0.00  0.00     0.000 O
ATOM     45   O  IDS C   3     145.500  32.400  37.6680  0.00  0.00     0.000 O
ATOM     47  HD  IDS C   3     144.689  32.451  37.9680  0.00  0.00     0.000 HD
BRANCH 40 47
ATOM     47   O  IDS C   3     147.777  35.278  37.5040  0.00  0.00     0.000 O
ATOM     48   S  IDS C   3     148.790  35.917  38.5640  0.00  0.00     0.000 S
ATOM     49   O  IDS C   3     148.145  37.115  39.0570  0.00  0.00     0.000 OA
ATOM     50   O  IDS C   3     149.993  36.206  37.8140  0.00  0.00     0.000 OA
ATOM     51   O  IDS C   3     148.985  34.927  39.5890  0.00  0.00     0.000 OA
ENDBRANCH 40 47
BRANCH 43 52
ATOM     52   C  IDS C   3     144.056  35.028  34.5240  0.00  0.00     0.000 C
ATOM     53   O  IDS C   3     143.794  34.197  33.6860  0.00  0.00     0.000 OA
ATOM     54   O  IDS C   3     143.851  36.196  34.3090  0.00  0.00     0.000 OA
ENDBRANCH 43 52
BRANCH 39 55
ATOM     55  O4  SGN C   4     144.307  35.284  38.7800  0.00  0.00     0.000 O
BRANCH 55 59
ATOM     56  C1  SGN C   4     145.329  35.620  42.8230  0.00  0.00     0.000 C
ATOM     57  C2  SGN C   4     144.627  34.319  42.3970  0.00  0.00     0.000 C
ATOM     58  C3  SGN C   4     144.669  34.153  40.8810  0.00  0.00     0.000 C
ATOM     59  C4  SGN C   4     144.164  35.413  40.1880  0.00  0.00     0.000 C
ATOM     60  C5  SGN C   4     144.976  36.606  40.6860  0.00  0.00     0.000 C
ATOM     61  O5  SGN C   4     144.786  36.719  42.1110  0.00  0.00     0.000 O
ATOM     62   O  SGN C   4     143.889  33.026  40.5040  0.00  0.00     0.000 O
ATOM     64  HD  SGN C   4     144.161  32.843  41.3050  0.00  0.00     0.000 HD
BRANCH 57 66
ATOM     64   N  SGN C   4     145.334  33.472  43.3720  0.00  0.00     0.000 N
ATOM     66  HD  SGN C   4     145.334  33.376  44.2320  0.00  0.00     0.000 HD
ATOM     66   S  SGN C   4     144.518  32.595  44.4270  0.00  0.00     0.000 S
ATOM     67   O  SGN C   4     145.464  31.945  45.2590  0.00  0.00     0.000 OA
ATOM     68   O  SGN C   4     143.542  33.449  45.0110  0.00  0.00     0.000 OA
ATOM     69   O  SGN C   4     143.789  31.534  43.5420  0.00  0.00     0.000 OA
ENDBRANCH 57 66
BRANCH 60 70
ATOM     70   C  SGN C   4     144.573  37.924  40.0600  0.00  0.00     0.000 C
ATOM     71   O  SGN C   4     144.377  41.265  41.7650  0.00  0.00     0.000 OA
ATOM     72   O  SGN C   4     146.135  40.449  40.3190  0.00  0.00     0.000 OA
ATOM     73   O  SGN C   4     144.417  38.937  41.0730  0.00  0.00     0.000 O
ATOM     74   S  SGN C   4     144.723  40.442  40.6290  0.00  0.00     0.000 S
ATOM     75   O  SGN C   4     143.878  40.667  39.4730  0.00  0.00     0.000 OA
ENDBRANCH 60 70
BRANCH 56 76
ATOM     76  O4  IDS C   5     146.572  35.960  43.2100  0.00  0.00     0.000 O
BRANCH 76 80
ATOM     77  C1  IDS C   5     150.334  37.207  44.1870  0.00  0.00     0.000 C
ATOM     78  C2  IDS C   5     149.658  38.029  43.0900  0.00  0.00     0.000 C
ATOM     79  C3  IDS C   5     148.162  37.784  43.1120  0.00  0.00     0.000 C
ATOM     80  C4  IDS C   5     147.876  36.332  42.7390  0.00  0.00     0.000 C
ATOM     81  C5  IDS C   5     148.950  35.427  43.3600  0.00  0.00     0.000 C
ATOM     82  O5  IDS C   5     149.543  36.060  44.4980  0.00  0.00     0.000 O
BRANCH 78 83
ATOM     83   O  IDS C   5     149.899  39.476  43.2960  0.00  0.00     0.000 O
ATOM     84   S  IDS C   5     150.509  40.355  42.1130  0.00  0.00     0.000 S
ATOM     85   O  IDS C   5     151.649  39.625  41.6250  0.00  0.00     0.000 OA
ATOM     86   O  IDS C   5     149.449  40.468  41.1390  0.00  0.00     0.000 OA
ATOM     87   O  IDS C   5     150.857  41.623  42.7070  0.00  0.00     0.000 OA
ENDBRANCH 78 83
BRANCH 81 88
ATOM     88   C  IDS C   5     148.430  34.074  43.8090  0.00  0.00     0.000 C
ATOM     89   O  IDS C   5     148.149  33.893  44.9630  0.00  0.00     0.000 OA
ATOM     90   O  IDS C   5     148.300  33.184  42.9990  0.00  0.00     0.000 OA
ENDBRANCH 81 88
ENDBRANCH 76 80
ENDBRANCH 56 76
ENDBRANCH 55 59
ENDBRANCH 39 55
ENDBRANCH 38 42
ENDBRANCH 18 38
ENDBRANCH 17 21
ENDBRANCH 1 17
TORSDOF 18
ENDMDL
MODEL 74
REMARK VINA RESULT:      -3.9     13.396     19.584
ROOT
ATOM      1  C1  IDS C   1     146.438  33.224  28.7750  0.00  0.00     0.000 C
ATOM      2  C2  IDS C   1     146.240  32.716  27.3440  0.00  0.00     0.000 C
ATOM      3  C3  IDS C   1     147.561  32.702  26.5880  0.00  0.00     0.000 C
ATOM      4  C4  IDS C   1     148.170  34.096  26.5460  0.00  0.00     0.000 C
ATOM      5  C5  IDS C   1     147.956  34.802  27.8820  0.00  0.00     0.000 C
ATOM      6  O5  IDS C   1     147.711  33.842  28.9100  0.00  0.00     0.000 O
ATOM      7   O  IDS C   1     147.351  32.218  25.2540  0.00  0.00     0.000 O
ATOM      9  HD  IDS C   1     146.749  31.597  25.2810  0.00  0.00     0.000 HD
ENDROOT
BRANCH 2 9
ATOM      9   O  IDS C   1     145.712  31.333  27.3440  0.00  0.00     0.000 O
ATOM     10   S  IDS C   1     144.364  31.009  26.5560  0.00  0.00     0.000 S
ATOM     11   O  IDS C   1     144.129  29.594  26.7360  0.00  0.00     0.000 OA
ATOM     12   O  IDS C   1     143.344  31.833  27.1730  0.00  0.00     0.000 OA
ATOM     13   O  IDS C   1     144.617  31.364  25.1770  0.00  0.00     0.000 OA
ENDBRANCH 2 9
BRANCH 5 14
ATOM     14   C  IDS C   1     149.155  35.644  28.2840  0.00  0.00     0.000 C
ATOM     15   O  IDS C   1     149.094  36.845  28.1940  0.00  0.00     0.000 OA
ATOM     16   O  IDS C   1     150.167  35.099  28.6920  0.00  0.00     0.000 OA
ENDBRANCH 5 14
BRANCH 1 17
ATOM     17  O4  SGN C   2     145.855  32.657  29.8350  0.00  0.00     0.000 O
BRANCH 17 21
ATOM     18  C1  SGN C   2     145.752  30.387  33.3510  0.00  0.00     0.000 C
ATOM     19  C2  SGN C   2     147.132  30.868  32.8840  0.00  0.00     0.000 C
ATOM     20  C3  SGN C   2     146.969  32.005  31.8680  0.00  0.00     0.000 C
ATOM     21  C4  SGN C   2     146.048  31.569  30.7340  0.00  0.00     0.000 C
ATOM     22  C5  SGN C   2     144.714  31.120  31.3220  0.00  0.00     0.000 C
ATOM     23  O5  SGN C   2     144.930  30.038  32.2570  0.00  0.00     0.000 O
ATOM     24   O  SGN C   2     148.239  32.392  31.3700  0.00  0.00     0.000 O
ATOM     26  HD  SGN C   2     147.435  32.509  31.6710  0.00  0.00     0.000 HD
BRANCH 19 28
ATOM     26   N  SGN C   2     147.940  30.670  34.0950  0.00  0.00     0.000 N
ATOM     28  HD  SGN C   2     147.431  29.970  34.0710  0.00  0.00     0.000 HD
ATOM     28   O  SGN C   2     150.106  30.981  35.2930  0.00  0.00     0.000 OA
ATOM     29   S  SGN C   2     149.498  30.276  34.0340  0.00  0.00     0.000 S
ATOM     30   O  SGN C   2     149.590  28.878  34.2090  0.00  0.00     0.000 OA
ATOM     31   O  SGN C   2     150.049  30.876  32.8680  0.00  0.00     0.000 OA
ENDBRANCH 19 28
BRANCH 22 32
ATOM     32   C  SGN C   2     143.744  30.610  30.2830  0.00  0.00     0.000 C
ATOM     33   S  SGN C   2     142.038  28.700  29.9960  0.00  0.00     0.000 S
ATOM     34   O  SGN C   2     143.070  27.723  29.7510  0.00  0.00     0.000 OA
ATOM     35   O  SGN C   2     140.941  28.198  30.7980  0.00  0.00     0.000 OA
ATOM     36   O  SGN C   2     141.608  29.412  28.8160  0.00  0.00     0.000 OA
ATOM     37   O  SGN C   2     142.746  29.798  30.9130  0.00  0.00     0.000 O
ENDBRANCH 22 32
BRANCH 18 38
ATOM     38  O4  IDS C   3     144.907  30.922  34.2340  0.00  0.00     0.000 O
BRANCH 38 42
ATOM     39  C1  IDS C   3     142.455  31.725  36.5730  0.00  0.00     0.000 C
ATOM     40  C2  IDS C   3     142.082  31.382  35.1220  0.00  0.00     0.000 C
ATOM     41  C3  IDS C   3     142.882  32.228  34.1320  0.00  0.00     0.000 C
ATOM     42  C4  IDS C   3     144.365  32.225  34.4760  0.00  0.00     0.000 C
ATOM     43  C5  IDS C   3     144.557  32.606  35.9490  0.00  0.00     0.000 C
ATOM     44  O5  IDS C   3     143.858  31.671  36.7680  0.00  0.00     0.000 O
ATOM     45   O  IDS C   3     142.386  33.568  34.1460  0.00  0.00     0.000 O
ATOM     47  HD  IDS C   3     142.265  34.169  34.7570  0.00  0.00     0.000 HD
BRANCH 40 47
ATOM     47   O  IDS C   3     142.378  29.959  34.8320  0.00  0.00     0.000 O
ATOM     48   S  IDS C   3     141.184  28.952  34.4910  0.00  0.00     0.000 S
ATOM     49   O  IDS C   3     140.555  28.638  35.7560  0.00  0.00     0.000 OA
ATOM     50   O  IDS C   3     141.818  27.800  33.8880  0.00  0.00     0.000 OA
ATOM     51   O  IDS C   3     140.307  29.651  33.5900  0.00  0.00     0.000 OA
ENDBRANCH 40 47
BRANCH 43 52
ATOM     52   C  IDS C   3     146.012  32.652  36.3580  0.00  0.00     0.000 C
ATOM     53   O  IDS C   3     146.639  33.680  36.2420  0.00  0.00     0.000 OA
ATOM     54   O  IDS C   3     146.540  31.662  36.7980  0.00  0.00     0.000 OA
ENDBRANCH 43 52
BRANCH 39 55
ATOM     55  O4  SGN C   4     141.844  32.670  37.2890  0.00  0.00     0.000 O
BRANCH 55 59
ATOM     56  C1  SGN C   4     139.953  31.849  40.9290  0.00  0.00     0.000 C
ATOM     57  C2  SGN C   4     139.405  31.120  39.6910  0.00  0.00     0.000 C
ATOM     58  C3  SGN C   4     140.401  31.191  38.5360  0.00  0.00     0.000 C
ATOM     59  C4  SGN C   4     140.841  32.631  38.2940  0.00  0.00     0.000 C
ATOM     60  C5  SGN C   4     141.388  33.203  39.5990  0.00  0.00     0.000 C
ATOM     61  O5  SGN C   4     140.336  33.170  40.5840  0.00  0.00     0.000 O
ATOM     62   O  SGN C   4     139.812  30.642  37.3650  0.00  0.00     0.000 O
ATOM     64  HD  SGN C   4     139.420  30.230  38.0180  0.00  0.00     0.000 HD
BRANCH 57 66
ATOM     64   N  SGN C   4     138.217  30.795  40.4960  0.00  0.00     0.000 N
ATOM     66  HD  SGN C   4     137.418  30.501  40.3410  0.00  0.00     0.000 HD
ATOM     66   S  SGN C   4     137.526  29.361  40.3820  0.00  0.00     0.000 S
ATOM     67   O  SGN C   4     136.384  29.372  41.2230  0.00  0.00     0.000 OA
ATOM     68   O  SGN C   4     137.371  29.083  38.9960  0.00  0.00     0.000 OA
ATOM     69   O  SGN C   4     138.595  28.386  40.9720  0.00  0.00     0.000 OA
ENDBRANCH 57 66
BRANCH 60 70
ATOM     70   C  SGN C   4     141.869  34.634  39.4850  0.00  0.00     0.000 C
ATOM     71   O  SGN C   4     139.740  37.724  39.3350  0.00  0.00     0.000 OA
ATOM     72   O  SGN C   4     140.947  36.857  41.2420  0.00  0.00     0.000 OA
ATOM     73   O  SGN C   4     140.760  35.521  39.2460  0.00  0.00     0.000 O
ATOM     74   S  SGN C   4     140.905  37.012  39.8060  0.00  0.00     0.000 S
ATOM     75   O  SGN C   4     142.148  37.500  39.2420  0.00  0.00     0.000 OA
ENDBRANCH 60 70
BRANCH 56 76
ATOM     76  O4  IDS C   5     140.653  31.495  42.0230  0.00  0.00     0.000 O
BRANCH 76 80
ATOM     77  C1  IDS C   5     139.972  33.703  45.3870  0.00  0.00     0.000 C
ATOM     78  C2  IDS C   5     141.294  34.010  44.6830  0.00  0.00     0.000 C
ATOM     79  C3  IDS C   5     141.252  33.488  43.2600  0.00  0.00     0.000 C
ATOM     80  C4  IDS C   5     141.168  31.965  43.2780  0.00  0.00     0.000 C
ATOM     81  C5  IDS C   5     140.258  31.519  44.4320  0.00  0.00     0.000 C
ATOM     82  O5  IDS C   5     139.351  32.565  44.7900  0.00  0.00     0.000 O
BRANCH 78 83
ATOM     83   O  IDS C   5     141.536  35.471  44.6390  0.00  0.00     0.000 O
ATOM     84   S  IDS C   5     142.916  36.063  45.1780  0.00  0.00     0.000 S
ATOM     85   O  IDS C   5     143.127  35.462  46.4680  0.00  0.00     0.000 OA
ATOM     86   O  IDS C   5     143.904  35.669  44.2010  0.00  0.00     0.000 OA
ATOM     87   O  IDS C   5     142.732  37.492  45.2380  0.00  0.00     0.000 OA
ENDBRANCH 78 83
BRANCH 81 88
ATOM     88   C  IDS C   5     139.433  30.283  44.1230  0.00  0.00     0.000 C
ATOM     89   O  IDS C   5     139.905  29.191  44.2900  0.00  0.00     0.000 OA
ATOM     90   O  IDS C   5     138.302  30.406  43.7110  0.00  0.00     0.000 OA
ENDBRANCH 81 88
ENDBRANCH 76 80
ENDBRANCH 56 76
ENDBRANCH 55 59
ENDBRANCH 39 55
ENDBRANCH 38 42
ENDBRANCH 18 38
ENDBRANCH 17 21
ENDBRANCH 1 17
TORSDOF 18
ENDMDL
MODEL 75
REMARK VINA RESULT:      -3.8     10.836     19.955
ROOT
ATOM      1  C1  IDS C   1     134.003  45.313  42.8950  0.00  0.00     0.000 C
ATOM      2  C2  IDS C   1     132.856  46.197  42.3980  0.00  0.00     0.000 C
ATOM      3  C3  IDS C   1     131.572  45.893  43.1560  0.00  0.00     0.000 C
ATOM      4  C4  IDS C   1     131.186  44.429  42.9940  0.00  0.00     0.000 C
ATOM      5  C5  IDS C   1     132.433  43.551  43.0360  0.00  0.00     0.000 C
ATOM      6  O5  IDS C   1     133.499  44.244  43.6850  0.00  0.00     0.000 O
ATOM      7   O  IDS C   1     130.514  46.735  42.6760  0.00  0.00     0.000 O
ATOM      9  HD  IDS C   1     130.849  47.511  42.4880  0.00  0.00     0.000 HD
ENDROOT
BRANCH 2 9
ATOM      9   O  IDS C   1     133.167  47.629  42.6030  0.00  0.00     0.000 O
ATOM     10   S  IDS C   1     133.016  48.646  41.3840  0.00  0.00     0.000 S
ATOM     11   O  IDS C   1     133.375  49.946  41.9050  0.00  0.00     0.000 OA
ATOM     12   O  IDS C   1     133.933  48.174  40.3670  0.00  0.00     0.000 OA
ATOM     13   O  IDS C   1     131.631  48.569  40.9740  0.00  0.00     0.000 OA
ENDBRANCH 2 9
BRANCH 5 14
ATOM     14   C  IDS C   1     132.189  42.244  43.7710  0.00  0.00     0.000 C
ATOM     15   O  IDS C   1     132.444  42.169  44.9480  0.00  0.00     0.000 OA
ATOM     16   O  IDS C   1     131.741  41.284  43.1670  0.00  0.00     0.000 OA
ENDBRANCH 5 14
BRANCH 1 17
ATOM     17  O4  SGN C   2     135.238  45.777  43.1110  0.00  0.00     0.000 O
BRANCH 17 21
ATOM     18  C1  SGN C   2     138.304  47.653  45.2570  0.00  0.00     0.000 C
ATOM     19  C2  SGN C   2     137.137  47.089  46.0770  0.00  0.00     0.000 C
ATOM     20  C3  SGN C   2     136.340  46.090  45.2290  0.00  0.00     0.000 C
ATOM     21  C4  SGN C   2     135.919  46.737  43.9140  0.00  0.00     0.000 C
ATOM     22  C5  SGN C   2     137.160  47.252  43.1920  0.00  0.00     0.000 C
ATOM     23  O5  SGN C   2     137.858  48.199  44.0330  0.00  0.00     0.000 O
ATOM     24   O  SGN C   2     135.212  45.633  45.9550  0.00  0.00     0.000 O
ATOM     26  HD  SGN C   2     135.902  45.566  45.4360  0.00  0.00     0.000 HD
BRANCH 19 28
ATOM     26   N  SGN C   2     137.611  46.503  47.3390  0.00  0.00     0.000 N
ATOM     28  HD  SGN C   2     138.310  46.484  46.8280  0.00  0.00     0.000 HD
ATOM     28   O  SGN C   2     137.500  46.418  49.8290  0.00  0.00     0.000 OA
ATOM     29   S  SGN C   2     137.862  47.390  48.6570  0.00  0.00     0.000 S
ATOM     30   O  SGN C   2     139.243  47.679  48.7190  0.00  0.00     0.000 OA
ATOM     31   O  SGN C   2     136.921  48.456  48.6450  0.00  0.00     0.000 OA
ENDBRANCH 19 28
BRANCH 22 32
ATOM     32   C  SGN C   2     136.848  47.965  41.8990  0.00  0.00     0.000 C
ATOM     33   S  SGN C   2     138.103  49.168  39.9970  0.00  0.00     0.000 S
ATOM     34   O  SGN C   2     138.313  50.352  40.7910  0.00  0.00     0.000 OA
ATOM     35   O  SGN C   2     139.231  48.824  39.1570  0.00  0.00     0.000 OA
ATOM     36   O  SGN C   2     136.839  49.144  39.2990  0.00  0.00     0.000 OA
ATOM     37   O  SGN C   2     138.013  47.987  41.0670  0.00  0.00     0.000 O
ENDBRANCH 22 32
BRANCH 18 38
ATOM     38  O4  IDS C   3     139.488  47.113  44.9590  0.00  0.00     0.000 O
BRANCH 38 42
ATOM     39  C1  IDS C   3     142.733  45.856  44.8280  0.00  0.00     0.000 C
ATOM     40  C2  IDS C   3     142.277  46.971  43.8740  0.00  0.00     0.000 C
ATOM     41  C3  IDS C   3     140.989  46.584  43.1470  0.00  0.00     0.000 C
ATOM     42  C4  IDS C   3     139.947  46.048  44.1200  0.00  0.00     0.000 C
ATOM     43  C5  IDS C   3     140.562  44.934  44.9770  0.00  0.00     0.000 C
ATOM     44  O5  IDS C   3     141.680  45.458  45.6910  0.00  0.00     0.000 O
ATOM     45   O  IDS C   3     141.282  45.594  42.1600  0.00  0.00     0.000 O
ATOM     47  HD  IDS C   3     141.662  44.816  42.1680  0.00  0.00     0.000 HD
BRANCH 40 47
ATOM     47   O  IDS C   3     142.006  48.220  44.6250  0.00  0.00     0.000 O
ATOM     48   S  IDS C   3     142.844  49.542  44.2990  0.00  0.00     0.000 S
ATOM     49   O  IDS C   3     144.135  49.358  44.9260  0.00  0.00     0.000 OA
ATOM     50   O  IDS C   3     142.091  50.626  44.8910  0.00  0.00     0.000 OA
ATOM     51   O  IDS C   3     142.928  49.627  42.8650  0.00  0.00     0.000 OA
ENDBRANCH 40 47
BRANCH 43 52
ATOM     52   C  IDS C   3     139.573  44.332  45.9510  0.00  0.00     0.000 C
ATOM     53   O  IDS C   3     138.597  43.751  45.5370  0.00  0.00     0.000 OA
ATOM     54   O  IDS C   3     139.765  44.434  47.1360  0.00  0.00     0.000 OA
ENDBRANCH 43 52
BRANCH 39 55
ATOM     55  O4  SGN C   4     143.544  44.861  44.4680  0.00  0.00     0.000 O
BRANCH 55 59
ATOM     56  C1  SGN C   4     147.717  45.154  44.4770  0.00  0.00     0.000 C
ATOM     57  C2  SGN C   4     147.115  43.941  43.7480  0.00  0.00     0.000 C
ATOM     58  C3  SGN C   4     145.628  44.155  43.4780  0.00  0.00     0.000 C
ATOM     59  C4  SGN C   4     144.903  44.564  44.7550  0.00  0.00     0.000 C
ATOM     60  C5  SGN C   4     145.593  45.794  45.3390  0.00  0.00     0.000 C
ATOM     61  O5  SGN C   4     146.960  45.447  45.6400  0.00  0.00     0.000 O
ATOM     62   O  SGN C   4     145.066  42.965  42.9410  0.00  0.00     0.000 O
ATOM     64  HD  SGN C   4     145.897  42.942  42.6960  0.00  0.00     0.000 HD
BRANCH 57 66
ATOM     64   N  SGN C   4     148.401  43.227  43.8180  0.00  0.00     0.000 N
ATOM     66  HD  SGN C   4     148.690  42.438  43.6110  0.00  0.00     0.000 HD
ATOM     66   S  SGN C   4     149.017  42.537  42.5180  0.00  0.00     0.000 S
ATOM     67   O  SGN C   4     150.214  41.885  42.9100  0.00  0.00     0.000 OA
ATOM     68   O  SGN C   4     147.975  41.781  41.9140  0.00  0.00     0.000 OA
ATOM     69   O  SGN C   4     149.364  43.743  41.5870  0.00  0.00     0.000 OA
ENDBRANCH 57 66
BRANCH 60 70
ATOM     70   C  SGN C   4     144.956  46.306  46.6120  0.00  0.00     0.000 C
ATOM     71   O  SGN C   4     145.917  45.414  50.1320  0.00  0.00     0.000 OA
ATOM     72   O  SGN C   4     146.478  47.427  48.9150  0.00  0.00     0.000 OA
ATOM     73   O  SGN C   4     145.455  45.582  47.7530  0.00  0.00     0.000 O
ATOM     74   S  SGN C   4     145.508  46.380  49.1380  0.00  0.00     0.000 S
ATOM     75   O  SGN C   4     144.159  46.874  49.3320  0.00  0.00     0.000 OA
ENDBRANCH 60 70
BRANCH 56 76
ATOM     76  O4  IDS C   5     148.345  46.285  44.1050  0.00  0.00     0.000 O
BRANCH 76 80
ATOM     77  C1  IDS C   5     148.248  49.802  42.0360  0.00  0.00     0.000 C
ATOM     78  C2  IDS C   5     148.047  48.554  41.1760  0.00  0.00     0.000 C
ATOM     79  C3  IDS C   5     147.664  47.380  42.0550  0.00  0.00     0.000 C
ATOM     80  C4  IDS C   5     148.828  47.031  42.9780  0.00  0.00     0.000 C
ATOM     81  C5  IDS C   5     149.513  48.324  43.4440  0.00  0.00     0.000 C
ATOM     82  O5  IDS C   5     148.607  49.429  43.3670  0.00  0.00     0.000 O
BRANCH 78 83
ATOM     83   O  IDS C   5     146.967  48.770  40.1850  0.00  0.00     0.000 O
ATOM     84   S  IDS C   5     147.246  48.502  38.6380  0.00  0.00     0.000 S
ATOM     85   O  IDS C   5     148.477  49.181  38.3340  0.00  0.00     0.000 OA
ATOM     86   O  IDS C   5     147.344  47.066  38.5140  0.00  0.00     0.000 OA
ATOM     87   O  IDS C   5     146.108  49.044  37.9360  0.00  0.00     0.000 OA
ENDBRANCH 78 83
BRANCH 81 88
ATOM     88   C  IDS C   5     150.040  48.263  44.8660  0.00  0.00     0.000 C
ATOM     89   O  IDS C   5     151.062  47.677  45.1010  0.00  0.00     0.000 OA
ATOM     90   O  IDS C   5     149.427  48.808  45.7550  0.00  0.00     0.000 OA
ENDBRANCH 81 88
ENDBRANCH 76 80
ENDBRANCH 56 76
ENDBRANCH 55 59
ENDBRANCH 39 55
ENDBRANCH 38 42
ENDBRANCH 18 38
ENDBRANCH 17 21
ENDBRANCH 1 17
TORSDOF 18
ENDMDL
MODEL 76
REMARK VINA RESULT:      -3.8      9.417     13.537
ROOT
ATOM      1  C1  IDS C   1     152.952  38.743  39.2090  0.00  0.00     0.000 C
ATOM      2  C2  IDS C   1     153.378  40.203  39.0290  0.00  0.00     0.000 C
ATOM      3  C3  IDS C   1     154.593  40.303  38.1170  0.00  0.00     0.000 C
ATOM      4  C4  IDS C   1     155.758  39.507  38.6860  0.00  0.00     0.000 C
ATOM      5  C5  IDS C   1     155.253  38.204  39.2980  0.00  0.00     0.000 C
ATOM      6  O5  IDS C   1     153.976  37.869  38.7530  0.00  0.00     0.000 O
ATOM      7   O  IDS C   1     154.969  41.679  37.9610  0.00  0.00     0.000 O
ATOM      9  HD  IDS C   1     154.248  42.158  37.9380  0.00  0.00     0.000 HD
ENDROOT
BRANCH 2 9
ATOM      9   O  IDS C   1     152.291  40.997  38.4130  0.00  0.00     0.000 O
ATOM     10   S  IDS C   1     152.268  41.200  36.8310  0.00  0.00     0.000 S
ATOM     11   O  IDS C   1     151.093  41.995  36.5510  0.00  0.00     0.000 OA
ATOM     12   O  IDS C   1     153.503  41.884  36.5080  0.00  0.00     0.000 OA
ATOM     13   O  IDS C   1     152.194  39.871  36.2640  0.00  0.00     0.000 OA
ENDBRANCH 2 9
BRANCH 5 14
ATOM     14   C  IDS C   1     156.203  37.045  39.0460  0.00  0.00     0.000 C
ATOM     15   O  IDS C   1     156.696  36.909  37.9520  0.00  0.00     0.000 OA
ATOM     16   O  IDS C   1     156.457  36.264  39.9470  0.00  0.00     0.000 OA
ENDBRANCH 5 14
BRANCH 1 17
ATOM     17  O4  SGN C   2     151.676  38.349  39.1790  0.00  0.00     0.000 O
BRANCH 17 21
ATOM     18  C1  SGN C   2     148.040  37.291  37.3950  0.00  0.00     0.000 C
ATOM     19  C2  SGN C   2     149.291  37.194  36.5130  0.00  0.00     0.000 C
ATOM     20  C3  SGN C   2     150.547  37.194  37.3930  0.00  0.00     0.000 C
ATOM     21  C4  SGN C   2     150.537  38.400  38.3240  0.00  0.00     0.000 C
ATOM     22  C5  SGN C   2     149.252  38.383  39.1470  0.00  0.00     0.000 C
ATOM     23  O5  SGN C   2     148.106  38.401  38.2650  0.00  0.00     0.000 O
ATOM     24   O  SGN C   2     151.707  37.192  36.5780  0.00  0.00     0.000 O
ATOM     26  HD  SGN C   2     151.206  36.961  37.2450  0.00  0.00     0.000 HD
BRANCH 19 28
ATOM     26   N  SGN C   2     148.819  36.320  35.4310  0.00  0.00     0.000 N
ATOM     28  HD  SGN C   2     148.120  36.786  35.6390  0.00  0.00     0.000 HD
ATOM     28   O  SGN C   2     149.299  35.090  33.3150  0.00  0.00     0.000 OA
ATOM     29   S  SGN C   2     149.249  36.542  33.8980  0.00  0.00     0.000 S
ATOM     30   O  SGN C   2     148.204  37.249  33.2610  0.00  0.00     0.000 OA
ATOM     31   O  SGN C   2     150.566  37.079  33.8920  0.00  0.00     0.000 OA
ENDBRANCH 19 28
BRANCH 22 32
ATOM     32   C  SGN C   2     149.114  39.573  40.0660  0.00  0.00     0.000 C
ATOM     33   S  SGN C   2     148.232  41.993  39.9830  0.00  0.00     0.000 S
ATOM     34   O  SGN C   2     149.396  42.466  39.2760  0.00  0.00     0.000 OA
ATOM     35   O  SGN C   2     146.995  42.601  39.5390  0.00  0.00     0.000 OA
ATOM     36   O  SGN C   2     148.382  41.978  41.4190  0.00  0.00     0.000 OA
ATOM     37   O  SGN C   2     148.110  40.459  39.5580  0.00  0.00     0.000 O
ENDBRANCH 22 32
BRANCH 18 38
ATOM     38  O4  IDS C   3     147.417  36.354  38.1120  0.00  0.00     0.000 O
BRANCH 38 42
ATOM     39  C1  IDS C   3     145.548  34.502  40.3940  0.00  0.00     0.000 C
ATOM     40  C2  IDS C   3     147.009  34.137  40.0850  0.00  0.00     0.000 C
ATOM     41  C3  IDS C   3     147.236  33.995  38.5810  0.00  0.00     0.000 C
ATOM     42  C4  IDS C   3     146.652  35.179  37.8210  0.00  0.00     0.000 C
ATOM     43  C5  IDS C   3     145.190  35.390  38.2340  0.00  0.00     0.000 C
ATOM     44  O5  IDS C   3     145.131  35.627  39.6390  0.00  0.00     0.000 O
ATOM     45   O  IDS C   3     146.634  32.783  38.1230  0.00  0.00     0.000 O
ATOM     47  HD  IDS C   3     145.839  32.442  38.1630  0.00  0.00     0.000 HD
BRANCH 40 47
ATOM     47   O  IDS C   3     147.924  35.193  40.5770  0.00  0.00     0.000 O
ATOM     48   S  IDS C   3     148.049  35.472  42.1470  0.00  0.00     0.000 S
ATOM     49   O  IDS C   3     146.867  36.224  42.5110  0.00  0.00     0.000 OA
ATOM     50   O  IDS C   3     149.264  36.241  42.3020  0.00  0.00     0.000 OA
ATOM     51   O  IDS C   3     148.108  34.184  42.7850  0.00  0.00     0.000 OA
ENDBRANCH 40 47
BRANCH 43 52
ATOM     52   C  IDS C   3     144.534  36.536  37.4970  0.00  0.00     0.000 C
ATOM     53   O  IDS C   3     144.191  37.525  38.1020  0.00  0.00     0.000 OA
ATOM     54   O  IDS C   3     144.355  36.457  36.3080  0.00  0.00     0.000 OA
ENDBRANCH 43 52
BRANCH 39 55
ATOM     55  O4  SGN C   4     144.588  33.600  40.5980  0.00  0.00     0.000 O
BRANCH 55 59
ATOM     56  C1  SGN C   4     141.321  34.662  42.9860  0.00  0.00     0.000 C
ATOM     57  C2  SGN C   4     142.649  34.398  43.7160  0.00  0.00     0.000 C
ATOM     58  C3  SGN C   4     143.818  34.415  42.7350  0.00  0.00     0.000 C
ATOM     59  C4  SGN C   4     143.541  33.495  41.5520  0.00  0.00     0.000 C
ATOM     60  C5  SGN C   4     142.213  33.901  40.9150  0.00  0.00     0.000 C
ATOM     61  O5  SGN C   4     141.174  33.757  41.9040  0.00  0.00     0.000 O
ATOM     62   O  SGN C   4     145.008  34.023  43.4070  0.00  0.00     0.000 O
ATOM     64  HD  SGN C   4     144.518  34.380  44.0250  0.00  0.00     0.000 HD
BRANCH 57 66
ATOM     64   N  SGN C   4     141.803  34.501  44.9160  0.00  0.00     0.000 N
ATOM     66  HD  SGN C   4     141.821  34.185  45.7220  0.00  0.00     0.000 HD
ATOM     66   S  SGN C   4     142.427  34.957  46.3120  0.00  0.00     0.000 S
ATOM     67   O  SGN C   4     141.392  34.900  47.2790  0.00  0.00     0.000 OA
ATOM     68   O  SGN C   4     143.610  34.192  46.5090  0.00  0.00     0.000 OA
ATOM     69   O  SGN C   4     142.829  36.447  46.0700  0.00  0.00     0.000 OA
ENDBRANCH 57 66
BRANCH 60 70
ATOM     70   C  SGN C   4     141.829  33.062  39.7160  0.00  0.00     0.000 C
ATOM     71   O  SGN C   4     142.789  33.671  36.1360  0.00  0.00     0.000 OA
ATOM     72   O  SGN C   4     143.762  32.077  37.6730  0.00  0.00     0.000 OA
ATOM     73   O  SGN C   4     142.208  33.724  38.4940  0.00  0.00     0.000 O
ATOM     74   S  SGN C   4     142.572  32.782  37.2540  0.00  0.00     0.000 S
ATOM     75   O  SGN C   4     141.418  31.921  37.0920  0.00  0.00     0.000 OA
ENDBRANCH 60 70
BRANCH 56 76
ATOM     76  O4  IDS C   5     140.572  35.746  42.7140  0.00  0.00     0.000 O
BRANCH 76 80
ATOM     77  C1  IDS C   5     141.589  38.673  40.0570  0.00  0.00     0.000 C
ATOM     78  C2  IDS C   5     142.112  38.895  41.4770  0.00  0.00     0.000 C
ATOM     79  C3  IDS C   5     142.070  37.592  42.2500  0.00  0.00     0.000 C
ATOM     80  C4  IDS C   5     140.620  37.154  42.4340  0.00  0.00     0.000 C
ATOM     81  C5  IDS C   5     139.825  37.475  41.1610  0.00  0.00     0.000 C
ATOM     82  O5  IDS C   5     140.699  37.558  40.0310  0.00  0.00     0.000 O
BRANCH 78 83
ATOM     83   O  IDS C   5     143.512  39.380  41.4500  0.00  0.00     0.000 O
ATOM     84   S  IDS C   5     143.924  40.660  42.3070  0.00  0.00     0.000 S
ATOM     85   O  IDS C   5     142.939  41.667  42.0130  0.00  0.00     0.000 OA
ATOM     86   O  IDS C   5     143.893  40.221  43.6830  0.00  0.00     0.000 OA
ATOM     87   O  IDS C   5     145.251  41.015  41.8660  0.00  0.00     0.000 OA
ENDBRANCH 78 83
BRANCH 81 88
ATOM     88   C  IDS C   5     138.748  36.457  40.8330  0.00  0.00     0.000 C
ATOM     89   O  IDS C   5     138.955  35.614  40.0020  0.00  0.00     0.000 OA
ATOM     90   O  IDS C   5     137.688  36.500  41.4130  0.00  0.00     0.000 OA
ENDBRANCH 81 88
ENDBRANCH 76 80
ENDBRANCH 56 76
ENDBRANCH 55 59
ENDBRANCH 39 55
ENDBRANCH 38 42
ENDBRANCH 18 38
ENDBRANCH 17 21
ENDBRANCH 1 17
TORSDOF 18
ENDMDL
MODEL 77
REMARK VINA RESULT:      -3.8     10.160     19.358
ROOT
ATOM      1  C1  IDS C   1     134.056  45.242  42.2700  0.00  0.00     0.000 C
ATOM      2  C2  IDS C   1     132.893  46.030  41.6610  0.00  0.00     0.000 C
ATOM      3  C3  IDS C   1     131.615  45.807  42.4550  0.00  0.00     0.000 C
ATOM      4  C4  IDS C   1     131.255  44.329  42.4900  0.00  0.00     0.000 C
ATOM      5  C5  IDS C   1     132.517  43.486  42.6460  0.00  0.00     0.000 C
ATOM      6  O5  IDS C   1     133.570  44.278  43.1960  0.00  0.00     0.000 O
ATOM      7   O  IDS C   1     130.542  46.559  41.8690  0.00  0.00     0.000 O
ATOM      9  HD  IDS C   1     130.863  47.309  41.5790  0.00  0.00     0.000 HD
ENDROOT
BRANCH 2 9
ATOM      9   O  IDS C   1     133.179  47.483  41.6740  0.00  0.00     0.000 O
ATOM     10   S  IDS C   1     133.182  48.292  40.2990  0.00  0.00     0.000 S
ATOM     11   O  IDS C   1     133.475  49.665  40.6490  0.00  0.00     0.000 OA
ATOM     12   O  IDS C   1     134.218  47.683  39.4910  0.00  0.00     0.000 OA
ATOM     13   O  IDS C   1     131.859  48.126  39.7400  0.00  0.00     0.000 OA
ENDBRANCH 2 9
BRANCH 5 14
ATOM     14   C  IDS C   1     132.296  42.285  43.5490  0.00  0.00     0.000 C
ATOM     15   O  IDS C   1     132.717  42.306  44.6800  0.00  0.00     0.000 OA
ATOM     16   O  IDS C   1     131.698  41.310  43.1240  0.00  0.00     0.000 OA
ENDBRANCH 5 14
BRANCH 1 17
ATOM     17  O4  SGN C   2     135.282  45.751  42.4200  0.00  0.00     0.000 O
BRANCH 17 21
ATOM     18  C1  SGN C   2     138.323  47.566  44.6530  0.00  0.00     0.000 C
ATOM     19  C2  SGN C   2     137.068  47.137  45.4230  0.00  0.00     0.000 C
ATOM     20  C3  SGN C   2     136.261  46.136  44.5860  0.00  0.00     0.000 C
ATOM     21  C4  SGN C   2     135.974  46.718  43.2070  0.00  0.00     0.000 C
ATOM     22  C5  SGN C   2     137.293  47.100  42.5420  0.00  0.00     0.000 C
ATOM     23  O5  SGN C   2     137.998  48.054  43.3680  0.00  0.00     0.000 O
ATOM     24   O  SGN C   2     135.058  45.805  45.2580  0.00  0.00     0.000 O
ATOM     26  HD  SGN C   2     135.774  45.658  44.7950  0.00  0.00     0.000 HD
BRANCH 19 28
ATOM     26   N  SGN C   2     137.443  46.635  46.7520  0.00  0.00     0.000 N
ATOM     28  HD  SGN C   2     138.180  46.591  46.3000  0.00  0.00     0.000 HD
ATOM     28   O  SGN C   2     137.134  46.702  49.2270  0.00  0.00     0.000 OA
ATOM     29   S  SGN C   2     137.584  47.603  48.0280  0.00  0.00     0.000 S
ATOM     30   O  SGN C   2     138.954  47.908  48.1810  0.00  0.00     0.000 OA
ATOM     31   O  SGN C   2     136.642  48.658  47.8760  0.00  0.00     0.000 OA
ENDBRANCH 19 28
BRANCH 22 32
ATOM     32   C  SGN C   2     137.117  47.742  41.1880  0.00  0.00     0.000 C
ATOM     33   S  SGN C   2     138.553  48.384  39.1460  0.00  0.00     0.000 S
ATOM     34   O  SGN C   2     139.099  49.542  39.8080  0.00  0.00     0.000 OA
ATOM     35   O  SGN C   2     139.514  47.676  38.3260  0.00  0.00     0.000 OA
ATOM     36   O  SGN C   2     137.295  48.625  38.4790  0.00  0.00     0.000 OA
ATOM     37   O  SGN C   2     138.209  47.376  40.3360  0.00  0.00     0.000 O
ENDBRANCH 22 32
BRANCH 18 38
ATOM     38  O4  IDS C   3     139.483  46.930  44.4740  0.00  0.00     0.000 O
BRANCH 38 42
ATOM     39  C1  IDS C   3     142.681  45.553  44.5590  0.00  0.00     0.000 C
ATOM     40  C2  IDS C   3     142.272  46.537  43.4510  0.00  0.00     0.000 C
ATOM     41  C3  IDS C   3     140.975  46.097  42.7720  0.00  0.00     0.000 C
ATOM     42  C4  IDS C   3     139.909  45.742  43.7990  0.00  0.00     0.000 C
ATOM     43  C5  IDS C   3     140.476  44.740  44.8120  0.00  0.00     0.000 C
ATOM     44  O5  IDS C   3     141.609  45.319  45.4570  0.00  0.00     0.000 O
ATOM     45   O  IDS C   3     141.237  44.967  41.9390  0.00  0.00     0.000 O
ATOM     47  HD  IDS C   3     141.588  44.185  42.0610  0.00  0.00     0.000 HD
BRANCH 40 47
ATOM     47   O  IDS C   3     142.042  47.889  44.0150  0.00  0.00     0.000 O
ATOM     48   S  IDS C   3     143.092  49.060  43.7250  0.00  0.00     0.000 S
ATOM     49   O  IDS C   3     144.219  48.808  44.5970  0.00  0.00     0.000 OA
ATOM     50   O  IDS C   3     142.397  50.284  44.0590  0.00  0.00     0.000 OA
ATOM     51   O  IDS C   3     143.433  48.965  42.3310  0.00  0.00     0.000 OA
ENDBRANCH 40 47
BRANCH 43 52
ATOM     52   C  IDS C   3     139.461  44.317  45.8510  0.00  0.00     0.000 C
ATOM     53   O  IDS C   3     138.427  43.793  45.5050  0.00  0.00     0.000 OA
ATOM     54   O  IDS C   3     139.688  44.505  47.0190  0.00  0.00     0.000 OA
ENDBRANCH 43 52
BRANCH 39 55
ATOM     55  O4  SGN C   4     143.457  44.489  44.3520  0.00  0.00     0.000 O
BRANCH 55 59
ATOM     56  C1  SGN C   4     147.113  42.466  44.5520  0.00  0.00     0.000 C
ATOM     57  C2  SGN C   4     146.607  43.102  45.8580  0.00  0.00     0.000 C
ATOM     58  C3  SGN C   4     145.125  43.449  45.7520  0.00  0.00     0.000 C
ATOM     59  C4  SGN C   4     144.852  44.263  44.4920  0.00  0.00     0.000 C
ATOM     60  C5  SGN C   4     145.379  43.490  43.2850  0.00  0.00     0.000 C
ATOM     61  O5  SGN C   4     146.798  43.303  43.4510  0.00  0.00     0.000 O
ATOM     62   O  SGN C   4     144.721  44.167  46.9100  0.00  0.00     0.000 O
ATOM     64  HD  SGN C   4     145.376  43.671  47.1810  0.00  0.00     0.000 HD
BRANCH 57 66
ATOM     64   N  SGN C   4     146.963  43.260  47.2770  0.00  0.00     0.000 N
ATOM     66  HD  SGN C   4     147.086  42.734  47.9540  0.00  0.00     0.000 HD
ATOM     66   S  SGN C   4     148.198  42.463  47.8980  0.00  0.00     0.000 S
ATOM     67   O  SGN C   4     148.250  42.771  49.2810  0.00  0.00     0.000 OA
ATOM     68   O  SGN C   4     148.066  41.107  47.4890  0.00  0.00     0.000 OA
ATOM     69   O  SGN C   4     149.439  43.083  47.1810  0.00  0.00     0.000 OA
ENDBRANCH 57 66
BRANCH 60 70
ATOM     70   C  SGN C   4     145.157  44.195  41.9640  0.00  0.00     0.000 C
ATOM     71   O  SGN C   4     147.721  46.046  39.9370  0.00  0.00     0.000 OA
ATOM     72   O  SGN C   4     146.869  43.815  39.5550  0.00  0.00     0.000 OA
ATOM     73   O  SGN C   4     146.320  44.963  41.6000  0.00  0.00     0.000 O
ATOM     74   S  SGN C   4     146.592  45.150  40.0360  0.00  0.00     0.000 S
ATOM     75   O  SGN C   4     145.363  45.709  39.5100  0.00  0.00     0.000 OA
ENDBRANCH 60 70
BRANCH 56 76
ATOM     76  O4  IDS C   5     147.251  41.212  44.0830  0.00  0.00     0.000 O
BRANCH 76 80
ATOM     77  C1  IDS C   5     145.975  37.692  42.4590  0.00  0.00     0.000 C
ATOM     78  C2  IDS C   5     145.195  38.140  43.6950  0.00  0.00     0.000 C
ATOM     79  C3  IDS C   5     145.436  39.615  43.9480  0.00  0.00     0.000 C
ATOM     80  C4  IDS C   5     146.900  39.839  44.3120  0.00  0.00     0.000 C
ATOM     81  C5  IDS C   5     147.782  38.911  43.4640  0.00  0.00     0.000 C
ATOM     82  O5  IDS C   5     147.107  38.538  42.2590  0.00  0.00     0.000 O
BRANCH 78 83
ATOM     83   O  IDS C   5     143.741  37.928  43.5030  0.00  0.00     0.000 O
ATOM     84   S  IDS C   5     143.022  38.503  42.2010  0.00  0.00     0.000 S
ATOM     85   O  IDS C   5     143.444  39.874  42.0880  0.00  0.00     0.000 OA
ATOM     86   O  IDS C   5     143.487  37.674  41.1140  0.00  0.00     0.000 OA
ATOM     87   O  IDS C   5     141.607  38.362  42.4420  0.00  0.00     0.000 OA
ENDBRANCH 78 83
BRANCH 81 88
ATOM     88   C  IDS C   5     149.116  39.520  43.0700  0.00  0.00     0.000 C
ATOM     89   O  IDS C   5     149.282  39.925  41.9510  0.00  0.00     0.000 OA
ATOM     90   O  IDS C   5     150.005  39.594  43.8880  0.00  0.00     0.000 OA
ENDBRANCH 81 88
ENDBRANCH 76 80
ENDBRANCH 56 76
ENDBRANCH 55 59
ENDBRANCH 39 55
ENDBRANCH 38 42
ENDBRANCH 18 38
ENDBRANCH 17 21
ENDBRANCH 1 17
TORSDOF 18
ENDMDL
MODEL 78
REMARK VINA RESULT:      -3.7     10.378     19.381
ROOT
ATOM      1  C1  IDS C   1     133.850  45.751  43.5580  0.00  0.00     0.000 C
ATOM      2  C2  IDS C   1     132.799  46.706  42.9850  0.00  0.00     0.000 C
ATOM      3  C3  IDS C   1     131.510  46.639  43.7900  0.00  0.00     0.000 C
ATOM      4  C4  IDS C   1     130.952  45.222  43.7930  0.00  0.00     0.000 C
ATOM      5  C5  IDS C   1     132.089  44.212  43.9110  0.00  0.00     0.000 C
ATOM      6  O5  IDS C   1     133.246  44.838  44.4660  0.00  0.00     0.000 O
ATOM      7   O  IDS C   1     130.545  47.544  43.2370  0.00  0.00     0.000 O
ATOM      9  HD  IDS C   1     130.961  48.251  42.9610  0.00  0.00     0.000 HD
ENDROOT
BRANCH 2 9
ATOM      9   O  IDS C   1     133.280  48.106  43.0280  0.00  0.00     0.000 O
ATOM     10   S  IDS C   1     133.029  48.980  44.3380  0.00  0.00     0.000 S
ATOM     11   O  IDS C   1     133.621  50.272  44.0720  0.00  0.00     0.000 OA
ATOM     12   O  IDS C   1     131.590  49.041  44.4960  0.00  0.00     0.000 OA
ATOM     13   O  IDS C   1     133.685  48.274  45.4160  0.00  0.00     0.000 OA
ENDBRANCH 2 9
BRANCH 5 14
ATOM     14   C  IDS C   1     131.716  43.029  44.7880  0.00  0.00     0.000 C
ATOM     15   O  IDS C   1     132.438  42.062  44.8200  0.00  0.00     0.000 OA
ATOM     16   O  IDS C   1     130.691  43.064  45.4480  0.00  0.00     0.000 OA
ENDBRANCH 5 14
BRANCH 1 17
ATOM     17  O4  SGN C   2     135.135  46.085  43.7030  0.00  0.00     0.000 O
BRANCH 17 21
ATOM     18  C1  SGN C   2     138.512  47.756  45.5280  0.00  0.00     0.000 C
ATOM     19  C2  SGN C   2     137.408  47.246  46.4630  0.00  0.00     0.000 C
ATOM     20  C3  SGN C   2     136.471  46.306  45.6950  0.00  0.00     0.000 C
ATOM     21  C4  SGN C   2     135.950  46.994  44.4380  0.00  0.00     0.000 C
ATOM     22  C5  SGN C   2     137.136  47.450  43.5930  0.00  0.00     0.000 C
ATOM     23  O5  SGN C   2     137.971  48.344  44.3640  0.00  0.00     0.000 O
ATOM     24   O  SGN C   2     135.401  45.901  46.5330  0.00  0.00     0.000 O
ATOM     26  HD  SGN C   2     136.027  45.804  45.9430  0.00  0.00     0.000 HD
BRANCH 19 28
ATOM     26   N  SGN C   2     138.137  47.112  47.7310  0.00  0.00     0.000 N
ATOM     28  HD  SGN C   2     138.515  47.790  47.3470  0.00  0.00     0.000 HD
ATOM     28   O  SGN C   2     138.125  46.501  50.1490  0.00  0.00     0.000 OA
ATOM     29   S  SGN C   2     137.485  47.517  49.1440  0.00  0.00     0.000 S
ATOM     30   O  SGN C   2     137.937  48.816  49.4660  0.00  0.00     0.000 OA
ATOM     31   O  SGN C   2     136.089  47.258  49.0650  0.00  0.00     0.000 OA
ENDBRANCH 19 28
BRANCH 22 32
ATOM     32   C  SGN C   2     136.729  48.199  42.3470  0.00  0.00     0.000 C
ATOM     33   S  SGN C   2     137.736  48.860  40.0690  0.00  0.00     0.000 S
ATOM     34   O  SGN C   2     138.525  49.919  40.6470  0.00  0.00     0.000 OA
ATOM     35   O  SGN C   2     138.419  48.134  39.0190  0.00  0.00     0.000 OA
ATOM     36   O  SGN C   2     136.392  49.253  39.7150  0.00  0.00     0.000 OA
ATOM     37   O  SGN C   2     137.566  47.804  41.2530  0.00  0.00     0.000 O
ENDBRANCH 22 32
BRANCH 18 38
ATOM     38  O4  IDS C   3     139.625  47.156  45.1020  0.00  0.00     0.000 O
BRANCH 38 42
ATOM     39  C1  IDS C   3     142.735  45.647  44.6770  0.00  0.00     0.000 C
ATOM     40  C2  IDS C   3     142.314  46.849  43.8160  0.00  0.00     0.000 C
ATOM     41  C3  IDS C   3     140.952  46.612  43.1630  0.00  0.00     0.000 C
ATOM     42  C4  IDS C   3     139.935  46.107  44.1780  0.00  0.00     0.000 C
ATOM     43  C5  IDS C   3     140.507  44.900  44.9300  0.00  0.00     0.000 C
ATOM     44  O5  IDS C   3     141.711  45.288  45.5900  0.00  0.00     0.000 O
ATOM     45   O  IDS C   3     141.094  45.659  42.1080  0.00  0.00     0.000 O
ATOM     47  HD  IDS C   3     141.405  44.854  42.0480  0.00  0.00     0.000 HD
BRANCH 40 47
ATOM     47   O  IDS C   3     142.201  48.071  44.6480  0.00  0.00     0.000 O
ATOM     48   S  IDS C   3     143.275  49.245  44.4880  0.00  0.00     0.000 S
ATOM     49   O  IDS C   3     144.463  48.794  45.1810  0.00  0.00     0.000 OA
ATOM     50   O  IDS C   3     142.673  50.400  45.1160  0.00  0.00     0.000 OA
ATOM     51   O  IDS C   3     143.484  49.414  43.0750  0.00  0.00     0.000 OA
ENDBRANCH 40 47
BRANCH 43 52
ATOM     52   C  IDS C   3     139.538  44.326  45.9400  0.00  0.00     0.000 C
ATOM     53   O  IDS C   3     138.583  43.686  45.5620  0.00  0.00     0.000 OA
ATOM     54   O  IDS C   3     139.722  44.508  47.1160  0.00  0.00     0.000 OA
ENDBRANCH 43 52
BRANCH 39 55
ATOM     55  O4  SGN C   4     143.432  44.612  44.2090  0.00  0.00     0.000 O
BRANCH 55 59
ATOM     56  C1  SGN C   4     146.972  42.446  43.6790  0.00  0.00     0.000 C
ATOM     57  C2  SGN C   4     146.576  42.772  45.1300  0.00  0.00     0.000 C
ATOM     58  C3  SGN C   4     145.112  43.197  45.2080  0.00  0.00     0.000 C
ATOM     59  C4  SGN C   4     144.818  44.300  44.1980  0.00  0.00     0.000 C
ATOM     60  C5  SGN C   4     145.232  43.817  42.8090  0.00  0.00     0.000 C
ATOM     61  O5  SGN C   4     146.646  43.535  42.8310  0.00  0.00     0.000 O
ATOM     62   O  SGN C   4     144.814  43.633  46.5280  0.00  0.00     0.000 O
ATOM     64  HD  SGN C   4     145.454  43.059  46.6290  0.00  0.00     0.000 HD
BRANCH 57 66
ATOM     64   N  SGN C   4     146.992  42.539  46.5220  0.00  0.00     0.000 N
ATOM     66  HD  SGN C   4     147.134  41.848  47.0250  0.00  0.00     0.000 HD
ATOM     66   S  SGN C   4     148.237  41.596  46.8500  0.00  0.00     0.000 S
ATOM     67   O  SGN C   4     148.351  41.518  48.2610  0.00  0.00     0.000 OA
ATOM     68   O  SGN C   4     148.065  40.403  46.0960  0.00  0.00     0.000 OA
ATOM     69   O  SGN C   4     149.459  42.381  46.2730  0.00  0.00     0.000 OA
ENDBRANCH 57 66
BRANCH 60 70
ATOM     70   C  SGN C   4     144.979  44.827  41.7110  0.00  0.00     0.000 C
ATOM     71   O  SGN C   4     146.330  48.325  41.5070  0.00  0.00     0.000 OA
ATOM     72   O  SGN C   4     147.121  46.368  40.3270  0.00  0.00     0.000 OA
ATOM     73   O  SGN C   4     145.493  46.119  42.0850  0.00  0.00     0.000 O
ATOM     74   S  SGN C   4     145.987  47.063  40.8930  0.00  0.00     0.000 S
ATOM     75   O  SGN C   4     144.854  47.148  39.9930  0.00  0.00     0.000 OA
ENDBRANCH 60 70
BRANCH 56 76
ATOM     76  O4  IDS C   5     147.013  41.337  42.9190  0.00  0.00     0.000 O
BRANCH 76 80
ATOM     77  C1  IDS C   5     143.564  39.719  41.4540  0.00  0.00     0.000 C
ATOM     78  C2  IDS C   5     144.057  39.088  42.7560  0.00  0.00     0.000 C
ATOM     79  C3  IDS C   5     145.050  40.014  43.4320  0.00  0.00     0.000 C
ATOM     80  C4  IDS C   5     146.300  40.142  42.5660  0.00  0.00     0.000 C
ATOM     81  C5  IDS C   5     145.892  40.178  41.0860  0.00  0.00     0.000 C
ATOM     82  O5  IDS C   5     144.541  40.628  40.9480  0.00  0.00     0.000 O
BRANCH 78 83
ATOM     83   O  IDS C   5     142.927  38.855  43.6850  0.00  0.00     0.000 O
ATOM     84   S  IDS C   5     142.535  37.364  44.0980  0.00  0.00     0.000 S
ATOM     85   O  IDS C   5     142.460  36.620  42.8700  0.00  0.00     0.000 OA
ATOM     86   O  IDS C   5     143.600  36.920  44.9670  0.00  0.00     0.000 OA
ATOM     87   O  IDS C   5     141.268  37.468  44.7800  0.00  0.00     0.000 OA
ENDBRANCH 78 83
BRANCH 81 88
ATOM     88   C  IDS C   5     146.764  41.078  40.2290  0.00  0.00     0.000 C
ATOM     89   O  IDS C   5     146.328  42.119  39.8180  0.00  0.00     0.000 OA
ATOM     90   O  IDS C   5     147.895  40.740  39.9660  0.00  0.00     0.000 OA
ENDBRANCH 81 88
ENDBRANCH 76 80
ENDBRANCH 56 76
ENDBRANCH 55 59
ENDBRANCH 39 55
ENDBRANCH 38 42
ENDBRANCH 18 38
ENDBRANCH 17 21
ENDBRANCH 1 17
TORSDOF 18
ENDMDL
MODEL 79
REMARK VINA RESULT:      -3.6      8.897     15.543
ROOT
ATOM      1  C1  IDS C   1     172.268  37.043  55.3360  0.00  0.00     0.000 C
ATOM      2  C2  IDS C   1     173.467  36.775  56.2510  0.00  0.00     0.000 C
ATOM      3  C3  IDS C   1     173.029  36.702  57.7060  0.00  0.00     0.000 C
ATOM      4  C4  IDS C   1     172.354  37.999  58.1300  0.00  0.00     0.000 C
ATOM      5  C5  IDS C   1     171.477  38.526  56.9980  0.00  0.00     0.000 C
ATOM      6  O5  IDS C   1     171.147  37.468  56.0990  0.00  0.00     0.000 O
ATOM      7   O  IDS C   1     174.167  36.446  58.5420  0.00  0.00     0.000 O
ATOM      9  HD  IDS C   1     174.699  35.908  58.1210  0.00  0.00     0.000 HD
ENDROOT
BRANCH 2 9
ATOM      9   O  IDS C   1     174.110  35.485  55.9130  0.00  0.00     0.000 O
ATOM     10   S  IDS C   1     175.632  35.469  55.4370  0.00  0.00     0.000 S
ATOM     11   O  IDS C   1     175.959  34.080  55.2020  0.00  0.00     0.000 OA
ATOM     12   O  IDS C   1     175.671  36.270  54.2300  0.00  0.00     0.000 OA
ATOM     13   O  IDS C   1     176.391  36.048  56.5230  0.00  0.00     0.000 OA
ENDBRANCH 2 9
BRANCH 5 14
ATOM     14   C  IDS C   1     170.187  39.142  57.5120  0.00  0.00     0.000 C
ATOM     15   O  IDS C   1     169.361  39.534  56.7250  0.00  0.00     0.000 OA
ATOM     16   O  IDS C   1     169.998  39.236  58.7130  0.00  0.00     0.000 OA
ENDBRANCH 5 14
BRANCH 1 17
ATOM     17  O4  SGN C   2     172.083  36.408  54.1750  0.00  0.00     0.000 O
BRANCH 17 21
ATOM     18  C1  SGN C   2     170.451  33.046  52.2870  0.00  0.00     0.000 C
ATOM     19  C2  SGN C   2     170.653  32.951  53.8040  0.00  0.00     0.000 C
ATOM     20  C3  SGN C   2     170.842  34.355  54.3920  0.00  0.00     0.000 C
ATOM     21  C4  SGN C   2     171.965  35.083  53.6620  0.00  0.00     0.000 C
ATOM     22  C5  SGN C   2     171.648  35.117  52.1690  0.00  0.00     0.000 C
ATOM     23  O5  SGN C   2     171.497  33.767  51.6710  0.00  0.00     0.000 O
ATOM     24   O  SGN C   2     171.116  34.264  55.7800  0.00  0.00     0.000 O
ATOM     26  HD  SGN C   2     170.751  34.583  55.0630  0.00  0.00     0.000 HD
BRANCH 19 28
ATOM     26   N  SGN C   2     170.395  31.741  54.5970  0.00  0.00     0.000 N
ATOM     28  HD  SGN C   2     171.215  31.943  54.7900  0.00  0.00     0.000 HD
ATOM     28   O  SGN C   2     168.791  30.334  55.8880  0.00  0.00     0.000 OA
ATOM     29   S  SGN C   2     169.455  31.752  55.9010  0.00  0.00     0.000 S
ATOM     30   O  SGN C   2     170.296  31.846  57.0310  0.00  0.00     0.000 OA
ATOM     31   O  SGN C   2     168.443  32.729  55.6950  0.00  0.00     0.000 OA
ENDBRANCH 19 28
BRANCH 22 32
ATOM     32   C  SGN C   2     172.729  35.768  51.3430  0.00  0.00     0.000 C
ATOM     33   S  SGN C   2     174.342  35.153  49.4290  0.00  0.00     0.000 S
ATOM     34   O  SGN C   2     175.223  34.430  50.3120  0.00  0.00     0.000 OA
ATOM     35   O  SGN C   2     174.178  34.528  48.1330  0.00  0.00     0.000 OA
ATOM     36   O  SGN C   2     174.615  36.569  49.3540  0.00  0.00     0.000 OA
ATOM     37   O  SGN C   2     172.909  35.038  50.1230  0.00  0.00     0.000 O
ENDBRANCH 22 32
BRANCH 18 38
ATOM     38  O4  IDS C   3     169.368  33.380  51.5810  0.00  0.00     0.000 O
BRANCH 38 42
ATOM     39  C1  IDS C   3     166.553  35.103  50.4720  0.00  0.00     0.000 C
ATOM     40  C2  IDS C   3     166.846  34.948  51.9730  0.00  0.00     0.000 C
ATOM     41  C3  IDS C   3     167.082  33.483  52.3410  0.00  0.00     0.000 C
ATOM     42  C4  IDS C   3     168.064  32.825  51.3810  0.00  0.00     0.000 C
ATOM     43  C5  IDS C   3     167.612  33.060  49.9340  0.00  0.00     0.000 C
ATOM     44  O5  IDS C   3     167.546  34.464  49.6880  0.00  0.00     0.000 O
ATOM     45   O  IDS C   3     165.837  32.782  52.3140  0.00  0.00     0.000 O
ATOM     47  HD  IDS C   3     165.213  32.666  51.7250  0.00  0.00     0.000 HD
BRANCH 40 47
ATOM     47   O  IDS C   3     168.065  35.703  52.3460  0.00  0.00     0.000 O
ATOM     48   S  IDS C   3     168.025  37.300  52.4060  0.00  0.00     0.000 S
ATOM     49   O  IDS C   3     168.079  37.750  51.0320  0.00  0.00     0.000 OA
ATOM     50   O  IDS C   3     169.200  37.682  53.1590  0.00  0.00     0.000 OA
ATOM     51   O  IDS C   3     166.793  37.652  53.0600  0.00  0.00     0.000 OA
ENDBRANCH 40 47
BRANCH 43 52
ATOM     52   C  IDS C   3     168.527  32.409  48.9220  0.00  0.00     0.000 C
ATOM     53   O  IDS C   3     168.852  33.014  47.9260  0.00  0.00     0.000 OA
ATOM     54   O  IDS C   3     168.929  31.290  49.1130  0.00  0.00     0.000 OA
ENDBRANCH 43 52
BRANCH 39 55
ATOM     55  O4  SGN C   4     165.328  35.046  49.9490  0.00  0.00     0.000 O
BRANCH 55 59
ATOM     56  C1  SGN C   4     162.391  36.288  47.2400  0.00  0.00     0.000 C
ATOM     57  C2  SGN C   4     163.356  35.192  46.7540  0.00  0.00     0.000 C
ATOM     58  C3  SGN C   4     164.097  34.562  47.9310  0.00  0.00     0.000 C
ATOM     59  C4  SGN C   4     164.732  35.639  48.8040  0.00  0.00     0.000 C
ATOM     60  C5  SGN C   4     163.649  36.627  49.2320  0.00  0.00     0.000 C
ATOM     61  O5  SGN C   4     163.088  37.224  48.0460  0.00  0.00     0.000 O
ATOM     62   O  SGN C   4     165.084  33.663  47.4450  0.00  0.00     0.000 O
ATOM     64  HD  SGN C   4     164.471  33.663  46.8330  0.00  0.00     0.000 HD
BRANCH 57 66
ATOM     64   N  SGN C   4     163.029  35.476  45.3470  0.00  0.00     0.000 N
ATOM     66  HD  SGN C   4     163.300  35.197  44.5740  0.00  0.00     0.000 HD
ATOM     66   S  SGN C   4     162.632  34.293  44.3520  0.00  0.00     0.000 S
ATOM     67   O  SGN C   4     162.437  34.865  43.0700  0.00  0.00     0.000 OA
ATOM     68   O  SGN C   4     163.601  33.266  44.5190  0.00  0.00     0.000 OA
ATOM     69   O  SGN C   4     161.263  33.785  44.9080  0.00  0.00     0.000 OA
ENDBRANCH 57 66
BRANCH 60 70
ATOM     70   C  SGN C   4     164.157  37.744  50.1160  0.00  0.00     0.000 C
ATOM     71   O  SGN C   4     162.738  41.209  50.4130  0.00  0.00     0.000 OA
ATOM     72   O  SGN C   4     162.433  39.356  51.9360  0.00  0.00     0.000 OA
ATOM     73   O  SGN C   4     163.488  38.981  49.8030  0.00  0.00     0.000 O
ATOM     74   S  SGN C   4     163.313  40.022  51.0030  0.00  0.00     0.000 S
ATOM     75   O  SGN C   4     164.653  40.224  51.5170  0.00  0.00     0.000 OA
ENDBRANCH 60 70
BRANCH 56 76
ATOM     76  O4  IDS C   5     161.092  36.341  47.5850  0.00  0.00     0.000 O
BRANCH 76 80
ATOM     77  C1  IDS C   5     159.431  34.876  51.0140  0.00  0.00     0.000 C
ATOM     78  C2  IDS C   5     159.567  33.853  49.8870  0.00  0.00     0.000 C
ATOM     79  C3  IDS C   5     160.562  34.350  48.8570  0.00  0.00     0.000 C
ATOM     80  C4  IDS C   5     160.014  35.602  48.1790  0.00  0.00     0.000 C
ATOM     81  C5  IDS C   5     159.281  36.463  49.2180  0.00  0.00     0.000 C
ATOM     82  O5  IDS C   5     159.763  36.180  50.5350  0.00  0.00     0.000 O
BRANCH 78 83
ATOM     83   O  IDS C   5     160.046  32.554  50.4140  0.00  0.00     0.000 O
ATOM     84   S  IDS C   5     159.357  31.199  49.9300  0.00  0.00     0.000 S
ATOM     85   O  IDS C   5     157.940  31.407  50.0600  0.00  0.00     0.000 OA
ATOM     86   O  IDS C   5     159.783  31.025  48.5610  0.00  0.00     0.000 OA
ATOM     87   O  IDS C   5     159.864  30.169  50.8040  0.00  0.00     0.000 OA
ENDBRANCH 78 83
BRANCH 81 88
ATOM     88   C  IDS C   5     159.424  37.957  48.9900  0.00  0.00     0.000 C
ATOM     89   O  IDS C   5     160.193  38.594  49.6590  0.00  0.00     0.000 OA
ATOM     90   O  IDS C   5     158.762  38.498  48.1340  0.00  0.00     0.000 OA
ENDBRANCH 81 88
ENDBRANCH 76 80
ENDBRANCH 56 76
ENDBRANCH 55 59
ENDBRANCH 39 55
ENDBRANCH 38 42
ENDBRANCH 18 38
ENDBRANCH 17 21
ENDBRANCH 1 17
TORSDOF 18
ENDMDL
MODEL 80
REMARK VINA RESULT:      -3.5     11.367     19.827
ROOT
ATOM      1  C1  IDS C   1     165.041  39.081  46.8220  0.00  0.00     0.000 C
ATOM      2  C2  IDS C   1     163.729  39.340  46.0750  0.00  0.00     0.000 C
ATOM      3  C3  IDS C   1     163.913  40.421  45.0200  0.00  0.00     0.000 C
ATOM      4  C4  IDS C   1     164.393  41.718  45.6580  0.00  0.00     0.000 C
ATOM      5  C5  IDS C   1     165.404  41.416  46.7600  0.00  0.00     0.000 C
ATOM      6  O5  IDS C   1     165.973  40.122  46.5630  0.00  0.00     0.000 O
ATOM      7   O  IDS C   1     162.674  40.643  44.3320  0.00  0.00     0.000 O
ATOM      9  HD  IDS C   1     162.270  39.882  44.2460  0.00  0.00     0.000 HD
ENDROOT
BRANCH 2 9
ATOM      9   O  IDS C   1     163.266  38.116  45.3830  0.00  0.00     0.000 O
ATOM     10   S  IDS C   1     161.794  37.569  45.6600  0.00  0.00     0.000 S
ATOM     11   O  IDS C   1     161.647  36.390  44.8360  0.00  0.00     0.000 OA
ATOM     12   O  IDS C   1     161.748  37.276  47.0780  0.00  0.00     0.000 OA
ATOM     13   O  IDS C   1     160.897  38.637  45.2760  0.00  0.00     0.000 OA
ENDBRANCH 2 9
BRANCH 5 14
ATOM     14   C  IDS C   1     166.529  42.436  46.7990  0.00  0.00     0.000 C
ATOM     15   O  IDS C   1     166.274  43.594  47.0220  0.00  0.00     0.000 OA
ATOM     16   O  IDS C   1     167.679  42.078  46.6040  0.00  0.00     0.000 OA
ENDBRANCH 5 14
BRANCH 1 17
ATOM     17  O4  SGN C   2     165.477  37.854  47.1220  0.00  0.00     0.000 O
BRANCH 17 21
ATOM     18  C1  SGN C   2     167.680  34.350  46.4950  0.00  0.00     0.000 C
ATOM     19  C2  SGN C   2     168.081  35.572  45.6600  0.00  0.00     0.000 C
ATOM     20  C3  SGN C   2     167.497  36.844  46.2860  0.00  0.00     0.000 C
ATOM     21  C4  SGN C   2     165.993  36.691  46.4790  0.00  0.00     0.000 C
ATOM     22  C5  SGN C   2     165.722  35.451  47.3250  0.00  0.00     0.000 C
ATOM     23  O5  SGN C   2     166.281  34.285  46.6760  0.00  0.00     0.000 O
ATOM     24   O  SGN C   2     167.793  37.964  45.4690  0.00  0.00     0.000 O
ATOM     26  HD  SGN C   2     167.701  37.524  46.2090  0.00  0.00     0.000 HD
BRANCH 19 28
ATOM     26   N  SGN C   2     169.433  35.196  45.2240  0.00  0.00     0.000 N
ATOM     28  HD  SGN C   2     169.007  34.443  45.2450  0.00  0.00     0.000 HD
ATOM     28   O  SGN C   2     171.513  35.775  43.9750  0.00  0.00     0.000 OA
ATOM     29   S  SGN C   2     169.984  35.528  43.7500  0.00  0.00     0.000 S
ATOM     30   O  SGN C   2     169.824  34.365  42.9640  0.00  0.00     0.000 OA
ATOM     31   O  SGN C   2     169.384  36.747  43.3300  0.00  0.00     0.000 OA
ENDBRANCH 19 28
BRANCH 22 32
ATOM     32   C  SGN C   2     164.253  35.174  47.5280  0.00  0.00     0.000 C
ATOM     33   S  SGN C   2     162.633  33.170  47.4770  0.00  0.00     0.000 S
ATOM     34   O  SGN C   2     162.609  33.138  46.0360  0.00  0.00     0.000 OA
ATOM     35   O  SGN C   2     162.633  31.856  48.0860  0.00  0.00     0.000 OA
ATOM     36   O  SGN C   2     161.672  34.075  48.0620  0.00  0.00     0.000 OA
ATOM     37   O  SGN C   2     164.061  33.787  47.8330  0.00  0.00     0.000 O
ENDBRANCH 22 32
BRANCH 18 38
ATOM     38  O4  IDS C   3     168.177  33.892  47.6460  0.00  0.00     0.000 O
BRANCH 38 42
ATOM     39  C1  IDS C   3     170.301  32.503  50.0310  0.00  0.00     0.000 C
ATOM     40  C2  IDS C   3     170.179  31.891  48.6260  0.00  0.00     0.000 C
ATOM     41  C3  IDS C   3     168.718  31.625  48.2640  0.00  0.00     0.000 C
ATOM     42  C4  IDS C   3     167.848  32.839  48.5590  0.00  0.00     0.000 C
ATOM     43  C5  IDS C   3     168.079  33.306  50.0020  0.00  0.00     0.000 C
ATOM     44  O5  IDS C   3     169.457  33.633  50.1710  0.00  0.00     0.000 O
ATOM     45   O  IDS C   3     168.244  30.500  49.0070  0.00  0.00     0.000 O
ATOM     47  HD  IDS C   3     168.206  30.293  49.8470  0.00  0.00     0.000 HD
BRANCH 40 47
ATOM     47   O  IDS C   3     170.729  32.814  47.6060  0.00  0.00     0.000 O
ATOM     48   S  IDS C   3     172.057  32.419  46.8080  0.00  0.00     0.000 S
ATOM     49   O  IDS C   3     173.155  32.657  47.7210  0.00  0.00     0.000 OA
ATOM     50   O  IDS C   3     172.090  33.301  45.6620  0.00  0.00     0.000 OA
ATOM     51   O  IDS C   3     171.920  31.032  46.4510  0.00  0.00     0.000 OA
ENDBRANCH 40 47
BRANCH 43 52
ATOM     52   C  IDS C   3     167.224  34.496  50.3760  0.00  0.00     0.000 C
ATOM     53   O  IDS C   3     166.044  34.345  50.5960  0.00  0.00     0.000 OA
ATOM     54   O  IDS C   3     167.724  35.589  50.4530  0.00  0.00     0.000 OA
ENDBRANCH 43 52
BRANCH 39 55
ATOM     55  O4  SGN C   4     170.430  31.780  51.1430  0.00  0.00     0.000 O
BRANCH 55 59
ATOM     56  C1  SGN C   4     174.118  31.929  53.1130  0.00  0.00     0.000 C
ATOM     57  C2  SGN C   4     174.038  31.024  51.8710  0.00  0.00     0.000 C
ATOM     58  C3  SGN C   4     172.803  31.357  51.0370  0.00  0.00     0.000 C
ATOM     59  C4  SGN C   4     171.553  31.366  51.9090  0.00  0.00     0.000 C
ATOM     60  C5  SGN C   4     171.773  32.330  53.0730  0.00  0.00     0.000 C
ATOM     61  O5  SGN C   4     172.901  31.864  53.8390  0.00  0.00     0.000 O
ATOM     62   O  SGN C   4     172.672  30.414  49.9830  0.00  0.00     0.000 O
ATOM     64  HD  SGN C   4     173.523  30.443  50.1430  0.00  0.00     0.000 HD
BRANCH 57 66
ATOM     64   N  SGN C   4     174.860  29.863  51.4930  0.00  0.00     0.000 N
ATOM     66  HD  SGN C   4     175.423  29.675  50.8630  0.00  0.00     0.000 HD
ATOM     66   S  SGN C   4     176.433  30.020  51.2760  0.00  0.00     0.000 S
ATOM     67   O  SGN C   4     176.933  28.759  50.8640  0.00  0.00     0.000 OA
ATOM     68   O  SGN C   4     176.627  31.156  50.4420  0.00  0.00     0.000 OA
ATOM     69   O  SGN C   4     176.974  30.350  52.7050  0.00  0.00     0.000 OA
ENDBRANCH 57 66
BRANCH 60 70
ATOM     70   C  SGN C   4     170.590  32.435  54.0110  0.00  0.00     0.000 C
ATOM     71   O  SGN C   4     167.693  34.810  53.7320  0.00  0.00     0.000 OA
ATOM     72   O  SGN C   4     167.745  32.470  53.1220  0.00  0.00     0.000 OA
ATOM     73   O  SGN C   4     169.797  33.596  53.6960  0.00  0.00     0.000 O
ATOM     74   S  SGN C   4     168.233  33.499  54.0130  0.00  0.00     0.000 S
ATOM     75   O  SGN C   4     168.160  33.133  55.4130  0.00  0.00     0.000 OA
ENDBRANCH 60 70
BRANCH 56 76
ATOM     76  O4  IDS C   5     174.710  33.099  53.4130  0.00  0.00     0.000 O
BRANCH 76 80
ATOM     77  C1  IDS C   5     173.676  36.637  51.6590  0.00  0.00     0.000 C
ATOM     78  C2  IDS C   5     174.791  35.876  50.9430  0.00  0.00     0.000 C
ATOM     79  C3  IDS C   5     174.794  34.427  51.3890  0.00  0.00     0.000 C
ATOM     80  C4  IDS C   5     175.160  34.349  52.8680  0.00  0.00     0.000 C
ATOM     81  C5  IDS C   5     174.513  35.524  53.6150  0.00  0.00     0.000 C
ATOM     82  O5  IDS C   5     173.370  36.004  52.9020  0.00  0.00     0.000 O
BRANCH 78 83
ATOM     83   O  IDS C   5     174.593  35.913  49.4750  0.00  0.00     0.000 O
ATOM     84   S  IDS C   5     173.145  36.219  48.8790  0.00  0.00     0.000 S
ATOM     85   O  IDS C   5     172.237  35.352  49.5810  0.00  0.00     0.000 OA
ATOM     86   O  IDS C   5     172.913  37.619  49.1450  0.00  0.00     0.000 OA
ATOM     87   O  IDS C   5     173.234  35.928  47.4690  0.00  0.00     0.000 OA
ENDBRANCH 78 83
BRANCH 81 88
ATOM     88   C  IDS C   5     174.063  35.185  55.0250  0.00  0.00     0.000 C
ATOM     89   O  IDS C   5     172.902  34.968  55.2470  0.00  0.00     0.000 OA
ATOM     90   O  IDS C   5     174.878  35.134  55.9170  0.00  0.00     0.000 OA
ENDBRANCH 81 88
ENDBRANCH 76 80
ENDBRANCH 56 76
ENDBRANCH 55 59
ENDBRANCH 39 55
ENDBRANCH 38 42
ENDBRANCH 18 38
ENDBRANCH 17 21
ENDBRANCH 1 17
TORSDOF 18
ENDMDL
MODEL 81
REMARK VINA RESULT:      -3.3     17.189     22.415
ROOT
ATOM      1  C1  IDS C   1     140.793  49.645  34.1440  0.00  0.00     0.000 C
ATOM      2  C2  IDS C   1     140.941  49.648  32.6200  0.00  0.00     0.000 C
ATOM      3  C3  IDS C   1     142.379  49.356  32.2160  0.00  0.00     0.000 C
ATOM      4  C4  IDS C   1     143.324  50.388  32.8150  0.00  0.00     0.000 C
ATOM      5  C5  IDS C   1     142.888  50.736  34.2350  0.00  0.00     0.000 C
ATOM      6  O5  IDS C   1     142.070  49.694  34.7660  0.00  0.00     0.000 O
ATOM      7   O  IDS C   1     142.491  49.360  30.7860  0.00  0.00     0.000 O
ATOM      9  HD  IDS C   1     141.767  49.019  30.4550  0.00  0.00     0.000 HD
ENDROOT
BRANCH 2 9
ATOM      9   O  IDS C   1     140.085  48.608  32.0050  0.00  0.00     0.000 O
ATOM     10   S  IDS C   1     138.909  49.043  31.0200  0.00  0.00     0.000 S
ATOM     11   O  IDS C   1     138.281  47.815  30.5850  0.00  0.00     0.000 OA
ATOM     12   O  IDS C   1     138.028  49.879  31.8090  0.00  0.00     0.000 OA
ATOM     13   O  IDS C   1     139.546  49.761  29.9380  0.00  0.00     0.000 OA
ENDBRANCH 2 9
BRANCH 5 14
ATOM     14   C  IDS C   1     144.072  50.941  35.1640  0.00  0.00     0.000 C
ATOM     15   O  IDS C   1     145.078  51.456  34.7410  0.00  0.00     0.000 OA
ATOM     16   O  IDS C   1     143.998  50.580  36.3270  0.00  0.00     0.000 OA
ENDBRANCH 5 14
BRANCH 1 17
ATOM     17  O4  SGN C   2     139.766  49.067  34.7740  0.00  0.00     0.000 O
BRANCH 17 21
ATOM     18  C1  SGN C   2     137.968  45.695  36.4850  0.00  0.00     0.000 C
ATOM     19  C2  SGN C   2     139.334  45.483  35.8210  0.00  0.00     0.000 C
ATOM     20  C3  SGN C   2     140.036  46.833  35.6330  0.00  0.00     0.000 C
ATOM     21  C4  SGN C   2     139.125  47.798  34.8820  0.00  0.00     0.000 C
ATOM     22  C5  SGN C   2     137.807  47.930  35.6390  0.00  0.00     0.000 C
ATOM     23  O5  SGN C   2     137.187  46.630  35.7700  0.00  0.00     0.000 O
ATOM     24   O  SGN C   2     141.260  46.648  34.9410  0.00  0.00     0.000 O
ATOM     26  HD  SGN C   2     140.730  46.976  35.5420  0.00  0.00     0.000 HD
BRANCH 19 28
ATOM     26   N  SGN C   2     139.770  44.225  36.4440  0.00  0.00     0.000 N
ATOM     28  HD  SGN C   2     138.906  44.158  36.4270  0.00  0.00     0.000 HD
ATOM     28   O  SGN C   2     141.470  42.410  36.6310  0.00  0.00     0.000 OA
ATOM     29   S  SGN C   2     140.475  43.049  35.6050  0.00  0.00     0.000 S
ATOM     30   O  SGN C   2     139.481  42.098  35.2860  0.00  0.00     0.000 OA
ATOM     31   O  SGN C   2     141.227  43.656  34.5610  0.00  0.00     0.000 OA
ENDBRANCH 19 28
BRANCH 22 32
ATOM     32   C  SGN C   2     136.806  48.823  34.9480  0.00  0.00     0.000 C
ATOM     33   S  SGN C   2     135.062  50.618  35.5610  0.00  0.00     0.000 S
ATOM     34   O  SGN C   2     134.114  49.636  36.0250  0.00  0.00     0.000 OA
ATOM     35   O  SGN C   2     135.093  51.821  36.3660  0.00  0.00     0.000 OA
ATOM     36   O  SGN C   2     134.995  50.877  34.1420  0.00  0.00     0.000 OA
ATOM     37   O  SGN C   2     136.484  49.932  35.7950  0.00  0.00     0.000 O
ENDBRANCH 22 32
BRANCH 18 38
ATOM     38  O4  IDS C   3     137.657  45.923  37.7630  0.00  0.00     0.000 O
BRANCH 38 42
ATOM     39  C1  IDS C   3     136.486  46.049  41.0400  0.00  0.00     0.000 C
ATOM     40  C2  IDS C   3     135.699  46.702  39.8920  0.00  0.00     0.000 C
ATOM     41  C3  IDS C   3     136.588  47.640  39.0760  0.00  0.00     0.000 C
ATOM     42  C4  IDS C   3     137.905  46.969  38.7080  0.00  0.00     0.000 C
ATOM     43  C5  IDS C   3     138.564  46.392  39.9670  0.00  0.00     0.000 C
ATOM     44  O5  IDS C   3     137.678  45.447  40.5650  0.00  0.00     0.000 O
ATOM     45   O  IDS C   3     136.846  48.825  39.8320  0.00  0.00     0.000 O
ATOM     47  HD  IDS C   3     137.172  48.992  40.6160  0.00  0.00     0.000 HD
BRANCH 40 47
ATOM     47   O  IDS C   3     135.175  45.669  38.9680  0.00  0.00     0.000 O
ATOM     48   S  IDS C   3     133.740  45.017  39.2350  0.00  0.00     0.000 S
ATOM     49   O  IDS C   3     133.930  44.064  40.3080  0.00  0.00     0.000 OA
ATOM     50   O  IDS C   3     133.373  44.380  37.9890  0.00  0.00     0.000 OA
ATOM     51   O  IDS C   3     132.863  46.097  39.5990  0.00  0.00     0.000 OA
ENDBRANCH 40 47
BRANCH 43 52
ATOM     52   C  IDS C   3     139.894  45.732  39.6810  0.00  0.00     0.000 C
ATOM     53   O  IDS C   3     140.187  44.699  40.2390  0.00  0.00     0.000 OA
ATOM     54   O  IDS C   3     140.657  46.239  38.8990  0.00  0.00     0.000 OA
ENDBRANCH 43 52
BRANCH 39 55
ATOM     55  O4  SGN C   4     136.595  46.582  42.2570  0.00  0.00     0.000 O
BRANCH 55 59
ATOM     56  C1  SGN C   4     136.934  46.305  46.4180  0.00  0.00     0.000 C
ATOM     57  C2  SGN C   4     138.233  46.141  45.6100  0.00  0.00     0.000 C
ATOM     58  C3  SGN C   4     138.049  46.647  44.1820  0.00  0.00     0.000 C
ATOM     59  C4  SGN C   4     136.812  46.024  43.5460  0.00  0.00     0.000 C
ATOM     60  C5  SGN C   4     135.607  46.298  44.4430  0.00  0.00     0.000 C
ATOM     61  O5  SGN C   4     135.854  45.696  45.7290  0.00  0.00     0.000 O
ATOM     62   O  SGN C   4     139.211  46.349  43.4190  0.00  0.00     0.000 O
ATOM     64  HD  SGN C   4     139.500  46.428  44.2310  0.00  0.00     0.000 HD
BRANCH 57 66
ATOM     64   N  SGN C   4     138.837  45.593  46.8350  0.00  0.00     0.000 N
ATOM     66  HD  SGN C   4     139.554  45.149  47.0340  0.00  0.00     0.000 HD
ATOM     66   S  SGN C   4     140.339  45.959  47.2330  0.00  0.00     0.000 S
ATOM     67   O  SGN C   4     140.653  45.240  48.4130  0.00  0.00     0.000 OA
ATOM     68   O  SGN C   4     141.135  45.775  46.0690  0.00  0.00     0.000 OA
ATOM     69   O  SGN C   4     140.274  47.486  47.5580  0.00  0.00     0.000 OA
ENDBRANCH 57 66
BRANCH 60 70
ATOM     70   C  SGN C   4     134.308  45.734  43.9100  0.00  0.00     0.000 C
ATOM     71   O  SGN C   4     132.861  42.342  44.6250  0.00  0.00     0.000 OA
ATOM     72   O  SGN C   4     132.216  44.457  45.6050  0.00  0.00     0.000 OA
ATOM     73   O  SGN C   4     134.194  44.335  44.2350  0.00  0.00     0.000 O
ATOM     74   S  SGN C   4     132.713  43.767  44.4360  0.00  0.00     0.000 S
ATOM     75   O  SGN C   4     132.013  44.119  43.2170  0.00  0.00     0.000 OA
ENDBRANCH 60 70
BRANCH 56 76
ATOM     76  O4  IDS C   5     136.419  47.246  47.2310  0.00  0.00     0.000 O
BRANCH 76 80
ATOM     77  C1  IDS C   5     134.082  45.819  50.2580  0.00  0.00     0.000 C
ATOM     78  C2  IDS C   5     133.313  46.525  49.1420  0.00  0.00     0.000 C
ATOM     79  C3  IDS C   5     134.178  46.617  47.9000  0.00  0.00     0.000 C
ATOM     80  C4  IDS C   5     135.375  47.521  48.1770  0.00  0.00     0.000 C
ATOM     81  C5  IDS C   5     135.873  47.282  49.6100  0.00  0.00     0.000 C
ATOM     82  O5  IDS C   5     135.487  45.981  50.0650  0.00  0.00     0.000 O
BRANCH 78 83
ATOM     83   O  IDS C   5     132.081  45.777  48.8000  0.00  0.00     0.000 O
ATOM     84   S  IDS C   5     130.654  46.448  49.0380  0.00  0.00     0.000 S
ATOM     85   O  IDS C   5     130.681  46.971  50.3780  0.00  0.00     0.000 OA
ATOM     86   O  IDS C   5     130.546  47.476  48.0300  0.00  0.00     0.000 OA
ATOM     87   O  IDS C   5     129.689  45.390  48.8590  0.00  0.00     0.000 OA
ENDBRANCH 78 83
BRANCH 81 88
ATOM     88   C  IDS C   5     137.378  47.393  49.7660  0.00  0.00     0.000 C
ATOM     89   O  IDS C   5     138.039  46.402  49.9230  0.00  0.00     0.000 OA
ATOM     90   O  IDS C   5     137.905  48.482  49.7300  0.00  0.00     0.000 OA
ENDBRANCH 81 88
ENDBRANCH 76 80
ENDBRANCH 56 76
ENDBRANCH 55 59
ENDBRANCH 39 55
ENDBRANCH 38 42
ENDBRANCH 18 38
ENDBRANCH 17 21
ENDBRANCH 1 17
TORSDOF 18
ENDMDL
MODEL 82
REMARK VINA RESULT:      -3.3      8.768     15.584
ROOT
ATOM      1  C1  IDS C   1     151.864  37.185  32.9770  0.00  0.00     0.000 C
ATOM      2  C2  IDS C   1     152.367  38.607  32.7150  0.00  0.00     0.000 C
ATOM      3  C3  IDS C   1     152.934  38.729  31.3080  0.00  0.00     0.000 C
ATOM      4  C4  IDS C   1     154.078  37.745  31.1030  0.00  0.00     0.000 C
ATOM      5  C5  IDS C   1     153.756  36.419  31.7840  0.00  0.00     0.000 C
ATOM      6  O5  IDS C   1     152.347  36.296  31.9780  0.00  0.00     0.000 O
ATOM      7   O  IDS C   1     153.394  40.069  31.0850  0.00  0.00     0.000 O
ATOM      9  HD  IDS C   1     152.854  40.613  31.4880  0.00  0.00     0.000 HD
ENDROOT
BRANCH 2 9
ATOM      9   O  IDS C   1     151.264  39.587  32.8380  0.00  0.00     0.000 O
ATOM     10   S  IDS C   1     151.407  40.802  33.8620  0.00  0.00     0.000 S
ATOM     11   O  IDS C   1     150.189  41.571  33.7360  0.00  0.00     0.000 OA
ATOM     12   O  IDS C   1     151.557  40.194  35.1690  0.00  0.00     0.000 OA
ATOM     13   O  IDS C   1     152.580  41.536  33.4430  0.00  0.00     0.000 OA
ENDBRANCH 2 9
BRANCH 5 14
ATOM     14   C  IDS C   1     154.236  35.227  30.9730  0.00  0.00     0.000 C
ATOM     15   O  IDS C   1     153.443  34.598  30.3160  0.00  0.00     0.000 OA
ATOM     16   O  IDS C   1     155.415  34.915  30.9950  0.00  0.00     0.000 OA
ENDBRANCH 5 14
BRANCH 1 17
ATOM     17  O4  SGN C   2     150.711  36.924  33.6010  0.00  0.00     0.000 O
BRANCH 17 21
ATOM     18  C1  SGN C   2     146.983  35.041  33.8870  0.00  0.00     0.000 C
ATOM     19  C2  SGN C   2     147.857  34.655  32.6870  0.00  0.00     0.000 C
ATOM     20  C3  SGN C   2     149.308  35.081  32.9430  0.00  0.00     0.000 C
ATOM     21  C4  SGN C   2     149.366  36.561  33.3020  0.00  0.00     0.000 C
ATOM     22  C5  SGN C   2     148.465  36.818  34.5060  0.00  0.00     0.000 C
ATOM     23  O5  SGN C   2     147.111  36.413  34.1990  0.00  0.00     0.000 O
ATOM     24   O  SGN C   2     150.101  34.804  31.8010  0.00  0.00     0.000 O
ATOM     26  HD  SGN C   2     149.911  34.842  32.6450  0.00  0.00     0.000 HD
BRANCH 19 28
ATOM     26   N  SGN C   2     147.262  33.371  32.2930  0.00  0.00     0.000 N
ATOM     28  HD  SGN C   2     146.595  33.814  32.6240  0.00  0.00     0.000 HD
ATOM     28   O  SGN C   2     147.218  31.426  30.7320  0.00  0.00     0.000 OA
ATOM     29   S  SGN C   2     147.009  32.978  30.7540  0.00  0.00     0.000 S
ATOM     30   O  SGN C   2     145.656  33.256  30.4600  0.00  0.00     0.000 OA
ATOM     31   O  SGN C   2     148.036  33.584  29.9800  0.00  0.00     0.000 OA
ENDBRANCH 19 28
BRANCH 22 32
ATOM     32   C  SGN C   2     148.404  38.270  34.9100  0.00  0.00     0.000 C
ATOM     33   S  SGN C   2     148.355  39.683  37.0640  0.00  0.00     0.000 S
ATOM     34   O  SGN C   2     146.966  39.386  37.3100  0.00  0.00     0.000 OA
ATOM     35   O  SGN C   2     149.163  39.718  38.2660  0.00  0.00     0.000 OA
ATOM     36   O  SGN C   2     148.571  40.815  36.1940  0.00  0.00     0.000 OA
ATOM     37   O  SGN C   2     148.890  38.419  36.2490  0.00  0.00     0.000 O
ENDBRANCH 22 32
BRANCH 18 38
ATOM     38  O4  IDS C   3     146.842  34.451  35.0760  0.00  0.00     0.000 O
BRANCH 38 42
ATOM     39  C1  IDS C   3     145.024  35.191  37.9520  0.00  0.00     0.000 C
ATOM     40  C2  IDS C   3     146.347  34.413  38.0300  0.00  0.00     0.000 C
ATOM     41  C3  IDS C   3     146.340  33.213  37.0840  0.00  0.00     0.000 C
ATOM     42  C4  IDS C   3     145.861  33.611  35.6940  0.00  0.00     0.000 C
ATOM     43  C5  IDS C   3     144.525  34.356  35.7980  0.00  0.00     0.000 C
ATOM     44  O5  IDS C   3     144.700  35.515  36.6110  0.00  0.00     0.000 O
ATOM     45   O  IDS C   3     145.487  32.197  37.6150  0.00  0.00     0.000 O
ATOM     47  HD  IDS C   3     144.660  32.163  37.8690  0.00  0.00     0.000 HD
BRANCH 40 47
ATOM     47   O  IDS C   3     147.484  35.280  37.6400  0.00  0.00     0.000 O
ATOM     48   S  IDS C   3     148.515  35.789  38.7530  0.00  0.00     0.000 S
ATOM     49   O  IDS C   3     147.843  36.861  39.4550  0.00  0.00     0.000 OA
ATOM     50   O  IDS C   3     149.672  36.250  38.0170  0.00  0.00     0.000 OA
ATOM     51   O  IDS C   3     148.794  34.658  39.5960  0.00  0.00     0.000 OA
ENDBRANCH 40 47
BRANCH 43 52
ATOM     52   C  IDS C   3     143.972  34.759  34.4490  0.00  0.00     0.000 C
ATOM     53   O  IDS C   3     143.821  33.926  33.5860  0.00  0.00     0.000 OA
ATOM     54   O  IDS C   3     143.685  35.910  34.2420  0.00  0.00     0.000 OA
ENDBRANCH 43 52
BRANCH 39 55
ATOM     55  O4  SGN C   4     143.965  34.925  38.7170  0.00  0.00     0.000 O
BRANCH 55 59
ATOM     56  C1  SGN C   4     144.352  36.294  42.6520  0.00  0.00     0.000 C
ATOM     57  C2  SGN C   4     144.086  34.790  42.4700  0.00  0.00     0.000 C
ATOM     58  C3  SGN C   4     144.358  34.362  41.0310  0.00  0.00     0.000 C
ATOM     59  C4  SGN C   4     143.620  35.268  40.0520  0.00  0.00     0.000 C
ATOM     60  C5  SGN C   4     144.011  36.717  40.3350  0.00  0.00     0.000 C
ATOM     61  O5  SGN C   4     143.624  37.035  41.6860  0.00  0.00     0.000 O
ATOM     62   O  SGN C   4     143.965  33.008  40.8540  0.00  0.00     0.000 O
ATOM     64  HD  SGN C   4     144.176  33.065  41.6920  0.00  0.00     0.000 HD
BRANCH 57 66
ATOM     64   N  SGN C   4     144.821  34.497  43.7110  0.00  0.00     0.000 N
ATOM     66  HD  SGN C   4     144.657  34.541  44.5610  0.00  0.00     0.000 HD
ATOM     66   S  SGN C   4     144.200  33.521  44.8110  0.00  0.00     0.000 S
ATOM     67   O  SGN C   4     145.101  33.485  45.9050  0.00  0.00     0.000 OA
ATOM     68   O  SGN C   4     142.857  33.935  45.0240  0.00  0.00     0.000 OA
ATOM     69   O  SGN C   4     144.187  32.127  44.1040  0.00  0.00     0.000 OA
ENDBRANCH 57 66
BRANCH 60 70
ATOM     70   C  SGN C   4     143.346  37.720  39.4160  0.00  0.00     0.000 C
ATOM     71   O  SGN C   4     142.369  41.247  40.2560  0.00  0.00     0.000 OA
ATOM     72   O  SGN C   4     144.305  40.512  39.0090  0.00  0.00     0.000 OA
ATOM     73   O  SGN C   4     142.941  38.889  40.1530  0.00  0.00     0.000 O
ATOM     74   S  SGN C   4     142.921  40.270  39.3470  0.00  0.00     0.000 S
ATOM     75   O  SGN C   4     142.082  40.013  38.1940  0.00  0.00     0.000 OA
ENDBRANCH 60 70
BRANCH 56 76
ATOM     76  O4  IDS C   5     145.400  37.046  43.0360  0.00  0.00     0.000 O
BRANCH 76 80
ATOM     77  C1  IDS C   5     148.691  38.864  44.6250  0.00  0.00     0.000 C
ATOM     78  C2  IDS C   5     147.935  37.959  45.5970  0.00  0.00     0.000 C
ATOM     79  C3  IDS C   5     147.031  37.017  44.8260  0.00  0.00     0.000 C
ATOM     80  C4  IDS C   5     145.943  37.818  44.1180  0.00  0.00     0.000 C
ATOM     81  C5  IDS C   5     146.540  39.132  43.5920  0.00  0.00     0.000 C
ATOM     82  O5  IDS C   5     147.954  39.004  43.4110  0.00  0.00     0.000 O
BRANCH 78 83
ATOM     83   O  IDS C   5     148.879  37.148  46.4010  0.00  0.00     0.000 O
ATOM     84   S  IDS C   5     150.088  36.395  45.6830  0.00  0.00     0.000 S
ATOM     85   O  IDS C   5     149.512  35.701  44.5630  0.00  0.00     0.000 OA
ATOM     86   O  IDS C   5     151.006  37.439  45.2930  0.00  0.00     0.000 OA
ATOM     87   O  IDS C   5     150.643  35.510  46.6780  0.00  0.00     0.000 OA
ENDBRANCH 78 83
BRANCH 81 88
ATOM     88   C  IDS C   5     145.950  39.591  42.2710  0.00  0.00     0.000 C
ATOM     89   O  IDS C   5     146.510  39.328  41.2410  0.00  0.00     0.000 OA
ATOM     90   O  IDS C   5     144.916  40.220  42.2640  0.00  0.00     0.000 OA
ENDBRANCH 81 88
ENDBRANCH 76 80
ENDBRANCH 56 76
ENDBRANCH 55 59
ENDBRANCH 39 55
ENDBRANCH 38 42
ENDBRANCH 18 38
ENDBRANCH 17 21
ENDBRANCH 1 17
TORSDOF 18
ENDMDL
MODEL 83
REMARK VINA RESULT:      -3.2     10.491     16.400
ROOT
ATOM      1  C1  IDS C   1     167.430  43.154  45.0630  0.00  0.00     0.000 C
ATOM      2  C2  IDS C   1     167.003  44.330  44.1800  0.00  0.00     0.000 C
ATOM      3  C3  IDS C   1     168.007  45.470  44.2760  0.00  0.00     0.000 C
ATOM      4  C4  IDS C   1     168.143  45.946  45.7150  0.00  0.00     0.000 C
ATOM      5  C5  IDS C   1     168.109  44.754  46.6670  0.00  0.00     0.000 C
ATOM      6  O5  IDS C   1     168.450  43.557  45.9670  0.00  0.00     0.000 O
ATOM      7   O  IDS C   1     167.589  46.556  43.4380  0.00  0.00     0.000 O
ATOM      9  HD  IDS C   1     167.228  46.226  42.7230  0.00  0.00     0.000 HD
ENDROOT
BRANCH 2 9
ATOM      9   O  IDS C   1     166.926  43.921  42.7590  0.00  0.00     0.000 O
ATOM     10   S  IDS C   1     165.559  44.116  41.9610  0.00  0.00     0.000 S
ATOM     11   O  IDS C   1     165.813  43.641  40.6190  0.00  0.00     0.000 OA
ATOM     12   O  IDS C   1     164.579  43.316  42.6670  0.00  0.00     0.000 OA
ATOM     13   O  IDS C   1     165.271  45.532  42.0100  0.00  0.00     0.000 OA
ENDBRANCH 2 9
BRANCH 5 14
ATOM     14   C  IDS C   1     169.070  44.922  47.8310  0.00  0.00     0.000 C
ATOM     15   O  IDS C   1     169.049  44.125  48.7380  0.00  0.00     0.000 OA
ATOM     16   O  IDS C   1     169.850  45.858  47.8420  0.00  0.00     0.000 OA
ENDBRANCH 5 14
BRANCH 1 17
ATOM     17  O4  SGN C   2     167.356  41.881  44.6650  0.00  0.00     0.000 O
BRANCH 17 21
ATOM     18  C1  SGN C   2     169.013  38.373  43.0910  0.00  0.00     0.000 C
ATOM     19  C2  SGN C   2     169.983  39.530  43.3600  0.00  0.00     0.000 C
ATOM     20  C3  SGN C   2     169.329  40.548  44.3020  0.00  0.00     0.000 C
ATOM     21  C4  SGN C   2     167.979  40.987  43.7460  0.00  0.00     0.000 C
ATOM     22  C5  SGN C   2     167.106  39.755  43.5270  0.00  0.00     0.000 C
ATOM     23  O5  SGN C   2     167.767  38.842  42.6200  0.00  0.00     0.000 O
ATOM     24   O  SGN C   2     170.189  41.661  44.4820  0.00  0.00     0.000 O
ATOM     26  HD  SGN C   2     169.633  41.041  44.7200  0.00  0.00     0.000 HD
BRANCH 19 28
ATOM     26   N  SGN C   2     171.272  38.827  43.4030  0.00  0.00     0.000 N
ATOM     28  HD  SGN C   2     170.804  38.363  42.8410  0.00  0.00     0.000 HD
ATOM     28   O  SGN C   2     173.752  38.923  43.6570  0.00  0.00     0.000 OA
ATOM     29   S  SGN C   2     172.600  39.424  42.7210  0.00  0.00     0.000 S
ATOM     30   O  SGN C   2     172.744  38.808  41.4580  0.00  0.00     0.000 OA
ATOM     31   O  SGN C   2     172.529  40.841  42.8070  0.00  0.00     0.000 OA
ENDBRANCH 19 28
BRANCH 22 32
ATOM     32   C  SGN C   2     165.762  40.074  42.9210  0.00  0.00     0.000 C
ATOM     33   S  SGN C   2     163.367  39.120  42.9060  0.00  0.00     0.000 S
ATOM     34   O  SGN C   2     163.718  38.069  41.9840  0.00  0.00     0.000 OA
ATOM     35   O  SGN C   2     162.441  38.703  43.9380  0.00  0.00     0.000 OA
ATOM     36   O  SGN C   2     162.997  40.363  42.2700  0.00  0.00     0.000 OA
ATOM     37   O  SGN C   2     164.728  39.435  43.6800  0.00  0.00     0.000 O
ENDBRANCH 22 32
BRANCH 18 38
ATOM     38  O4  IDS C   3     168.697  37.320  43.8490  0.00  0.00     0.000 O
BRANCH 38 42
ATOM     39  C1  IDS C   3     168.535  34.969  46.4120  0.00  0.00     0.000 C
ATOM     40  C2  IDS C   3     169.888  35.476  45.8880  0.00  0.00     0.000 C
ATOM     41  C3  IDS C   3     169.976  35.343  44.3680  0.00  0.00     0.000 C
ATOM     42  C4  IDS C   3     168.729  35.897  43.6930  0.00  0.00     0.000 C
ATOM     43  C5  IDS C   3     167.477  35.273  44.3210  0.00  0.00     0.000 C
ATOM     44  O5  IDS C   3     167.457  35.571  45.7160  0.00  0.00     0.000 O
ATOM     45   O  IDS C   3     170.141  33.967  44.0220  0.00  0.00     0.000 O
ATOM     47  HD  IDS C   3     169.703  33.238  44.1880  0.00  0.00     0.000 HD
BRANCH 40 47
ATOM     47   O  IDS C   3     170.070  36.909  46.2200  0.00  0.00     0.000 O
ATOM     48   S  IDS C   3     171.495  37.436  46.7190  0.00  0.00     0.000 S
ATOM     49   O  IDS C   3     171.608  37.025  48.1020  0.00  0.00     0.000 OA
ATOM     50   O  IDS C   3     171.443  38.874  46.5710  0.00  0.00     0.000 OA
ATOM     51   O  IDS C   3     172.477  36.815  45.8710  0.00  0.00     0.000 OA
ENDBRANCH 40 47
BRANCH 43 52
ATOM     52   C  IDS C   3     166.196  35.757  43.6790  0.00  0.00     0.000 C
ATOM     53   O  IDS C   3     165.412  36.418  44.3220  0.00  0.00     0.000 OA
ATOM     54   O  IDS C   3     165.963  35.483  42.5300  0.00  0.00     0.000 OA
ENDBRANCH 43 52
BRANCH 39 55
ATOM     55  O4  SGN C   4     168.310  33.705  46.7720  0.00  0.00     0.000 O
BRANCH 55 59
ATOM     56  C1  SGN C   4     165.010  32.867  49.2040  0.00  0.00     0.000 C
ATOM     57  C2  SGN C   4     166.205  33.561  49.8810  0.00  0.00     0.000 C
ATOM     58  C3  SGN C   4     167.148  34.156  48.8380  0.00  0.00     0.000 C
ATOM     59  C4  SGN C   4     167.519  33.111  47.7910  0.00  0.00     0.000 C
ATOM     60  C5  SGN C   4     166.235  32.542  47.1900  0.00  0.00     0.000 C
ATOM     61  O5  SGN C   4     165.474  31.927  48.2480  0.00  0.00     0.000 O
ATOM     62   O  SGN C   4     168.312  34.657  49.4800  0.00  0.00     0.000 O
ATOM     64  HD  SGN C   4     167.690  34.721  50.0790  0.00  0.00     0.000 HD
BRANCH 57 66
ATOM     64   N  SGN C   4     165.387  34.335  50.8280  0.00  0.00     0.000 N
ATOM     66  HD  SGN C   4     164.894  34.159  51.5180  0.00  0.00     0.000 HD
ATOM     66   S  SGN C   4     165.622  34.203  52.4010  0.00  0.00     0.000 S
ATOM     67   O  SGN C   4     164.653  35.013  53.0450  0.00  0.00     0.000 OA
ATOM     68   O  SGN C   4     165.681  32.813  52.6980  0.00  0.00     0.000 OA
ATOM     69   O  SGN C   4     167.041  34.821  52.6170  0.00  0.00     0.000 OA
ENDBRANCH 57 66
BRANCH 60 70
ATOM     70   C  SGN C   4     166.473  31.494  46.1240  0.00  0.00     0.000 C
ATOM     71   O  SGN C   4     166.416  32.009  42.4040  0.00  0.00     0.000 OA
ATOM     72   O  SGN C   4     168.355  31.829  43.8380  0.00  0.00     0.000 OA
ATOM     73   O  SGN C   4     166.164  32.022  44.8190  0.00  0.00     0.000 O
ATOM     74   S  SGN C   4     166.991  31.420  43.5910  0.00  0.00     0.000 S
ATOM     75   O  SGN C   4     166.793  29.987  43.6780  0.00  0.00     0.000 OA
ENDBRANCH 60 70
BRANCH 56 76
ATOM     76  O4  IDS C   5     163.764  33.228  48.8490  0.00  0.00     0.000 O
BRANCH 76 80
ATOM     77  C1  IDS C   5     160.255  33.973  46.9020  0.00  0.00     0.000 C
ATOM     78  C2  IDS C   5     161.510  34.232  46.0690  0.00  0.00     0.000 C
ATOM     79  C3  IDS C   5     162.697  33.528  46.6960  0.00  0.00     0.000 C
ATOM     80  C4  IDS C   5     163.000  34.149  48.0560  0.00  0.00     0.000 C
ATOM     81  C5  IDS C   5     161.681  34.499  48.7600  0.00  0.00     0.000 C
ATOM     82  O5  IDS C   5     160.613  33.693  48.2550  0.00  0.00     0.000 O
BRANCH 78 83
ATOM     83   O  IDS C   5     161.337  33.722  44.6890  0.00  0.00     0.000 O
ATOM     84   S  IDS C   5     161.264  34.747  43.4680  0.00  0.00     0.000 S
ATOM     85   O  IDS C   5     160.314  35.754  43.8540  0.00  0.00     0.000 OA
ATOM     86   O  IDS C   5     162.607  35.258  43.3230  0.00  0.00     0.000 OA
ATOM     87   O  IDS C   5     160.840  33.969  42.3300  0.00  0.00     0.000 OA
ENDBRANCH 78 83
BRANCH 81 88
ATOM     88   C  IDS C   5     161.720  34.315  50.2670  0.00  0.00     0.000 C
ATOM     89   O  IDS C   5     161.155  33.382  50.7710  0.00  0.00     0.000 OA
ATOM     90   O  IDS C   5     162.322  35.110  50.9510  0.00  0.00     0.000 OA
ENDBRANCH 81 88
ENDBRANCH 76 80
ENDBRANCH 56 76
ENDBRANCH 55 59
ENDBRANCH 39 55
ENDBRANCH 38 42
ENDBRANCH 18 38
ENDBRANCH 17 21
ENDBRANCH 1 17
TORSDOF 18
ENDMDL
MODEL 84
REMARK VINA RESULT:      -3.0     14.704     21.709
ROOT
ATOM      1  C1  IDS C   1     146.470  33.890  25.8850  0.00  0.00     0.000 C
ATOM      2  C2  IDS C   1     145.948  33.630  24.4690  0.00  0.00     0.000 C
ATOM      3  C3  IDS C   1     146.945  34.117  23.4280  0.00  0.00     0.000 C
ATOM      4  C4  IDS C   1     147.216  35.605  23.5980  0.00  0.00     0.000 C
ATOM      5  C5  IDS C   1     147.285  35.958  25.0800  0.00  0.00     0.000 C
ATOM      6  O5  IDS C   1     147.570  34.790  25.8500  0.00  0.00     0.000 O
ATOM      7   O  IDS C   1     146.437  33.858  22.1110  0.00  0.00     0.000 O
ATOM      9  HD  IDS C   1     146.011  33.104  22.1270  0.00  0.00     0.000 HD
ENDROOT
BRANCH 2 9
ATOM      9   O  IDS C   1     145.737  32.182  24.2430  0.00  0.00     0.000 O
ATOM     10   S  IDS C   1     144.314  31.666  23.7430  0.00  0.00     0.000 S
ATOM     11   O  IDS C   1     144.437  30.232  23.6070  0.00  0.00     0.000 OA
ATOM     12   O  IDS C   1     143.374  32.056  24.7750  0.00  0.00     0.000 OA
ATOM     13   O  IDS C   1     144.073  32.331  22.4810  0.00  0.00     0.000 OA
ENDBRANCH 2 9
BRANCH 5 14
ATOM     14   C  IDS C   1     148.353  36.999  25.3720  0.00  0.00     0.000 C
ATOM     15   O  IDS C   1     148.587  37.855  24.5540  0.00  0.00     0.000 OA
ATOM     16   O  IDS C   1     148.965  36.959  26.4260  0.00  0.00     0.000 OA
ENDBRANCH 5 14
BRANCH 1 17
ATOM     17  O4  SGN C   2     146.371  32.996  26.8720  0.00  0.00     0.000 O
BRANCH 17 21
ATOM     18  C1  SGN C   2     147.814  30.105  29.5350  0.00  0.00     0.000 C
ATOM     19  C2  SGN C   2     148.862  30.986  28.8430  0.00  0.00     0.000 C
ATOM     20  C3  SGN C   2     148.188  32.232  28.2570  0.00  0.00     0.000 C
ATOM     21  C4  SGN C   2     147.027  31.826  27.3560  0.00  0.00     0.000 C
ATOM     22  C5  SGN C   2     146.056  30.963  28.1550  0.00  0.00     0.000 C
ATOM     23  O5  SGN C   2     146.744  29.798  28.6670  0.00  0.00     0.000 O
ATOM     24   O  SGN C   2     149.139  33.004  27.5420  0.00  0.00     0.000 O
ATOM     26  HD  SGN C   2     148.473  32.862  28.0780  0.00  0.00     0.000 HD
BRANCH 19 28
ATOM     26   N  SGN C   2     150.293  30.735  29.0630  0.00  0.00     0.000 N
ATOM     28  HD  SGN C   2     150.178  30.547  28.2260  0.00  0.00     0.000 HD
ATOM     28   O  SGN C   2     152.407  31.318  30.2520  0.00  0.00     0.000 OA
ATOM     29   S  SGN C   2     151.354  31.926  29.2660  0.00  0.00     0.000 S
ATOM     30   O  SGN C   2     151.979  32.155  28.0200  0.00  0.00     0.000 OA
ATOM     31   O  SGN C   2     150.682  32.994  29.9210  0.00  0.00     0.000 OA
ENDBRANCH 19 28
BRANCH 22 32
ATOM     32   C  SGN C   2     144.893  30.456  27.3370  0.00  0.00     0.000 C
ATOM     33   S  SGN C   2     143.731  28.221  26.7960  0.00  0.00     0.000 S
ATOM     34   O  SGN C   2     144.765  27.827  25.8730  0.00  0.00     0.000 OA
ATOM     35   O  SGN C   2     143.223  27.128  27.5990  0.00  0.00     0.000 OA
ATOM     36   O  SGN C   2     142.692  29.032  26.2060  0.00  0.00     0.000 OA
ATOM     37   O  SGN C   2     144.473  29.180  27.8340  0.00  0.00     0.000 O
ENDBRANCH 22 32
BRANCH 18 38
ATOM     38  O4  IDS C   3     147.235  30.234  30.7310  0.00  0.00     0.000 O
BRANCH 38 42
ATOM     39  C1  IDS C   3     146.671  30.658  34.1410  0.00  0.00     0.000 C
ATOM     40  C2  IDS C   3     147.781  29.724  33.6320  0.00  0.00     0.000 C
ATOM     41  C3  IDS C   3     147.238  28.725  32.6120  0.00  0.00     0.000 C
ATOM     42  C4  IDS C   3     146.392  29.421  31.5550  0.00  0.00     0.000 C
ATOM     43  C5  IDS C   3     145.326  30.291  32.2320  0.00  0.00     0.000 C
ATOM     44  O5  IDS C   3     145.971  31.256  33.0630  0.00  0.00     0.000 O
ATOM     45   O  IDS C   3     146.452  27.740  33.2860  0.00  0.00     0.000 O
ATOM     47  HD  IDS C   3     145.769  27.761  33.8190  0.00  0.00     0.000 HD
BRANCH 40 47
ATOM     47   O  IDS C   3     148.851  30.504  32.9660  0.00  0.00     0.000 O
ATOM     48   S  IDS C   3     149.765  31.496  33.8240  0.00  0.00     0.000 S
ATOM     49   O  IDS C   3     148.958  32.672  34.0650  0.00  0.00     0.000 OA
ATOM     50   O  IDS C   3     150.913  31.774  32.9890  0.00  0.00     0.000 OA
ATOM     51   O  IDS C   3     150.102  30.794  35.0340  0.00  0.00     0.000 OA
ENDBRANCH 40 47
BRANCH 43 52
ATOM     52   C  IDS C   3     144.427  30.995  31.2410  0.00  0.00     0.000 C
ATOM     53   O  IDS C   3     143.540  30.383  30.6920  0.00  0.00     0.000 OA
ATOM     54   O  IDS C   3     144.599  32.163  31.0020  0.00  0.00     0.000 OA
ENDBRANCH 43 52
BRANCH 39 55
ATOM     55  O4  SGN C   4     145.907  30.389  35.2010  0.00  0.00     0.000 O
BRANCH 55 59
ATOM     56  C1  SGN C   4     144.409  33.529  37.5240  0.00  0.00     0.000 C
ATOM     57  C2  SGN C   4     145.925  33.278  37.6030  0.00  0.00     0.000 C
ATOM     58  C3  SGN C   4     146.389  32.401  36.4430  0.00  0.00     0.000 C
ATOM     59  C4  SGN C   4     145.533  31.143  36.3450  0.00  0.00     0.000 C
ATOM     60  C5  SGN C   4     144.066  31.555  36.2400  0.00  0.00     0.000 C
ATOM     61  O5  SGN C   4     143.718  32.294  37.4280  0.00  0.00     0.000 O
ATOM     62   O  SGN C   4     147.758  32.063  36.6200  0.00  0.00     0.000 O
ATOM     64  HD  SGN C   4     147.670  32.827  37.0190  0.00  0.00     0.000 HD
BRANCH 57 66
ATOM     64   N  SGN C   4     146.154  34.705  37.8830  0.00  0.00     0.000 N
ATOM     66  HD  SGN C   4     146.090  35.225  38.5720  0.00  0.00     0.000 HD
ATOM     66   S  SGN C   4     147.118  35.154  39.0720  0.00  0.00     0.000 S
ATOM     67   O  SGN C   4     147.089  36.570  39.1320  0.00  0.00     0.000 OA
ATOM     68   O  SGN C   4     146.745  34.398  40.2180  0.00  0.00     0.000 OA
ATOM     69   O  SGN C   4     148.532  34.684  38.6020  0.00  0.00     0.000 OA
ENDBRANCH 57 66
BRANCH 60 70
ATOM     70   C  SGN C   4     143.111  30.386  36.1270  0.00  0.00     0.000 C
ATOM     71   O  SGN C   4     141.813  28.833  32.9630  0.00  0.00     0.000 OA
ATOM     72   O  SGN C   4     143.575  28.005  34.3970  0.00  0.00     0.000 OA
ATOM     73   O  SGN C   4     142.685  30.213  34.7620  0.00  0.00     0.000 O
ATOM     74   S  SGN C   4     142.324  28.723  34.3100  0.00  0.00     0.000 S
ATOM     75   O  SGN C   4     141.334  28.274  35.2690  0.00  0.00     0.000 OA
ENDBRANCH 60 70
BRANCH 56 76
ATOM     76  O4  IDS C   5     143.617  34.481  36.9970  0.00  0.00     0.000 O
BRANCH 76 80
ATOM     77  C1  IDS C   5     142.660  34.262  33.0350  0.00  0.00     0.000 C
ATOM     78  C2  IDS C   5     143.803  35.223  33.3590  0.00  0.00     0.000 C
ATOM     79  C3  IDS C   5     144.363  34.911  34.7330  0.00  0.00     0.000 C
ATOM     80  C4  IDS C   5     143.304  35.198  35.7930  0.00  0.00     0.000 C
ATOM     81  C5  IDS C   5     141.926  34.779  35.2620  0.00  0.00     0.000 C
ATOM     82  O5  IDS C   5     142.062  33.787  34.2410  0.00  0.00     0.000 O
BRANCH 78 83
ATOM     83   O  IDS C   5     144.896  35.091  32.3670  0.00  0.00     0.000 O
ATOM     84   S  IDS C   5     145.382  36.370  31.5480  0.00  0.00     0.000 S
ATOM     85   O  IDS C   5     144.189  36.992  31.0400  0.00  0.00     0.000 OA
ATOM     86   O  IDS C   5     146.085  37.189  32.5070  0.00  0.00     0.000 OA
ATOM     87   O  IDS C   5     146.247  35.864  30.5100  0.00  0.00     0.000 OA
ENDBRANCH 78 83
BRANCH 81 88
ATOM     88   C  IDS C   5     141.001  34.218  36.3260  0.00  0.00     0.000 C
ATOM     89   O  IDS C   5     140.718  33.050  36.3180  0.00  0.00     0.000 OA
ATOM     90   O  IDS C   5     140.554  34.951  37.1780  0.00  0.00     0.000 OA
ENDBRANCH 81 88
ENDBRANCH 76 80
ENDBRANCH 56 76
ENDBRANCH 55 59
ENDBRANCH 39 55
ENDBRANCH 38 42
ENDBRANCH 18 38
ENDBRANCH 17 21
ENDBRANCH 1 17
TORSDOF 18
ENDMDL
MODEL 85
REMARK VINA RESULT:      -3.0     10.304     19.130
ROOT
ATOM      1  C1  IDS C   1     134.450  46.824  43.2480  0.00  0.00     0.000 C
ATOM      2  C2  IDS C   1     133.381  47.888  42.9870  0.00  0.00     0.000 C
ATOM      3  C3  IDS C   1     132.328  47.877  44.0860  0.00  0.00     0.000 C
ATOM      4  C4  IDS C   1     131.664  46.510  44.1790  0.00  0.00     0.000 C
ATOM      5  C5  IDS C   1     132.700  45.409  43.9760  0.00  0.00     0.000 C
ATOM      6  O5  IDS C   1     134.009  45.912  44.2460  0.00  0.00     0.000 O
ATOM      7   O  IDS C   1     131.341  48.884  43.8220  0.00  0.00     0.000 O
ATOM      9  HD  IDS C   1     131.739  49.571  43.4750  0.00  0.00     0.000 HD
ENDROOT
BRANCH 2 9
ATOM      9   O  IDS C   1     133.981  49.241  42.9580  0.00  0.00     0.000 O
ATOM     10   S  IDS C   1     133.929  50.150  44.2680  0.00  0.00     0.000 S
ATOM     11   O  IDS C   1     134.601  51.383  43.9210  0.00  0.00     0.000 OA
ATOM     12   O  IDS C   1     132.522  50.336  44.5570  0.00  0.00     0.000 OA
ATOM     13   O  IDS C   1     134.622  49.402  45.2940  0.00  0.00     0.000 OA
ENDBRANCH 2 9
BRANCH 5 14
ATOM     14   C  IDS C   1     132.449  44.212  44.8770  0.00  0.00     0.000 C
ATOM     15   O  IDS C   1     133.184  43.257  44.8140  0.00  0.00     0.000 OA
ATOM     16   O  IDS C   1     131.507  44.225  45.6510  0.00  0.00     0.000 OA
ENDBRANCH 5 14
BRANCH 1 17
ATOM     17  O4  SGN C   2     135.757  47.048  43.0810  0.00  0.00     0.000 O
BRANCH 17 21
ATOM     18  C1  SGN C   2     139.532  47.873  44.6910  0.00  0.00     0.000 C
ATOM     19  C2  SGN C   2     138.355  47.855  45.6740  0.00  0.00     0.000 C
ATOM     20  C3  SGN C   2     137.157  47.139  45.0370  0.00  0.00     0.000 C
ATOM     21  C4  SGN C   2     136.828  47.766  43.6880  0.00  0.00     0.000 C
ATOM     22  C5  SGN C   2     138.069  47.721  42.8010  0.00  0.00     0.000 C
ATOM     23  O5  SGN C   2     139.156  48.424  43.4460  0.00  0.00     0.000 O
ATOM     24   O  SGN C   2     136.042  47.196  45.9100  0.00  0.00     0.000 O
ATOM     26  HD  SGN C   2     136.592  46.833  45.3490  0.00  0.00     0.000 HD
BRANCH 19 28
ATOM     26   N  SGN C   2     139.051  47.707  46.9600  0.00  0.00     0.000 N
ATOM     28  HD  SGN C   2     139.587  48.200  46.4910  0.00  0.00     0.000 HD
ATOM     28   O  SGN C   2     138.930  47.459  49.4390  0.00  0.00     0.000 OA
ATOM     29   S  SGN C   2     138.561  48.461  48.2930  0.00  0.00     0.000 S
ATOM     30   O  SGN C   2     139.349  49.624  48.4390  0.00  0.00     0.000 OA
ATOM     31   O  SGN C   2     137.145  48.575  48.2290  0.00  0.00     0.000 OA
ENDBRANCH 19 28
BRANCH 22 32
ATOM     32   C  SGN C   2     137.867  48.373  41.4550  0.00  0.00     0.000 C
ATOM     33   S  SGN C   2     136.156  49.898  40.2770  0.00  0.00     0.000 S
ATOM     34   O  SGN C   2     135.225  48.816  40.0780  0.00  0.00     0.000 OA
ATOM     35   O  SGN C   2     135.522  51.154  40.6190  0.00  0.00     0.000 OA
ATOM     36   O  SGN C   2     137.149  50.020  39.2360  0.00  0.00     0.000 OA
ATOM     37   O  SGN C   2     136.969  49.481  41.5860  0.00  0.00     0.000 O
ENDBRANCH 22 32
BRANCH 18 38
ATOM     38  O4  IDS C   3     140.402  46.913  44.3700  0.00  0.00     0.000 O
BRANCH 38 42
ATOM     39  C1  IDS C   3     143.084  44.709  44.0900  0.00  0.00     0.000 C
ATOM     40  C2  IDS C   3     142.540  45.455  42.8610  0.00  0.00     0.000 C
ATOM     41  C3  IDS C   3     141.030  45.266  42.7240  0.00  0.00     0.000 C
ATOM     42  C4  IDS C   3     140.321  45.521  44.0470  0.00  0.00     0.000 C
ATOM     43  C5  IDS C   3     140.975  44.687  45.1560  0.00  0.00     0.000 C
ATOM     44  O5  IDS C   3     142.352  45.045  45.2570  0.00  0.00     0.000 O
ATOM     45   O  IDS C   3     140.757  43.936  42.2790  0.00  0.00     0.000 O
ATOM     47  HD  IDS C   3     140.959  43.143  42.5620  0.00  0.00     0.000 HD
BRANCH 40 47
ATOM     47   O  IDS C   3     142.798  46.909  42.9790  0.00  0.00     0.000 O
ATOM     48   S  IDS C   3     143.904  47.599  42.0510  0.00  0.00     0.000 S
ATOM     49   O  IDS C   3     145.183  47.251  42.6320  0.00  0.00     0.000 OA
ATOM     50   O  IDS C   3     143.630  49.017  42.1240  0.00  0.00     0.000 OA
ATOM     51   O  IDS C   3     143.724  47.055  40.7310  0.00  0.00     0.000 OA
ENDBRANCH 40 47
BRANCH 43 52
ATOM     52   C  IDS C   3     140.303  44.868  46.4990  0.00  0.00     0.000 C
ATOM     53   O  IDS C   3     139.186  44.438  46.6770  0.00  0.00     0.000 OA
ATOM     54   O  IDS C   3     140.885  45.439  47.3860  0.00  0.00     0.000 OA
ENDBRANCH 43 52
BRANCH 39 55
ATOM     55  O4  SGN C   4     143.508  43.446  44.0600  0.00  0.00     0.000 O
BRANCH 55 59
ATOM     56  C1  SGN C   4     146.233  40.459  42.9820  0.00  0.00     0.000 C
ATOM     57  C2  SGN C   4     146.793  41.642  43.7900  0.00  0.00     0.000 C
ATOM     58  C3  SGN C   4     145.664  42.433  44.4460  0.00  0.00     0.000 C
ATOM     59  C4  SGN C   4     144.600  42.802  43.4190  0.00  0.00     0.000 C
ATOM     60  C5  SGN C   4     144.121  41.527  42.7280  0.00  0.00     0.000 C
ATOM     61  O5  SGN C   4     145.249  40.919  42.0690  0.00  0.00     0.000 O
ATOM     62   O  SGN C   4     146.195  43.600  45.0590  0.00  0.00     0.000 O
ATOM     64  HD  SGN C   4     146.847  43.030  45.0790  0.00  0.00     0.000 HD
BRANCH 57 66
ATOM     64   N  SGN C   4     147.798  40.861  44.5280  0.00  0.00     0.000 N
ATOM     66  HD  SGN C   4     148.526  40.435  44.3330  0.00  0.00     0.000 HD
ATOM     66   S  SGN C   4     149.348  41.227  44.4250  0.00  0.00     0.000 S
ATOM     67   O  SGN C   4     150.063  40.270  45.1880  0.00  0.00     0.000 OA
ATOM     68   O  SGN C   4     149.647  41.385  43.0440  0.00  0.00     0.000 OA
ATOM     69   O  SGN C   4     149.446  42.623  45.1210  0.00  0.00     0.000 OA
ENDBRANCH 57 66
BRANCH 60 70
ATOM     70   C  SGN C   4     143.049  41.763  41.6860  0.00  0.00     0.000 C
ATOM     71   O  SGN C   4     143.290  43.979  38.6630  0.00  0.00     0.000 OA
ATOM     72   O  SGN C   4     143.500  41.571  38.7460  0.00  0.00     0.000 OA
ATOM     73   O  SGN C   4     143.433  42.831  40.7990  0.00  0.00     0.000 O
ATOM     74   S  SGN C   4     142.876  42.751  39.3020  0.00  0.00     0.000 S
ATOM     75   O  SGN C   4     141.439  42.630  39.4480  0.00  0.00     0.000 OA
ENDBRANCH 60 70
BRANCH 56 76
ATOM     76  O4  IDS C   5     145.986  39.159  43.2260  0.00  0.00     0.000 O
BRANCH 76 80
ATOM     77  C1  IDS C   5     143.928  35.728  44.0320  0.00  0.00     0.000 C
ATOM     78  C2  IDS C   5     143.556  36.914  44.9210  0.00  0.00     0.000 C
ATOM     79  C3  IDS C   5     144.025  38.205  44.2780  0.00  0.00     0.000 C
ATOM     80  C4  IDS C   5     145.549  38.225  44.2240  0.00  0.00     0.000 C
ATOM     81  C5  IDS C   5     146.065  36.815  43.9020  0.00  0.00     0.000 C
ATOM     82  O5  IDS C   5     145.060  36.054  43.2250  0.00  0.00     0.000 O
BRANCH 78 83
ATOM     83   O  IDS C   5     142.088  36.989  45.1070  0.00  0.00     0.000 O
ATOM     84   S  IDS C   5     141.440  36.536  46.4920  0.00  0.00     0.000 S
ATOM     85   O  IDS C   5     142.015  35.253  46.7960  0.00  0.00     0.000 OA
ATOM     86   O  IDS C   5     141.812  37.563  47.4370  0.00  0.00     0.000 OA
ATOM     87   O  IDS C   5     140.018  36.483  46.2590  0.00  0.00     0.000 OA
ENDBRANCH 78 83
BRANCH 81 88
ATOM     88   C  IDS C   5     147.312  36.798  43.0360  0.00  0.00     0.000 C
ATOM     89   O  IDS C   5     147.223  36.548  41.8640  0.00  0.00     0.000 OA
ATOM     90   O  IDS C   5     148.388  37.039  43.5320  0.00  0.00     0.000 OA
ENDBRANCH 81 88
ENDBRANCH 76 80
ENDBRANCH 56 76
ENDBRANCH 55 59
ENDBRANCH 39 55
ENDBRANCH 38 42
ENDBRANCH 18 38
ENDBRANCH 17 21
ENDBRANCH 1 17
TORSDOF 18
ENDMDL
MODEL 86
REMARK VINA RESULT:      -3.0      9.647     14.180
ROOT
ATOM      1  C1  IDS C   1     152.424  38.820  38.8300  0.00  0.00     0.000 C
ATOM      2  C2  IDS C   1     152.793  40.304  38.9110  0.00  0.00     0.000 C
ATOM      3  C3  IDS C   1     154.022  40.603  38.0660  0.00  0.00     0.000 C
ATOM      4  C4  IDS C   1     155.207  39.765  38.5260  0.00  0.00     0.000 C
ATOM      5  C5  IDS C   1     154.743  38.359  38.8940  0.00  0.00     0.000 C
ATOM      6  O5  IDS C   1     153.494  38.074  38.2640  0.00  0.00     0.000 O
ATOM      7   O  IDS C   1     154.344  41.998  38.1540  0.00  0.00     0.000 O
ATOM      9  HD  IDS C   1     153.605  42.446  38.1920  0.00  0.00     0.000 HD
ENDROOT
BRANCH 2 9
ATOM      9   O  IDS C   1     151.687  41.150  38.4060  0.00  0.00     0.000 O
ATOM     10   S  IDS C   1     151.673  41.587  36.8730  0.00  0.00     0.000 S
ATOM     11   O  IDS C   1     150.477  42.381  36.6980  0.00  0.00     0.000 OA
ATOM     12   O  IDS C   1     152.890  42.348  36.6730  0.00  0.00     0.000 OA
ATOM     13   O  IDS C   1     151.646  40.357  36.1120  0.00  0.00     0.000 OA
ENDBRANCH 2 9
BRANCH 5 14
ATOM     14   C  IDS C   1     155.746  37.297  38.4790  0.00  0.00     0.000 C
ATOM     15   O  IDS C   1     156.110  37.241  37.3290  0.00  0.00     0.000 OA
ATOM     16   O  IDS C   1     156.172  36.510  39.3070  0.00  0.00     0.000 OA
ENDBRANCH 5 14
BRANCH 1 17
ATOM     17  O4  SGN C   2     151.167  38.389  38.6970  0.00  0.00     0.000 O
BRANCH 17 21
ATOM     18  C1  SGN C   2     147.962  36.858  36.4800  0.00  0.00     0.000 C
ATOM     19  C2  SGN C   2     149.312  36.956  35.7580  0.00  0.00     0.000 C
ATOM     20  C3  SGN C   2     150.439  37.118  36.7850  0.00  0.00     0.000 C
ATOM     21  C4  SGN C   2     150.144  38.293  37.7090  0.00  0.00     0.000 C
ATOM     22  C5  SGN C   2     148.785  38.079  38.3680  0.00  0.00     0.000 C
ATOM     23  O5  SGN C   2     147.763  37.951  37.3530  0.00  0.00     0.000 O
ATOM     24   O  SGN C   2     151.678  37.295  36.1180  0.00  0.00     0.000 O
ATOM     26  HD  SGN C   2     151.138  36.983  36.7180  0.00  0.00     0.000 HD
BRANCH 19 28
ATOM     26   N  SGN C   2     149.099  36.056  34.6160  0.00  0.00     0.000 N
ATOM     28  HD  SGN C   2     148.329  36.436  34.7250  0.00  0.00     0.000 HD
ATOM     28   O  SGN C   2     150.008  34.932  32.5830  0.00  0.00     0.000 OA
ATOM     29   S  SGN C   2     149.710  36.358  33.1600  0.00  0.00     0.000 S
ATOM     30   O  SGN C   2     148.691  36.955  32.3850  0.00  0.00     0.000 OA
ATOM     31   O  SGN C   2     150.945  37.040  33.3430  0.00  0.00     0.000 OA
ENDBRANCH 19 28
BRANCH 22 32
ATOM     32   C  SGN C   2     148.367  39.220  39.2640  0.00  0.00     0.000 C
ATOM     33   S  SGN C   2     147.745  39.619  41.7330  0.00  0.00     0.000 S
ATOM     34   O  SGN C   2     146.430  39.052  41.5640  0.00  0.00     0.000 OA
ATOM     35   O  SGN C   2     148.365  39.280  42.9970  0.00  0.00     0.000 OA
ATOM     36   O  SGN C   2     147.827  41.024  41.4100  0.00  0.00     0.000 OA
ATOM     37   O  SGN C   2     148.634  38.883  40.6300  0.00  0.00     0.000 O
ENDBRANCH 22 32
BRANCH 18 38
ATOM     38  O4  IDS C   3     147.397  35.829  37.1150  0.00  0.00     0.000 O
BRANCH 38 42
ATOM     39  C1  IDS C   3     144.528  34.428  38.5070  0.00  0.00     0.000 C
ATOM     40  C2  IDS C   3     145.925  34.056  39.0290  0.00  0.00     0.000 C
ATOM     41  C3  IDS C   3     146.842  33.614  37.8900  0.00  0.00     0.000 C
ATOM     42  C4  IDS C   3     146.787  34.594  36.7260  0.00  0.00     0.000 C
ATOM     43  C5  IDS C   3     145.328  34.836  36.3200  0.00  0.00     0.000 C
ATOM     44  O5  IDS C   3     144.613  35.357  37.4390  0.00  0.00     0.000 O
ATOM     45   O  IDS C   3     146.451  32.314  37.4450  0.00  0.00     0.000 O
ATOM     47  HD  IDS C   3     145.713  31.961  37.1580  0.00  0.00     0.000 HD
BRANCH 40 47
ATOM     47   O  IDS C   3     146.562  35.222  39.6860  0.00  0.00     0.000 O
ATOM     48   S  IDS C   3     147.023  35.121  41.2150  0.00  0.00     0.000 S
ATOM     49   O  IDS C   3     145.815  35.244  42.0020  0.00  0.00     0.000 OA
ATOM     50   O  IDS C   3     147.929  36.231  41.4130  0.00  0.00     0.000 OA
ATOM     51   O  IDS C   3     147.657  33.838  41.3640  0.00  0.00     0.000 OA
ENDBRANCH 40 47
BRANCH 43 52
ATOM     52   C  IDS C   3     145.195  35.782  35.1470  0.00  0.00     0.000 C
ATOM     53   O  IDS C   3     145.832  35.584  34.1380  0.00  0.00     0.000 OA
ATOM     54   O  IDS C   3     144.454  36.728  35.2240  0.00  0.00     0.000 OA
ENDBRANCH 43 52
BRANCH 39 55
ATOM     55  O4  SGN C   4     143.527  33.556  38.3890  0.00  0.00     0.000 O
BRANCH 55 59
ATOM     56  C1  SGN C   4     140.300  34.393  40.9170  0.00  0.00     0.000 C
ATOM     57  C2  SGN C   4     141.143  33.153  41.2650  0.00  0.00     0.000 C
ATOM     58  C3  SGN C   4     142.481  33.186  40.5320  0.00  0.00     0.000 C
ATOM     59  C4  SGN C   4     142.272  33.423  39.0410  0.00  0.00     0.000 C
ATOM     60  C5  SGN C   4     141.453  34.699  38.8570  0.00  0.00     0.000 C
ATOM     61  O5  SGN C   4     140.180  34.518  39.5090  0.00  0.00     0.000 O
ATOM     62   O  SGN C   4     143.174  31.964  40.7520  0.00  0.00     0.000 O
ATOM     64  HD  SGN C   4     142.681  32.064  41.4570  0.00  0.00     0.000 HD
BRANCH 57 66
ATOM     64   N  SGN C   4     140.491  32.046  41.9810  0.00  0.00     0.000 N
ATOM     66  HD  SGN C   4     140.696  31.519  42.6380  0.00  0.00     0.000 HD
ATOM     66   S  SGN C   4     140.342  32.083  43.5700  0.00  0.00     0.000 S
ATOM     67   O  SGN C   4     139.737  30.864  43.9680  0.00  0.00     0.000 OA
ATOM     68   O  SGN C   4     141.613  32.438  44.0990  0.00  0.00     0.000 OA
ATOM     69   O  SGN C   4     139.348  33.262  43.8210  0.00  0.00     0.000 OA
ENDBRANCH 57 66
BRANCH 60 70
ATOM     70   C  SGN C   4     141.185  35.050  37.4100  0.00  0.00     0.000 C
ATOM     71   O  SGN C   4     138.447  33.690  35.2290  0.00  0.00     0.000 OA
ATOM     72   O  SGN C   4     138.516  35.835  36.3430  0.00  0.00     0.000 OA
ATOM     73   O  SGN C   4     140.184  34.175  36.8550  0.00  0.00     0.000 O
ATOM     74   S  SGN C   4     139.267  34.784  35.6960  0.00  0.00     0.000 S
ATOM     75   O  SGN C   4     140.202  35.271  34.7010  0.00  0.00     0.000 OA
ENDBRANCH 60 70
BRANCH 56 76
ATOM     76  O4  IDS C   5     140.122  35.615  41.4500  0.00  0.00     0.000 O
BRANCH 76 80
ATOM     77  C1  IDS C   5     143.201  37.906  42.8400  0.00  0.00     0.000 C
ATOM     78  C2  IDS C   5     142.563  36.996  43.8890  0.00  0.00     0.000 C
ATOM     79  C3  IDS C   5     141.765  35.903  43.2060  0.00  0.00     0.000 C
ATOM     80  C4  IDS C   5     140.585  36.522  42.4620  0.00  0.00     0.000 C
ATOM     81  C5  IDS C   5     141.023  37.852  41.8310  0.00  0.00     0.000 C
ATOM     82  O5  IDS C   5     142.440  37.871  41.6330  0.00  0.00     0.000 O
BRANCH 78 83
ATOM     83   O  IDS C   5     143.603  36.360  44.7320  0.00  0.00     0.000 O
ATOM     84   S  IDS C   5     143.310  36.079  46.2750  0.00  0.00     0.000 S
ATOM     85   O  IDS C   5     142.781  37.306  46.8070  0.00  0.00     0.000 OA
ATOM     86   O  IDS C   5     142.355  34.995  46.2880  0.00  0.00     0.000 OA
ATOM     87   O  IDS C   5     144.579  35.708  46.8520  0.00  0.00     0.000 OA
ENDBRANCH 78 83
BRANCH 81 88
ATOM     88   C  IDS C   5     140.370  38.142  40.4920  0.00  0.00     0.000 C
ATOM     89   O  IDS C   5     139.190  38.365  40.4370  0.00  0.00     0.000 OA
ATOM     90   O  IDS C   5     141.043  38.149  39.4860  0.00  0.00     0.000 OA
ENDBRANCH 81 88
ENDBRANCH 76 80
ENDBRANCH 56 76
ENDBRANCH 55 59
ENDBRANCH 39 55
ENDBRANCH 38 42
ENDBRANCH 18 38
ENDBRANCH 17 21
ENDBRANCH 1 17
TORSDOF 18
ENDMDL
MODEL 87
REMARK VINA RESULT:      -2.8     12.757     19.621
ROOT
ATOM      1  C1  IDS C   1     150.138  39.847  28.0260  0.00  0.00     0.000 C
ATOM      2  C2  IDS C   1     149.749  41.242  27.5280  0.00  0.00     0.000 C
ATOM      3  C3  IDS C   1     150.150  41.427  26.0720  0.00  0.00     0.000 C
ATOM      4  C4  IDS C   1     151.650  41.232  25.8990  0.00  0.00     0.000 C
ATOM      5  C5  IDS C   1     152.134  40.085  26.7800  0.00  0.00     0.000 C
ATOM      6  O5  IDS C   1     151.041  39.230  27.1180  0.00  0.00     0.000 O
ATOM      7   O  IDS C   1     149.772  42.737  25.6280  0.00  0.00     0.000 O
ATOM      9  HD  IDS C   1     149.018  42.944  26.0010  0.00  0.00     0.000 HD
ENDROOT
BRANCH 2 9
ATOM      9   O  IDS C   1     148.285  41.444  27.6170  0.00  0.00     0.000 O
ATOM     10   S  IDS C   1     147.715  42.704  28.4110  0.00  0.00     0.000 S
ATOM     11   O  IDS C   1     146.275  42.623  28.3020  0.00  0.00     0.000 OA
ATOM     12   O  IDS C   1     148.187  42.553  29.7720  0.00  0.00     0.000 OA
ATOM     13   O  IDS C   1     148.263  43.868  27.7500  0.00  0.00     0.000 OA
ENDBRANCH 2 9
BRANCH 5 14
ATOM     14   C  IDS C   1     153.205  39.251  26.0990  0.00  0.00     0.000 C
ATOM     15   O  IDS C   1     153.292  38.074  26.3530  0.00  0.00     0.000 OA
ATOM     16   O  IDS C   1     153.967  39.776  25.3050  0.00  0.00     0.000 OA
ENDBRANCH 5 14
BRANCH 1 17
ATOM     17  O4  SGN C   2     149.334  39.094  28.7820  0.00  0.00     0.000 O
BRANCH 17 21
ATOM     18  C1  SGN C   2     146.785  35.865  29.5620  0.00  0.00     0.000 C
ATOM     19  C2  SGN C   2     147.651  35.767  28.3000  0.00  0.00     0.000 C
ATOM     20  C3  SGN C   2     148.800  36.780  28.3780  0.00  0.00     0.000 C
ATOM     21  C4  SGN C   2     148.251  38.177  28.6460  0.00  0.00     0.000 C
ATOM     22  C5  SGN C   2     147.416  38.147  29.9230  0.00  0.00     0.000 C
ATOM     23  O5  SGN C   2     146.342  37.188  29.7820  0.00  0.00     0.000 O
ATOM     24   O  SGN C   2     149.551  36.752  27.1760  0.00  0.00     0.000 O
ATOM     26  HD  SGN C   2     149.425  36.787  28.0320  0.00  0.00     0.000 HD
BRANCH 19 28
ATOM     26   N  SGN C   2     147.597  34.326  28.0200  0.00  0.00     0.000 N
ATOM     28  HD  SGN C   2     146.813  34.503  28.3420  0.00  0.00     0.000 HD
ATOM     28   O  SGN C   2     148.300  32.396  26.6040  0.00  0.00     0.000 OA
ATOM     29   S  SGN C   2     147.508  33.745  26.5230  0.00  0.00     0.000 S
ATOM     30   O  SGN C   2     146.151  33.456  26.2590  0.00  0.00     0.000 OA
ATOM     31   O  SGN C   2     148.216  34.636  25.6710  0.00  0.00     0.000 OA
ENDBRANCH 19 28
BRANCH 22 32
ATOM     32   C  SGN C   2     146.775  39.473  30.2500  0.00  0.00     0.000 C
ATOM     33   S  SGN C   2     145.015  40.428  31.8720  0.00  0.00     0.000 S
ATOM     34   O  SGN C   2     143.917  39.901  31.1010  0.00  0.00     0.000 OA
ATOM     35   O  SGN C   2     144.812  40.345  33.3040  0.00  0.00     0.000 OA
ATOM     36   O  SGN C   2     145.475  41.724  31.4320  0.00  0.00     0.000 OA
ATOM     37   O  SGN C   2     146.223  39.430  31.5710  0.00  0.00     0.000 O
ENDBRANCH 22 32
BRANCH 18 38
ATOM     38  O4  IDS C   3     146.994  35.385  30.7890  0.00  0.00     0.000 O
BRANCH 38 42
ATOM     39  C1  IDS C   3     146.963  33.912  33.9450  0.00  0.00     0.000 C
ATOM     40  C2  IDS C   3     146.950  35.440  33.7840  0.00  0.00     0.000 C
ATOM     41  C3  IDS C   3     148.084  35.911  32.8750  0.00  0.00     0.000 C
ATOM     42  C4  IDS C   3     148.140  35.089  31.5940  0.00  0.00     0.000 C
ATOM     43  C5  IDS C   3     148.168  33.594  31.9370  0.00  0.00     0.000 C
ATOM     44  O5  IDS C   3     146.998  33.265  32.6840  0.00  0.00     0.000 O
ATOM     45   O  IDS C   3     149.326  35.801  33.5730  0.00  0.00     0.000 O
ATOM     47  HD  IDS C   3     149.746  35.161  33.9790  0.00  0.00     0.000 HD
BRANCH 40 47
ATOM     47   O  IDS C   3     145.675  35.888  33.1740  0.00  0.00     0.000 O
ATOM     48   S  IDS C   3     144.569  36.605  34.0790  0.00  0.00     0.000 S
ATOM     49   O  IDS C   3     143.923  35.549  34.8280  0.00  0.00     0.000 OA
ATOM     50   O  IDS C   3     143.671  37.248  33.1440  0.00  0.00     0.000 OA
ATOM     51   O  IDS C   3     145.272  37.536  34.9200  0.00  0.00     0.000 OA
ENDBRANCH 40 47
BRANCH 43 52
ATOM     52   C  IDS C   3     148.252  32.714  30.7100  0.00  0.00     0.000 C
ATOM     53   O  IDS C   3     147.284  32.080  30.3550  0.00  0.00     0.000 OA
ATOM     54   O  IDS C   3     149.283  32.648  30.0910  0.00  0.00     0.000 OA
ENDBRANCH 43 52
BRANCH 39 55
ATOM     55  O4  SGN C   4     147.642  33.275  34.9000  0.00  0.00     0.000 O
BRANCH 55 59
ATOM     56  C1  SGN C   4     145.640  33.079  38.5680  0.00  0.00     0.000 C
ATOM     57  C2  SGN C   4     146.685  34.197  38.4140  0.00  0.00     0.000 C
ATOM     58  C3  SGN C   4     147.042  34.407  36.9450  0.00  0.00     0.000 C
ATOM     59  C4  SGN C   4     147.415  33.082  36.2890  0.00  0.00     0.000 C
ATOM     60  C5  SGN C   4     146.271  32.092  36.4970  0.00  0.00     0.000 C
ATOM     61  O5  SGN C   4     146.088  31.903  37.9140  0.00  0.00     0.000 O
ATOM     62   O  SGN C   4     148.112  35.336  36.8430  0.00  0.00     0.000 O
ATOM     64  HD  SGN C   4     147.703  35.556  37.5740  0.00  0.00     0.000 HD
BRANCH 57 66
ATOM     64   N  SGN C   4     147.437  35.004  39.3890  0.00  0.00     0.000 N
ATOM     66  HD  SGN C   4     147.417  35.823  39.6710  0.00  0.00     0.000 HD
ATOM     66   S  SGN C   4     146.675  35.801  40.5430  0.00  0.00     0.000 S
ATOM     67   O  SGN C   4     147.649  36.524  41.2750  0.00  0.00     0.000 OA
ATOM     68   O  SGN C   4     145.602  36.501  39.9260  0.00  0.00     0.000 OA
ATOM     69   O  SGN C   4     146.082  34.671  41.4450  0.00  0.00     0.000 OA
ENDBRANCH 57 66
BRANCH 60 70
ATOM     70   C  SGN C   4     146.519  30.733  35.8780  0.00  0.00     0.000 C
ATOM     71   O  SGN C   4     145.823  29.708  32.3330  0.00  0.00     0.000 OA
ATOM     72   O  SGN C   4     147.957  30.303  33.3040  0.00  0.00     0.000 OA
ATOM     73   O  SGN C   4     145.935  30.663  34.5630  0.00  0.00     0.000 O
ATOM     74   S  SGN C   4     146.659  29.701  33.5110  0.00  0.00     0.000 S
ATOM     75   O  SGN C   4     146.720  28.411  34.1690  0.00  0.00     0.000 OA
ENDBRANCH 60 70
BRANCH 56 76
ATOM     76  O4  IDS C   5     144.297  33.021  38.6360  0.00  0.00     0.000 O
BRANCH 76 80
ATOM     77  C1  IDS C   5     140.408  33.413  39.8100  0.00  0.00     0.000 C
ATOM     78  C2  IDS C   5     141.376  33.050  40.9350  0.00  0.00     0.000 C
ATOM     79  C3  IDS C   5     142.798  33.357  40.5090  0.00  0.00     0.000 C
ATOM     80  C4  IDS C   5     143.192  32.446  39.3500  0.00  0.00     0.000 C
ATOM     81  C5  IDS C   5     141.988  32.262  38.4160  0.00  0.00     0.000 C
ATOM     82  O5  IDS C   5     141.076  33.356  38.5500  0.00  0.00     0.000 O
BRANCH 78 83
ATOM     83   O  IDS C   5     141.075  33.831  42.1580  0.00  0.00     0.000 O
ATOM     84   S  IDS C   5     140.889  33.079  43.5530  0.00  0.00     0.000 S
ATOM     85   O  IDS C   5     139.979  31.995  43.2990  0.00  0.00     0.000 OA
ATOM     86   O  IDS C   5     142.212  32.635  43.9230  0.00  0.00     0.000 OA
ATOM     87   O  IDS C   5     140.359  34.067  44.4610  0.00  0.00     0.000 OA
ENDBRANCH 78 83
BRANCH 81 88
ATOM     88   C  IDS C   5     142.358  32.152  36.9480  0.00  0.00     0.000 C
ATOM     89   O  IDS C   5     142.170  33.084  36.2120  0.00  0.00     0.000 OA
ATOM     90   O  IDS C   5     142.841  31.126  36.5270  0.00  0.00     0.000 OA
ENDBRANCH 81 88
ENDBRANCH 76 80
ENDBRANCH 56 76
ENDBRANCH 55 59
ENDBRANCH 39 55
ENDBRANCH 38 42
ENDBRANCH 18 38
ENDBRANCH 17 21
ENDBRANCH 1 17
TORSDOF 18
ENDMDL
MODEL 88
REMARK VINA RESULT:      -2.7     14.357     20.603
ROOT
ATOM      1  C1  IDS C   1     151.792  40.137  27.1080  0.00  0.00     0.000 C
ATOM      2  C2  IDS C   1     151.239  41.455  26.5590  0.00  0.00     0.000 C
ATOM      3  C3  IDS C   1     151.883  41.796  25.2230  0.00  0.00     0.000 C
ATOM      4  C4  IDS C   1     153.394  41.908  25.3680  0.00  0.00     0.000 C
ATOM      5  C5  IDS C   1     153.910  40.829  26.3160  0.00  0.00     0.000 C
ATOM      6  O5  IDS C   1     152.968  39.760  26.4030  0.00  0.00     0.000 O
ATOM      7   O  IDS C   1     151.346  43.030  24.7260  0.00  0.00     0.000 O
ATOM      9  HD  IDS C   1     150.506  43.065  24.9350  0.00  0.00     0.000 HD
ENDROOT
BRANCH 2 9
ATOM      9   O  IDS C   1     149.778  41.362  26.3390  0.00  0.00     0.000 O
ATOM     10   S  IDS C   1     148.814  42.440  27.0130  0.00  0.00     0.000 S
ATOM     11   O  IDS C   1     147.474  42.086  26.6010  0.00  0.00     0.000 OA
ATOM     12   O  IDS C   1     149.019  42.306  28.4410  0.00  0.00     0.000 OA
ATOM     13   O  IDS C   1     149.238  43.724  26.5010  0.00  0.00     0.000 OA
ENDBRANCH 2 9
BRANCH 5 14
ATOM     14   C  IDS C   1     155.244  40.260  25.8640  0.00  0.00     0.000 C
ATOM     15   O  IDS C   1     155.519  39.114  26.1250  0.00  0.00     0.000 OA
ATOM     16   O  IDS C   1     156.025  40.964  25.2470  0.00  0.00     0.000 OA
ENDBRANCH 5 14
BRANCH 1 17
ATOM     17  O4  SGN C   2     151.020  39.201  27.6670  0.00  0.00     0.000 O
BRANCH 17 21
ATOM     18  C1  SGN C   2     149.094  35.488  27.8450  0.00  0.00     0.000 C
ATOM     19  C2  SGN C   2     150.198  35.639  26.7910  0.00  0.00     0.000 C
ATOM     20  C3  SGN C   2     151.071  36.855  27.1240  0.00  0.00     0.000 C
ATOM     21  C4  SGN C   2     150.202  38.096  27.2930  0.00  0.00     0.000 C
ATOM     22  C5  SGN C   2     149.151  37.824  28.3660  0.00  0.00     0.000 C
ATOM     23  O5  SGN C   2     148.351  36.680  27.9890  0.00  0.00     0.000 O
ATOM     24   O  SGN C   2     152.038  37.048  26.1050  0.00  0.00     0.000 O
ATOM     26  HD  SGN C   2     151.737  37.007  26.9160  0.00  0.00     0.000 HD
BRANCH 19 28
ATOM     26   N  SGN C   2     150.505  34.235  26.4860  0.00  0.00     0.000 N
ATOM     28  HD  SGN C   2     149.654  34.229  26.6470  0.00  0.00     0.000 HD
ATOM     28   O  SGN C   2     151.861  32.571  25.2150  0.00  0.00     0.000 OA
ATOM     29   S  SGN C   2     150.832  33.731  24.9940  0.00  0.00     0.000 S
ATOM     30   O  SGN C   2     149.644  33.186  24.4590  0.00  0.00     0.000 OA
ATOM     31   O  SGN C   2     151.487  34.795  24.3140  0.00  0.00     0.000 OA
ENDBRANCH 19 28
BRANCH 22 32
ATOM     32   C  SGN C   2     148.196  38.975  28.5730  0.00  0.00     0.000 C
ATOM     33   S  SGN C   2     145.990  39.464  29.8120  0.00  0.00     0.000 S
ATOM     34   O  SGN C   2     145.201  38.770  28.8240  0.00  0.00     0.000 OA
ATOM     35   O  SGN C   2     145.529  39.260  31.1700  0.00  0.00     0.000 OA
ATOM     36   O  SGN C   2     146.248  40.848  29.4930  0.00  0.00     0.000 OA
ATOM     37   O  SGN C   2     147.415  38.747  29.7510  0.00  0.00     0.000 O
ENDBRANCH 22 32
BRANCH 18 38
ATOM     38  O4  IDS C   3     149.146  34.988  29.0820  0.00  0.00     0.000 O
BRANCH 38 42
ATOM     39  C1  IDS C   3     148.790  33.354  32.1370  0.00  0.00     0.000 C
ATOM     40  C2  IDS C   3     148.479  34.853  31.9990  0.00  0.00     0.000 C
ATOM     41  C3  IDS C   3     149.647  35.604  31.3590  0.00  0.00     0.000 C
ATOM     42  C4  IDS C   3     150.140  34.890  30.1070  0.00  0.00     0.000 C
ATOM     43  C5  IDS C   3     150.420  33.416  30.4260  0.00  0.00     0.000 C
ATOM     44  O5  IDS C   3     149.222  32.806  30.9020  0.00  0.00     0.000 O
ATOM     45   O  IDS C   3     150.713  35.714  32.3030  0.00  0.00     0.000 O
ATOM     47  HD  IDS C   3     151.169  35.153  32.7800  0.00  0.00     0.000 HD
BRANCH 40 47
ATOM     47   O  IDS C   3     147.291  35.061  31.1380  0.00  0.00     0.000 O
ATOM     48   S  IDS C   3     145.887  35.447  31.8000  0.00  0.00     0.000 S
ATOM     49   O  IDS C   3     145.359  34.220  32.3570  0.00  0.00     0.000 OA
ATOM     50   O  IDS C   3     145.080  35.953  30.7110  0.00  0.00     0.000 OA
ATOM     51   O  IDS C   3     146.169  36.439  32.8030  0.00  0.00     0.000 OA
ENDBRANCH 40 47
BRANCH 43 52
ATOM     52   C  IDS C   3     150.942  32.648  29.2330  0.00  0.00     0.000 C
ATOM     53   O  IDS C   3     150.226  31.855  28.6660  0.00  0.00     0.000 OA
ATOM     54   O  IDS C   3     152.070  32.830  28.8520  0.00  0.00     0.000 OA
ENDBRANCH 43 52
BRANCH 39 55
ATOM     55  O4  SGN C   4     149.381  32.817  33.2050  0.00  0.00     0.000 O
BRANCH 55 59
ATOM     56  C1  SGN C   4     146.746  31.805  36.2930  0.00  0.00     0.000 C
ATOM     57  C2  SGN C   4     147.442  33.173  36.4040  0.00  0.00     0.000 C
ATOM     58  C3  SGN C   4     148.045  33.583  35.0630  0.00  0.00     0.000 C
ATOM     59  C4  SGN C   4     148.912  32.464  34.4980  0.00  0.00     0.000 C
ATOM     60  C5  SGN C   4     148.077  31.188  34.4190  0.00  0.00     0.000 C
ATOM     61  O5  SGN C   4     147.642  30.848  35.7500  0.00  0.00     0.000 O
ATOM     62   O  SGN C   4     148.805  34.772  35.2270  0.00  0.00     0.000 O
ATOM     64  HD  SGN C   4     148.198  34.817  35.8430  0.00  0.00     0.000 HD
BRANCH 57 66
ATOM     64   N  SGN C   4     147.684  33.796  37.7140  0.00  0.00     0.000 N
ATOM     66  HD  SGN C   4     147.569  34.580  38.0650  0.00  0.00     0.000 HD
ATOM     66   S  SGN C   4     146.505  34.544  38.4870  0.00  0.00     0.000 S
ATOM     67   O  SGN C   4     147.054  35.088  39.6760  0.00  0.00     0.000 OA
ATOM     68   O  SGN C   4     145.875  35.408  37.5490  0.00  0.00     0.000 OA
ATOM     69   O  SGN C   4     145.513  33.394  38.8530  0.00  0.00     0.000 OA
ENDBRANCH 57 66
BRANCH 60 70
ATOM     70   C  SGN C   4     148.829  29.999  33.8610  0.00  0.00     0.000 C
ATOM     71   O  SGN C   4     149.273  29.107  30.2400  0.00  0.00     0.000 OA
ATOM     72   O  SGN C   4     150.876  30.175  31.7020  0.00  0.00     0.000 OA
ATOM     73   O  SGN C   4     148.603  29.878  32.4430  0.00  0.00     0.000 O
ATOM     74   S  SGN C   4     149.786  29.232  31.5840  0.00  0.00     0.000 S
ATOM     75   O  SGN C   4     150.054  27.958  32.2210  0.00  0.00     0.000 OA
ENDBRANCH 60 70
BRANCH 56 76
ATOM     76  O4  IDS C   5     145.495  31.380  36.0410  0.00  0.00     0.000 O
BRANCH 76 80
ATOM     77  C1  IDS C   5     141.537  30.538  35.5110  0.00  0.00     0.000 C
ATOM     78  C2  IDS C   5     141.832  31.500  36.6610  0.00  0.00     0.000 C
ATOM     79  C3  IDS C   5     143.223  32.081  36.5010  0.00  0.00     0.000 C
ATOM     80  C4  IDS C   5     144.260  30.972  36.6490  0.00  0.00     0.000 C
ATOM     81  C5  IDS C   5     143.733  29.691  35.9850  0.00  0.00     0.000 C
ATOM     82  O5  IDS C   5     142.755  30.007  34.9900  0.00  0.00     0.000 O
BRANCH 78 83
ATOM     83   O  IDS C   5     140.857  32.616  36.6740  0.00  0.00     0.000 O
ATOM     84   S  IDS C   5     140.016  32.918  37.9950  0.00  0.00     0.000 S
ATOM     85   O  IDS C   5     139.479  31.653  38.4210  0.00  0.00     0.000 OA
ATOM     86   O  IDS C   5     140.965  33.475  38.9290  0.00  0.00     0.000 OA
ATOM     87   O  IDS C   5     139.000  33.865  37.6040  0.00  0.00     0.000 OA
ENDBRANCH 78 83
BRANCH 81 88
ATOM     88   C  IDS C   5     144.810  28.855  35.3190  0.00  0.00     0.000 C
ATOM     89   O  IDS C   5     144.991  28.946  34.1340  0.00  0.00     0.000 OA
ATOM     90   O  IDS C   5     145.482  28.102  35.9860  0.00  0.00     0.000 OA
ENDBRANCH 81 88
ENDBRANCH 76 80
ENDBRANCH 56 76
ENDBRANCH 55 59
ENDBRANCH 39 55
ENDBRANCH 38 42
ENDBRANCH 18 38
ENDBRANCH 17 21
ENDBRANCH 1 17
TORSDOF 18
ENDMDL
MODEL 89
REMARK VINA RESULT:      -2.6      8.725     13.539
ROOT
ATOM      1  C1  IDS C   1     153.656  39.325  37.5930  0.00  0.00     0.000 C
ATOM      2  C2  IDS C   1     153.988  40.816  37.4820  0.00  0.00     0.000 C
ATOM      3  C3  IDS C   1     155.097  41.048  36.4660  0.00  0.00     0.000 C
ATOM      4  C4  IDS C   1     156.353  40.281  36.8560  0.00  0.00     0.000 C
ATOM      5  C5  IDS C   1     155.977  38.912  37.4150  0.00  0.00     0.000 C
ATOM      6  O5  IDS C   1     154.670  38.544  36.9750  0.00  0.00     0.000 O
ATOM      7   O  IDS C   1     155.387  42.450  36.3770  0.00  0.00     0.000 O
ATOM      9  HD  IDS C   1     154.644  42.888  36.4620  0.00  0.00     0.000 HD
ENDROOT
BRANCH 2 9
ATOM      9   O  IDS C   1     152.806  41.588  37.0370  0.00  0.00     0.000 O
ATOM     10   S  IDS C   1     152.575  41.839  35.4790  0.00  0.00     0.000 S
ATOM     11   O  IDS C   1     151.349  42.598  35.3780  0.00  0.00     0.000 OA
ATOM     12   O  IDS C   1     153.736  42.579  35.0280  0.00  0.00     0.000 OA
ATOM     13   O  IDS C   1     152.475  40.527  34.8780  0.00  0.00     0.000 OA
ENDBRANCH 2 9
BRANCH 5 14
ATOM     14   C  IDS C   1     156.953  37.830  36.9850  0.00  0.00     0.000 C
ATOM     15   O  IDS C   1     157.216  37.700  35.8150  0.00  0.00     0.000 OA
ATOM     16   O  IDS C   1     157.460  37.104  37.8230  0.00  0.00     0.000 OA
ENDBRANCH 5 14
BRANCH 1 17
ATOM     17  O4  SGN C   2     152.405  38.862  37.6590  0.00  0.00     0.000 O
BRANCH 17 21
ATOM     18  C1  SGN C   2     148.855  37.300  36.0820  0.00  0.00     0.000 C
ATOM     19  C2  SGN C   2     150.087  37.265  35.1680  0.00  0.00     0.000 C
ATOM     20  C3  SGN C   2     151.358  37.461  36.0020  0.00  0.00     0.000 C
ATOM     21  C4  SGN C   2     151.245  38.729  36.8420  0.00  0.00     0.000 C
ATOM     22  C5  SGN C   2     149.991  38.643  37.7060  0.00  0.00     0.000 C
ATOM     23  O5  SGN C   2     148.827  38.475  36.8640  0.00  0.00     0.000 O
ATOM     24   O  SGN C   2     152.490  37.516  35.1510  0.00  0.00     0.000 O
ATOM     26  HD  SGN C   2     152.034  37.287  35.8500  0.00  0.00     0.000 HD
BRANCH 19 28
ATOM     26   N  SGN C   2     149.672  36.286  34.1530  0.00  0.00     0.000 N
ATOM     28  HD  SGN C   2     148.946  36.727  34.3240  0.00  0.00     0.000 HD
ATOM     28   O  SGN C   2     150.234  34.931  32.1360  0.00  0.00     0.000 OA
ATOM     29   S  SGN C   2     150.099  36.418  32.6080  0.00  0.00     0.000 S
ATOM     30   O  SGN C   2     149.020  37.015  31.9180  0.00  0.00     0.000 OA
ATOM     31   O  SGN C   2     151.383  37.026  32.5660  0.00  0.00     0.000 OA
ENDBRANCH 19 28
BRANCH 22 32
ATOM     32   C  SGN C   2     149.751  39.879  38.5380  0.00  0.00     0.000 C
ATOM     33   S  SGN C   2     149.000  40.493  40.9260  0.00  0.00     0.000 S
ATOM     34   O  SGN C   2     147.615  40.220  40.6340  0.00  0.00     0.000 OA
ATOM     35   O  SGN C   2     149.408  40.075  42.2510  0.00  0.00     0.000 OA
ATOM     36   O  SGN C   2     149.419  41.834  40.5920  0.00  0.00     0.000 OA
ATOM     37   O  SGN C   2     149.807  39.542  39.9290  0.00  0.00     0.000 O
ENDBRANCH 22 32
BRANCH 18 38
ATOM     38  O4  IDS C   3     148.353  36.361  36.8870  0.00  0.00     0.000 O
BRANCH 38 42
ATOM     39  C1  IDS C   3     145.790  35.638  39.1310  0.00  0.00     0.000 C
ATOM     40  C2  IDS C   3     147.157  34.944  39.2400  0.00  0.00     0.000 C
ATOM     41  C3  IDS C   3     147.569  34.321  37.9060  0.00  0.00     0.000 C
ATOM     42  C4  IDS C   3     147.392  35.307  36.7600  0.00  0.00     0.000 C
ATOM     43  C5  IDS C   3     145.973  35.887  36.7880  0.00  0.00     0.000 C
ATOM     44  O5  IDS C   3     145.760  36.540  38.0380  0.00  0.00     0.000 O
ATOM     45   O  IDS C   3     146.780  33.155  37.6650  0.00  0.00     0.000 O
ATOM     47  HD  IDS C   3     145.931  32.987  37.6270  0.00  0.00     0.000 HD
BRANCH 40 47
ATOM     47   O  IDS C   3     148.207  35.920  39.6180  0.00  0.00     0.000 O
ATOM     48   S  IDS C   3     148.975  35.761  41.0120  0.00  0.00     0.000 S
ATOM     49   O  IDS C   3     148.061  36.240  42.0270  0.00  0.00     0.000 OA
ATOM     50   O  IDS C   3     150.154  36.591  40.8930  0.00  0.00     0.000 OA
ATOM     51   O  IDS C   3     149.280  34.362  41.1510  0.00  0.00     0.000 OA
ENDBRANCH 40 47
BRANCH 43 52
ATOM     52   C  IDS C   3     145.714  36.858  35.6570  0.00  0.00     0.000 C
ATOM     53   O  IDS C   3     145.836  36.493  34.5100  0.00  0.00     0.000 OA
ATOM     54   O  IDS C   3     145.388  37.990  35.9050  0.00  0.00     0.000 OA
ENDBRANCH 43 52
BRANCH 39 55
ATOM     55  O4  SGN C   4     144.629  35.022  39.3580  0.00  0.00     0.000 O
BRANCH 55 59
ATOM     56  C1  SGN C   4     142.451  36.680  42.5220  0.00  0.00     0.000 C
ATOM     57  C2  SGN C   4     142.826  35.193  42.6500  0.00  0.00     0.000 C
ATOM     58  C3  SGN C   4     143.927  34.825  41.6580  0.00  0.00     0.000 C
ATOM     59  C4  SGN C   4     143.554  35.276  40.2500  0.00  0.00     0.000 C
ATOM     60  C5  SGN C   4     143.243  36.771  40.2800  0.00  0.00     0.000 C
ATOM     61  O5  SGN C   4     142.133  36.985  41.1740  0.00  0.00     0.000 O
ATOM     62   O  SGN C   4     144.149  33.422  41.6930  0.00  0.00     0.000 O
ATOM     64  HD  SGN C   4     143.863  33.616  42.4870  0.00  0.00     0.000 HD
BRANCH 57 66
ATOM     64   N  SGN C   4     141.867  34.439  43.4730  0.00  0.00     0.000 N
ATOM     66  HD  SGN C   4     141.903  33.766  44.0170  0.00  0.00     0.000 HD
ATOM     66   S  SGN C   4     142.119  34.241  45.0370  0.00  0.00     0.000 S
ATOM     67   O  SGN C   4     141.069  33.431  45.5370  0.00  0.00     0.000 OA
ATOM     68   O  SGN C   4     143.466  33.813  45.1900  0.00  0.00     0.000 OA
ATOM     69   O  SGN C   4     141.983  35.685  45.6190  0.00  0.00     0.000 OA
ENDBRANCH 57 66
BRANCH 60 70
ATOM     70   C  SGN C   4     142.866  37.343  38.9300  0.00  0.00     0.000 C
ATOM     71   O  SGN C   4     139.416  37.573  37.4620  0.00  0.00     0.000 OA
ATOM     72   O  SGN C   4     140.695  39.340  38.5050  0.00  0.00     0.000 OA
ATOM     73   O  SGN C   4     141.483  37.067  38.6340  0.00  0.00     0.000 O
ATOM     74   S  SGN C   4     140.725  38.132  37.7130  0.00  0.00     0.000 S
ATOM     75   O  SGN C   4     141.544  38.242  36.5220  0.00  0.00     0.000 OA
ENDBRANCH 60 70
BRANCH 56 76
ATOM     76  O4  IDS C   5     142.835  37.823  43.1190  0.00  0.00     0.000 O
BRANCH 76 80
ATOM     77  C1  IDS C   5     146.725  38.669  44.0160  0.00  0.00     0.000 C
ATOM     78  C2  IDS C   5     145.957  37.960  45.1310  0.00  0.00     0.000 C
ATOM     79  C3  IDS C   5     144.709  37.312  44.5640  0.00  0.00     0.000 C
ATOM     80  C4  IDS C   5     143.755  38.391  44.0620  0.00  0.00     0.000 C
ATOM     81  C5  IDS C   5     144.564  39.521  43.4090  0.00  0.00     0.000 C
ATOM     82  O5  IDS C   5     145.834  39.037  42.9630  0.00  0.00     0.000 O
BRANCH 78 83
ATOM     83   O  IDS C   5     146.791  36.906  45.7540  0.00  0.00     0.000 O
ATOM     84   S  IDS C   5     147.229  37.041  47.2820  0.00  0.00     0.000 S
ATOM     85   O  IDS C   5     147.747  38.375  47.4290  0.00  0.00     0.000 OA
ATOM     86   O  IDS C   5     146.023  36.813  48.0430  0.00  0.00     0.000 OA
ATOM     87   O  IDS C   5     148.223  36.017  47.4960  0.00  0.00     0.000 OA
ENDBRANCH 78 83
BRANCH 81 88
ATOM     88   C  IDS C   5     143.875  40.162  42.2180  0.00  0.00     0.000 C
ATOM     89   O  IDS C   5     142.973  40.935  42.3930  0.00  0.00     0.000 OA
ATOM     90   O  IDS C   5     144.241  39.890  41.0970  0.00  0.00     0.000 OA
ENDBRANCH 81 88
ENDBRANCH 76 80
ENDBRANCH 56 76
ENDBRANCH 55 59
ENDBRANCH 39 55
ENDBRANCH 38 42
ENDBRANCH 18 38
ENDBRANCH 17 21
ENDBRANCH 1 17
TORSDOF 18
ENDMDL
MODEL 90
REMARK VINA RESULT:      -2.6     10.661     16.662
ROOT
ATOM      1  C1  IDS C   1     157.703  53.962  52.1410  0.00  0.00     0.000 C
ATOM      2  C2  IDS C   1     157.888  55.452  51.8370  0.00  0.00     0.000 C
ATOM      3  C3  IDS C   1     158.526  55.649  50.4700  0.00  0.00     0.000 C
ATOM      4  C4  IDS C   1     159.878  54.952  50.4030  0.00  0.00     0.000 C
ATOM      5  C5  IDS C   1     159.812  53.613  51.1310  0.00  0.00     0.000 C
ATOM      6  O5  IDS C   1     158.458  53.173  51.2300  0.00  0.00     0.000 O
ATOM      7   O  IDS C   1     158.685  57.051  50.2070  0.00  0.00     0.000 O
ATOM      9  HD  IDS C   1     158.003  57.469  50.5400  0.00  0.00     0.000 HD
ENDROOT
BRANCH 2 9
ATOM      9   O  IDS C   1     156.584  56.153  51.8270  0.00  0.00     0.000 O
ATOM     10   S  IDS C   1     156.343  57.375  52.8230  0.00  0.00     0.000 S
ATOM     11   O  IDS C   1     155.001  57.843  52.5590  0.00  0.00     0.000 OA
ATOM     12   O  IDS C   1     156.498  56.827  54.1550  0.00  0.00     0.000 OA
ATOM     13   O  IDS C   1     157.354  58.356  52.4970  0.00  0.00     0.000 OA
ENDBRANCH 2 9
BRANCH 5 14
ATOM     14   C  IDS C   1     160.617  52.536  50.4250  0.00  0.00     0.000 C
ATOM     15   O  IDS C   1     161.036  52.741  49.3110  0.00  0.00     0.000 OA
ATOM     16   O  IDS C   1     160.832  51.474  50.9850  0.00  0.00     0.000 OA
ENDBRANCH 5 14
BRANCH 1 17
ATOM     17  O4  SGN C   2     156.593  53.465  52.6940  0.00  0.00     0.000 O
BRANCH 17 21
ATOM     18  C1  SGN C   2     152.724  51.875  52.5210  0.00  0.00     0.000 C
ATOM     19  C2  SGN C   2     153.442  52.082  51.1820  0.00  0.00     0.000 C
ATOM     20  C3  SGN C   2     154.947  52.253  51.4200  0.00  0.00     0.000 C
ATOM     21  C4  SGN C   2     155.195  53.364  52.4340  0.00  0.00     0.000 C
ATOM     22  C5  SGN C   2     154.437  53.043  53.7190  0.00  0.00     0.000 C
ATOM     23  O5  SGN C   2     153.025  52.910  53.4340  0.00  0.00     0.000 O
ATOM     24   O  SGN C   2     155.601  52.531  50.1930  0.00  0.00     0.000 O
ATOM     26  HD  SGN C   2     155.492  52.160  50.9680  0.00  0.00     0.000 HD
BRANCH 19 28
ATOM     26   N  SGN C   2     152.670  51.198  50.2980  0.00  0.00     0.000 N
ATOM     28  HD  SGN C   2     152.086  51.473  50.8740  0.00  0.00     0.000 HD
ATOM     28   O  SGN C   2     152.288  50.260  48.0180  0.00  0.00     0.000 OA
ATOM     29   S  SGN C   2     152.271  51.618  48.7980  0.00  0.00     0.000 S
ATOM     30   O  SGN C   2     150.946  52.104  48.8300  0.00  0.00     0.000 OA
ATOM     31   O  SGN C   2     153.311  52.445  48.2900  0.00  0.00     0.000 OA
ENDBRANCH 19 28
BRANCH 22 32
ATOM     32   C  SGN C   2     154.569  54.114  54.7750  0.00  0.00     0.000 C
ATOM     33   S  SGN C   2     154.769  54.294  57.3380  0.00  0.00     0.000 S
ATOM     34   O  SGN C   2     153.363  54.042  57.5340  0.00  0.00     0.000 OA
ATOM     35   O  SGN C   2     155.616  53.666  58.3300  0.00  0.00     0.000 OA
ATOM     36   O  SGN C   2     155.091  55.682  57.1030  0.00  0.00     0.000 OA
ATOM     37   O  SGN C   2     155.116  53.546  55.9710  0.00  0.00     0.000 O
ENDBRANCH 22 32
BRANCH 18 38
ATOM     38  O4  IDS C   3     152.626  50.786  53.2870  0.00  0.00     0.000 O
BRANCH 38 42
ATOM     39  C1  IDS C   3     152.832  47.545  54.5450  0.00  0.00     0.000 C
ATOM     40  C2  IDS C   3     152.407  47.805  53.0900  0.00  0.00     0.000 C
ATOM     41  C3  IDS C   3     151.263  48.815  53.0210  0.00  0.00     0.000 C
ATOM     42  C4  IDS C   3     151.556  50.040  53.8770  0.00  0.00     0.000 C
ATOM     43  C5  IDS C   3     151.942  49.602  55.2950  0.00  0.00     0.000 C
ATOM     44  O5  IDS C   3     153.092  48.761  55.2270  0.00  0.00     0.000 O
ATOM     45   O  IDS C   3     150.056  48.194  53.4660  0.00  0.00     0.000 O
ATOM     47  HD  IDS C   3     149.811  47.774  54.1830  0.00  0.00     0.000 HD
BRANCH 40 47
ATOM     47   O  IDS C   3     153.538  48.360  52.3090  0.00  0.00     0.000 O
ATOM     48   S  IDS C   3     154.845  47.472  52.0610  0.00  0.00     0.000 S
ATOM     49   O  IDS C   3     155.590  47.505  53.3010  0.00  0.00     0.000 OA
ATOM     50   O  IDS C   3     155.547  48.123  50.9760  0.00  0.00     0.000 OA
ATOM     51   O  IDS C   3     154.382  46.152  51.7240  0.00  0.00     0.000 OA
ENDBRANCH 40 47
BRANCH 43 52
ATOM     52   C  IDS C   3     152.221  50.771  56.2130  0.00  0.00     0.000 C
ATOM     53   O  IDS C   3     153.173  50.738  56.9590  0.00  0.00     0.000 OA
ATOM     54   O  IDS C   3     151.494  51.731  56.1970  0.00  0.00     0.000 OA
ENDBRANCH 43 52
BRANCH 39 55
ATOM     55  O4  SGN C   4     152.296  46.597  55.3120  0.00  0.00     0.000 O
BRANCH 55 59
ATOM     56  C1  SGN C   4     155.044  44.510  57.6780  0.00  0.00     0.000 C
ATOM     57  C2  SGN C   4     154.715  43.899  56.3060  0.00  0.00     0.000 C
ATOM     58  C3  SGN C   4     154.035  44.926  55.4050  0.00  0.00     0.000 C
ATOM     59  C4  SGN C   4     152.854  45.571  56.1210  0.00  0.00     0.000 C
ATOM     60  C5  SGN C   4     153.344  46.159  57.4430  0.00  0.00     0.000 C
ATOM     61  O5  SGN C   4     153.878  45.086  58.2450  0.00  0.00     0.000 O
ATOM     62   O  SGN C   4     153.609  44.297  54.2030  0.00  0.00     0.000 O
ATOM     64  HD  SGN C   4     154.294  43.833  54.4600  0.00  0.00     0.000 HD
BRANCH 57 66
ATOM     64   N  SGN C   4     155.878  43.074  56.6710  0.00  0.00     0.000 N
ATOM     66  HD  SGN C   4     156.022  42.238  56.8480  0.00  0.00     0.000 HD
ATOM     66   S  SGN C   4     156.247  41.771  55.8270  0.00  0.00     0.000 S
ATOM     67   O  SGN C   4     157.364  41.162  56.4510  0.00  0.00     0.000 OA
ATOM     68   O  SGN C   4     155.046  41.027  55.6630  0.00  0.00     0.000 OA
ATOM     69   O  SGN C   4     156.676  42.340  54.4360  0.00  0.00     0.000 OA
ENDBRANCH 57 66
BRANCH 60 70
ATOM     70   C  SGN C   4     152.258  46.840  58.2480  0.00  0.00     0.000 C
ATOM     71   O  SGN C   4     150.053  45.265  60.8480  0.00  0.00     0.000 OA
ATOM     72   O  SGN C   4     152.001  46.651  61.2110  0.00  0.00     0.000 OA
ATOM     73   O  SGN C   4     151.494  45.869  58.9890  0.00  0.00     0.000 O
ATOM     74   S  SGN C   4     150.860  46.364  60.3710  0.00  0.00     0.000 S
ATOM     75   O  SGN C   4     150.089  47.541  60.0250  0.00  0.00     0.000 OA
ENDBRANCH 60 70
BRANCH 56 76
ATOM     76  O4  IDS C   5     156.109  45.123  58.2280  0.00  0.00     0.000 O
BRANCH 76 80
ATOM     77  C1  IDS C   5     159.572  46.154  60.1270  0.00  0.00     0.000 C
ATOM     78  C2  IDS C   5     158.808  45.003  60.7810  0.00  0.00     0.000 C
ATOM     79  C3  IDS C   5     157.816  44.418  59.7950  0.00  0.00     0.000 C
ATOM     80  C4  IDS C   5     156.746  45.457  59.4700  0.00  0.00     0.000 C
ATOM     81  C5  IDS C   5     157.396  46.846  59.3830  0.00  0.00     0.000 C
ATOM     82  O5  IDS C   5     158.789  46.730  59.0810  0.00  0.00     0.000 O
BRANCH 78 83
ATOM     83   O  IDS C   5     159.738  43.929  61.2020  0.00  0.00     0.000 O
ATOM     84   S  IDS C   5     160.413  42.990  60.1030  0.00  0.00     0.000 S
ATOM     85   O  IDS C   5     159.344  42.550  59.2480  0.00  0.00     0.000 OA
ATOM     86   O  IDS C   5     161.374  43.829  59.4260  0.00  0.00     0.000 OA
ATOM     87   O  IDS C   5     161.034  41.915  60.8380  0.00  0.00     0.000 OA
ENDBRANCH 78 83
BRANCH 81 88
ATOM     88   C  IDS C   5     156.774  47.752  58.3360  0.00  0.00     0.000 C
ATOM     89   O  IDS C   5     155.768  48.358  58.5910  0.00  0.00     0.000 OA
ATOM     90   O  IDS C   5     157.297  47.859  57.2510  0.00  0.00     0.000 OA
ENDBRANCH 81 88
ENDBRANCH 76 80
ENDBRANCH 56 76
ENDBRANCH 55 59
ENDBRANCH 39 55
ENDBRANCH 38 42
ENDBRANCH 18 38
ENDBRANCH 17 21
ENDBRANCH 1 17
TORSDOF 18
ENDMDL
MODEL 91
REMARK VINA RESULT:      -2.5     10.813     16.721
ROOT
ATOM      1  C1  IDS C   1     157.575  53.961  52.1120  0.00  0.00     0.000 C
ATOM      2  C2  IDS C   1     157.590  55.418  51.6410  0.00  0.00     0.000 C
ATOM      3  C3  IDS C   1     158.294  55.545  50.2980  0.00  0.00     0.000 C
ATOM      4  C4  IDS C   1     159.725  55.033  50.3910  0.00  0.00     0.000 C
ATOM      5  C5  IDS C   1     159.779  53.788  51.2710  0.00  0.00     0.000 C
ATOM      6  O5  IDS C   1     158.487  53.184  51.3470  0.00  0.00     0.000 O
ATOM      7   O  IDS C   1     158.292  56.917  49.8770  0.00  0.00     0.000 O
ATOM      9  HD  IDS C   1     157.541  57.274  50.1180  0.00  0.00     0.000 HD
ENDROOT
BRANCH 2 9
ATOM      9   O  IDS C   1     156.212  55.932  51.4730  0.00  0.00     0.000 O
ATOM     10   S  IDS C   1     155.749  57.217  52.2960  0.00  0.00     0.000 S
ATOM     11   O  IDS C   1     154.379  57.466  51.9030  0.00  0.00     0.000 OA
ATOM     12   O  IDS C   1     155.878  56.853  53.6920  0.00  0.00     0.000 OA
ATOM     13   O  IDS C   1     156.647  58.281  51.9050  0.00  0.00     0.000 OA
ENDBRANCH 2 9
BRANCH 5 14
ATOM     14   C  IDS C   1     160.763  52.757  50.7460  0.00  0.00     0.000 C
ATOM     15   O  IDS C   1     161.942  53.014  50.7320  0.00  0.00     0.000 OA
ATOM     16   O  IDS C   1     160.354  51.682  50.3410  0.00  0.00     0.000 OA
ENDBRANCH 5 14
BRANCH 1 17
ATOM     17  O4  SGN C   2     156.501  53.384  52.6570  0.00  0.00     0.000 O
BRANCH 17 21
ATOM     18  C1  SGN C   2     152.836  51.367  52.5000  0.00  0.00     0.000 C
ATOM     19  C2  SGN C   2     153.605  51.498  51.1790  0.00  0.00     0.000 C
ATOM     20  C3  SGN C   2     155.068  51.860  51.4640  0.00  0.00     0.000 C
ATOM     21  C4  SGN C   2     155.139  53.100  52.3480  0.00  0.00     0.000 C
ATOM     22  C5  SGN C   2     154.345  52.846  53.6260  0.00  0.00     0.000 C
ATOM     23  O5  SGN C   2     152.974  52.526  53.2950  0.00  0.00     0.000 O
ATOM     24   O  SGN C   2     155.759  52.067  50.2440  0.00  0.00     0.000 O
ATOM     26  HD  SGN C   2     155.645  51.777  51.0520  0.00  0.00     0.000 HD
BRANCH 19 28
ATOM     26   N  SGN C   2     152.977  50.444  50.3700  0.00  0.00     0.000 N
ATOM     28  HD  SGN C   2     152.333  50.728  50.8750  0.00  0.00     0.000 HD
ATOM     28   O  SGN C   2     152.834  49.211  48.2060  0.00  0.00     0.000 OA
ATOM     29   S  SGN C   2     152.643  50.644  48.8100  0.00  0.00     0.000 S
ATOM     30   O  SGN C   2     151.280  50.999  48.7090  0.00  0.00     0.000 OA
ATOM     31   O  SGN C   2     153.635  51.502  48.2620  0.00  0.00     0.000 OA
ENDBRANCH 19 28
BRANCH 22 32
ATOM     32   C  SGN C   2     154.303  54.037  54.5510  0.00  0.00     0.000 C
ATOM     33   S  SGN C   2     154.305  54.528  57.0810  0.00  0.00     0.000 S
ATOM     34   O  SGN C   2     152.918  54.160  57.2240  0.00  0.00     0.000 OA
ATOM     35   O  SGN C   2     155.135  54.106  58.1900  0.00  0.00     0.000 OA
ATOM     36   O  SGN C   2     154.512  55.906  56.7000  0.00  0.00     0.000 OA
ATOM     37   O  SGN C   2     154.814  53.668  55.8370  0.00  0.00     0.000 O
ENDBRANCH 22 32
BRANCH 18 38
ATOM     38  O4  IDS C   3     152.808  50.368  53.3850  0.00  0.00     0.000 O
BRANCH 38 42
ATOM     39  C1  IDS C   3     153.257  47.253  54.8750  0.00  0.00     0.000 C
ATOM     40  C2  IDS C   3     152.855  47.373  53.3960  0.00  0.00     0.000 C
ATOM     41  C3  IDS C   3     151.629  48.270  53.2280  0.00  0.00     0.000 C
ATOM     42  C4  IDS C   3     151.790  49.572  54.0010  0.00  0.00     0.000 C
ATOM     43  C5  IDS C   3     152.170  49.269  55.4550  0.00  0.00     0.000 C
ATOM     44  O5  IDS C   3     153.391  48.531  55.4740  0.00  0.00     0.000 O
ATOM     45   O  IDS C   3     150.468  47.576  53.6880  0.00  0.00     0.000 O
ATOM     47  HD  IDS C   3     150.240  47.188  54.4280  0.00  0.00     0.000 HD
BRANCH 40 47
ATOM     47   O  IDS C   3     153.956  47.971  52.6040  0.00  0.00     0.000 O
ATOM     48   S  IDS C   3     154.494  47.222  51.2980  0.00  0.00     0.000 S
ATOM     49   O  IDS C   3     155.327  46.139  51.7750  0.00  0.00     0.000 OA
ATOM     50   O  IDS C   3     155.247  48.220  50.5700  0.00  0.00     0.000 OA
ATOM     51   O  IDS C   3     153.332  46.759  50.5870  0.00  0.00     0.000 OA
ENDBRANCH 40 47
BRANCH 43 52
ATOM     52   C  IDS C   3     152.320  50.519  56.2940  0.00  0.00     0.000 C
ATOM     53   O  IDS C   3     153.220  50.602  57.0980  0.00  0.00     0.000 OA
ATOM     54   O  IDS C   3     151.541  51.427  56.1570  0.00  0.00     0.000 OA
ENDBRANCH 43 52
BRANCH 39 55
ATOM     55  O4  SGN C   4     152.783  46.316  55.6960  0.00  0.00     0.000 O
BRANCH 55 59
ATOM     56  C1  SGN C   4     155.595  44.745  58.3660  0.00  0.00     0.000 C
ATOM     57  C2  SGN C   4     155.425  44.001  57.0310  0.00  0.00     0.000 C
ATOM     58  C3  SGN C   4     154.691  44.873  56.0150  0.00  0.00     0.000 C
ATOM     59  C4  SGN C   4     153.402  45.424  56.6130  0.00  0.00     0.000 C
ATOM     60  C5  SGN C   4     153.737  46.160  57.9090  0.00  0.00     0.000 C
ATOM     61  O5  SGN C   4     154.337  45.219  58.8210  0.00  0.00     0.000 O
ATOM     62   O  SGN C   4     154.417  44.113  54.8460  0.00  0.00     0.000 O
ATOM     64  HD  SGN C   4     155.132  43.753  55.1760  0.00  0.00     0.000 HD
BRANCH 57 66
ATOM     64   N  SGN C   4     156.045  42.790  57.5910  0.00  0.00     0.000 N
ATOM     66  HD  SGN C   4     156.194  41.981  57.3190  0.00  0.00     0.000 HD
ATOM     66   S  SGN C   4     157.216  42.041  56.8070  0.00  0.00     0.000 S
ATOM     67   O  SGN C   4     157.561  40.889  57.5570  0.00  0.00     0.000 OA
ATOM     68   O  SGN C   4     156.787  41.894  55.4590  0.00  0.00     0.000 OA
ATOM     69   O  SGN C   4     158.400  43.060  56.8480  0.00  0.00     0.000 OA
ENDBRANCH 57 66
BRANCH 60 70
ATOM     70   C  SGN C   4     152.532  46.765  58.5960  0.00  0.00     0.000 C
ATOM     71   O  SGN C   4     149.772  44.918  60.3520  0.00  0.00     0.000 OA
ATOM     72   O  SGN C   4     151.651  46.064  61.3550  0.00  0.00     0.000 OA
ATOM     73   O  SGN C   4     151.594  45.737  58.9690  0.00  0.00     0.000 O
ATOM     74   S  SGN C   4     150.702  46.021  60.2660  0.00  0.00     0.000 S
ATOM     75   O  SGN C   4     150.064  47.295  60.0050  0.00  0.00     0.000 OA
ENDBRANCH 60 70
BRANCH 56 76
ATOM     76  O4  IDS C   5     156.546  45.518  58.9230  0.00  0.00     0.000 O
BRANCH 76 80
ATOM     77  C1  IDS C   5     158.894  48.765  59.7000  0.00  0.00     0.000 C
ATOM     78  C2  IDS C   5     158.728  48.443  58.2150  0.00  0.00     0.000 C
ATOM     79  C3  IDS C   5     157.529  47.537  58.0160  0.00  0.00     0.000 C
ATOM     80  C4  IDS C   5     157.792  46.188  58.6780  0.00  0.00     0.000 C
ATOM     81  C5  IDS C   5     158.551  46.407  59.9950  0.00  0.00     0.000 C
ATOM     82  O5  IDS C   5     158.320  47.727  60.4950  0.00  0.00     0.000 O
BRANCH 78 83
ATOM     83   O  IDS C   5     158.515  49.681  57.4310  0.00  0.00     0.000 O
ATOM     84   S  IDS C   5     157.059  50.327  57.3490  0.00  0.00     0.000 S
ATOM     85   O  IDS C   5     156.167  49.250  57.0140  0.00  0.00     0.000 OA
ATOM     86   O  IDS C   5     156.816  50.880  58.6610  0.00  0.00     0.000 OA
ATOM     87   O  IDS C   5     157.138  51.340  56.3250  0.00  0.00     0.000 OA
ENDBRANCH 78 83
BRANCH 81 88
ATOM     88   C  IDS C   5     158.174  45.429  61.0930  0.00  0.00     0.000 C
ATOM     89   O  IDS C   5     158.575  44.297  61.0500  0.00  0.00     0.000 OA
ATOM     90   O  IDS C   5     157.472  45.797  62.0070  0.00  0.00     0.000 OA
ENDBRANCH 81 88
ENDBRANCH 76 80
ENDBRANCH 56 76
ENDBRANCH 55 59
ENDBRANCH 39 55
ENDBRANCH 38 42
ENDBRANCH 18 38
ENDBRANCH 17 21
ENDBRANCH 1 17
TORSDOF 18
ENDMDL
MODEL 92
REMARK VINA RESULT:      -2.4     13.543     18.944
ROOT
ATOM      1  C1  IDS C   1     154.721  40.437  26.1240  0.00  0.00     0.000 C
ATOM      2  C2  IDS C   1     154.070  41.258  25.0080  0.00  0.00     0.000 C
ATOM      3  C3  IDS C   1     153.481  40.349  23.9400  0.00  0.00     0.000 C
ATOM      4  C4  IDS C   1     154.559  39.455  23.3420  0.00  0.00     0.000 C
ATOM      5  C5  IDS C   1     155.515  38.985  24.4350  0.00  0.00     0.000 C
ATOM      6  O5  IDS C   1     154.887  39.086  25.7130  0.00  0.00     0.000 O
ATOM      7   O  IDS C   1     152.874  41.140  22.9090  0.00  0.00     0.000 O
ATOM      9  HD  IDS C   1     152.507  41.832  23.2780  0.00  0.00     0.000 HD
ENDROOT
BRANCH 2 9
ATOM      9   O  IDS C   1     152.969  42.092  25.5410  0.00  0.00     0.000 O
ATOM     10   S  IDS C   1     152.969  43.662  25.2640  0.00  0.00     0.000 S
ATOM     11   O  IDS C   1     151.774  44.176  25.8950  0.00  0.00     0.000 OA
ATOM     12   O  IDS C   1     154.186  44.164  25.8700  0.00  0.00     0.000 OA
ATOM     13   O  IDS C   1     152.953  43.810  23.8260  0.00  0.00     0.000 OA
ENDBRANCH 2 9
BRANCH 5 14
ATOM     14   C  IDS C   1     155.959  37.547  24.2280  0.00  0.00     0.000 C
ATOM     15   O  IDS C   1     155.129  36.677  24.1360  0.00  0.00     0.000 OA
ATOM     16   O  IDS C   1     157.148  37.285  24.1600  0.00  0.00     0.000 OA
ENDBRANCH 5 14
BRANCH 1 17
ATOM     17  O4  SGN C   2     154.576  40.726  27.4210  0.00  0.00     0.000 O
BRANCH 17 21
ATOM     18  C1  SGN C   2     153.022  40.242  31.2770  0.00  0.00     0.000 C
ATOM     19  C2  SGN C   2     152.871  39.052  30.3220  0.00  0.00     0.000 C
ATOM     20  C3  SGN C   2     153.833  39.210  29.1380  0.00  0.00     0.000 C
ATOM     21  C4  SGN C   2     153.630  40.568  28.4750  0.00  0.00     0.000 C
ATOM     22  C5  SGN C   2     153.809  41.665  29.5200  0.00  0.00     0.000 C
ATOM     23  O5  SGN C   2     152.866  41.471  30.5990  0.00  0.00     0.000 O
ATOM     24   O  SGN C   2     153.634  38.157  28.2100  0.00  0.00     0.000 O
ATOM     26  HD  SGN C   2     154.089  38.716  28.6910  0.00  0.00     0.000 HD
BRANCH 19 28
ATOM     26   N  SGN C   2     152.619  37.952  31.2630  0.00  0.00     0.000 N
ATOM     28  HD  SGN C   2     152.251  38.637  31.6440  0.00  0.00     0.000 HD
ATOM     28   O  SGN C   2     152.170  35.528  31.6470  0.00  0.00     0.000 OA
ATOM     29   S  SGN C   2     151.548  36.791  30.9610  0.00  0.00     0.000 S
ATOM     30   O  SGN C   2     150.353  37.129  31.6360  0.00  0.00     0.000 OA
ATOM     31   O  SGN C   2     151.525  36.580  29.5550  0.00  0.00     0.000 OA
ENDBRANCH 19 28
BRANCH 22 32
ATOM     32   C  SGN C   2     153.571  43.053  28.9780  0.00  0.00     0.000 C
ATOM     33   S  SGN C   2     152.264  45.182  29.6090  0.00  0.00     0.000 S
ATOM     34   O  SGN C   2     151.007  44.620  29.1800  0.00  0.00     0.000 OA
ATOM     35   O  SGN C   2     152.162  45.985  30.8100  0.00  0.00     0.000 OA
ATOM     36   O  SGN C   2     153.014  45.821  28.5530  0.00  0.00     0.000 OA
ATOM     37   O  SGN C   2     153.136  43.915  30.0360  0.00  0.00     0.000 O
ENDBRANCH 22 32
BRANCH 18 38
ATOM     38  O4  IDS C   3     153.954  40.495  32.1980  0.00  0.00     0.000 O
BRANCH 38 42
ATOM     39  C1  IDS C   3     155.912  41.265  34.9730  0.00  0.00     0.000 C
ATOM     40  C2  IDS C   3     155.844  42.212  33.7650  0.00  0.00     0.000 C
ATOM     41  C3  IDS C   3     156.144  41.469  32.4630  0.00  0.00     0.000 C
ATOM     42  C4  IDS C   3     155.341  40.180  32.3670  0.00  0.00     0.000 C
ATOM     43  C5  IDS C   3     155.537  39.349  33.6410  0.00  0.00     0.000 C
ATOM     44  O5  IDS C   3     155.110  40.114  34.7670  0.00  0.00     0.000 O
ATOM     45   O  IDS C   3     157.541  41.174  32.3980  0.00  0.00     0.000 O
ATOM     47  HD  IDS C   3     158.104  40.762  32.9120  0.00  0.00     0.000 HD
BRANCH 40 47
ATOM     47   O  IDS C   3     154.489  42.800  33.6400  0.00  0.00     0.000 O
ATOM     48   S  IDS C   3     153.954  43.809  34.7580  0.00  0.00     0.000 S
ATOM     49   O  IDS C   3     153.572  42.987  35.8860  0.00  0.00     0.000 OA
ATOM     50   O  IDS C   3     152.823  44.480  34.1550  0.00  0.00     0.000 OA
ATOM     51   O  IDS C   3     155.044  44.698  35.0600  0.00  0.00     0.000 OA
ENDBRANCH 40 47
BRANCH 43 52
ATOM     52   C  IDS C   3     154.788  38.036  33.6060  0.00  0.00     0.000 C
ATOM     53   O  IDS C   3     155.210  37.119  32.9400  0.00  0.00     0.000 OA
ATOM     54   O  IDS C   3     153.773  37.910  34.2420  0.00  0.00     0.000 OA
ENDBRANCH 43 52
BRANCH 39 55
ATOM     55  O4  SGN C   4     157.026  41.033  35.6680  0.00  0.00     0.000 O
BRANCH 55 59
ATOM     56  C1  SGN C   4     156.736  40.060  39.7270  0.00  0.00     0.000 C
ATOM     57  C2  SGN C   4     156.414  41.515  39.3440  0.00  0.00     0.000 C
ATOM     58  C3  SGN C   4     156.171  41.638  37.8420  0.00  0.00     0.000 C
ATOM     59  C4  SGN C   4     157.315  41.004  37.0590  0.00  0.00     0.000 C
ATOM     60  C5  SGN C   4     157.489  39.560  37.5250  0.00  0.00     0.000 C
ATOM     61  O5  SGN C   4     157.806  39.575  38.9320  0.00  0.00     0.000 O
ATOM     62   O  SGN C   4     156.024  43.008  37.4950  0.00  0.00     0.000 O
ATOM     64  HD  SGN C   4     155.753  42.963  38.3170  0.00  0.00     0.000 HD
BRANCH 57 66
ATOM     64   N  SGN C   4     156.631  41.977  40.7250  0.00  0.00     0.000 N
ATOM     66  HD  SGN C   4     156.627  42.738  41.1370  0.00  0.00     0.000 HD
ATOM     66   S  SGN C   4     155.537  42.877  41.4600  0.00  0.00     0.000 S
ATOM     67   O  SGN C   4     156.051  43.211  42.7380  0.00  0.00     0.000 OA
ATOM     68   O  SGN C   4     155.179  43.916  40.5570  0.00  0.00     0.000 OA
ATOM     69   O  SGN C   4     154.316  41.916  41.6260  0.00  0.00     0.000 OA
ENDBRANCH 57 66
BRANCH 60 70
ATOM     70   C  SGN C   4     158.596  38.817  36.8100  0.00  0.00     0.000 C
ATOM     71   O  SGN C   4     158.264  36.698  33.7270  0.00  0.00     0.000 OA
ATOM     72   O  SGN C   4     159.089  38.966  33.8750  0.00  0.00     0.000 OA
ATOM     73   O  SGN C   4     158.050  37.951  35.7960  0.00  0.00     0.000 O
ATOM     74   S  SGN C   4     158.971  37.678  34.5190  0.00  0.00     0.000 S
ATOM     75   O  SGN C   4     160.222  37.187  35.0620  0.00  0.00     0.000 OA
ENDBRANCH 60 70
BRANCH 56 76
ATOM     76  O4  IDS C   5     156.027  38.997  40.1480  0.00  0.00     0.000 O
BRANCH 76 80
ATOM     77  C1  IDS C   5     154.108  36.687  37.3840  0.00  0.00     0.000 C
ATOM     78  C2  IDS C   5     153.218  37.718  38.0770  0.00  0.00     0.000 C
ATOM     79  C3  IDS C   5     154.076  38.784  38.7290  0.00  0.00     0.000 C
ATOM     80  C4  IDS C   5     154.897  38.161  39.8540  0.00  0.00     0.000 C
ATOM     81  C5  IDS C   5     155.362  36.761  39.4300  0.00  0.00     0.000 C
ATOM     82  O5  IDS C   5     155.393  36.652  38.0040  0.00  0.00     0.000 O
BRANCH 78 83
ATOM     83   O  IDS C   5     152.317  38.374  37.1010  0.00  0.00     0.000 O
ATOM     84   S  IDS C   5     150.741  38.141  37.1940  0.00  0.00     0.000 S
ATOM     85   O  IDS C   5     150.558  36.719  37.3120  0.00  0.00     0.000 OA
ATOM     86   O  IDS C   5     150.321  38.867  38.3700  0.00  0.00     0.000 OA
ATOM     87   O  IDS C   5     150.193  38.687  35.9770  0.00  0.00     0.000 OA
ENDBRANCH 78 83
BRANCH 81 88
ATOM     88   C  IDS C   5     156.738  36.385  39.9480  0.00  0.00     0.000 C
ATOM     89   O  IDS C   5     156.890  36.128  41.1120  0.00  0.00     0.000 OA
ATOM     90   O  IDS C   5     157.675  36.346  39.1840  0.00  0.00     0.000 OA
ENDBRANCH 81 88
ENDBRANCH 76 80
ENDBRANCH 56 76
ENDBRANCH 55 59
ENDBRANCH 39 55
ENDBRANCH 38 42
ENDBRANCH 18 38
ENDBRANCH 17 21
ENDBRANCH 1 17
TORSDOF 18
ENDMDL
MODEL 93
REMARK VINA RESULT:      -2.4     20.421     28.659
ROOT
ATOM      1  C1  IDS C   1     128.442  53.933  39.3780  0.00  0.00     0.000 C
ATOM      2  C2  IDS C   1     127.074  54.311  38.8040  0.00  0.00     0.000 C
ATOM      3  C3  IDS C   1     126.921  53.786  37.3840  0.00  0.00     0.000 C
ATOM      4  C4  IDS C   1     128.015  54.344  36.4840  0.00  0.00     0.000 C
ATOM      5  C5  IDS C   1     129.340  54.393  37.2390  0.00  0.00     0.000 C
ATOM      6  O5  IDS C   1     129.309  53.487  38.3430  0.00  0.00     0.000 O
ATOM      7   O  IDS C   1     125.632  54.149  36.8690  0.00  0.00     0.000 O
ATOM      9  HD  IDS C   1     125.058  54.104  37.5160  0.00  0.00     0.000 HD
ENDROOT
BRANCH 2 9
ATOM      9   O  IDS C   1     125.982  53.728  39.6150  0.00  0.00     0.000 O
ATOM     10   S  IDS C   1     124.835  54.679  40.1840  0.00  0.00     0.000 S
ATOM     11   O  IDS C   1     123.929  53.817  40.9090  0.00  0.00     0.000 OA
ATOM     12   O  IDS C   1     125.509  55.635  41.0380  0.00  0.00     0.000 OA
ATOM     13   O  IDS C   1     124.221  55.292  39.0260  0.00  0.00     0.000 OA
ENDBRANCH 2 9
BRANCH 5 14
ATOM     14   C  IDS C   1     130.519  54.032  36.3530  0.00  0.00     0.000 C
ATOM     15   O  IDS C   1     131.641  54.252  36.7380  0.00  0.00     0.000 OA
ATOM     16   O  IDS C   1     130.323  53.525  35.2610  0.00  0.00     0.000 OA
ENDBRANCH 5 14
BRANCH 1 17
ATOM     17  O4  SGN C   2     128.609  53.485  40.6260  0.00  0.00     0.000 O
BRANCH 17 21
ATOM     18  C1  SGN C   2     129.277  50.582  43.5680  0.00  0.00     0.000 C
ATOM     19  C2  SGN C   2     129.631  50.194  42.1270  0.00  0.00     0.000 C
ATOM     20  C3  SGN C   2     129.739  51.455  41.2610  0.00  0.00     0.000 C
ATOM     21  C4  SGN C   2     128.467  52.286  41.3840  0.00  0.00     0.000 C
ATOM     22  C5  SGN C   2     128.225  52.611  42.8550  0.00  0.00     0.000 C
ATOM     23  O5  SGN C   2     128.116  51.386  43.6150  0.00  0.00     0.000 O
ATOM     24   O  SGN C   2     129.981  51.094  39.9110  0.00  0.00     0.000 O
ATOM     26  HD  SGN C   2     130.077  51.552  40.6400  0.00  0.00     0.000 HD
BRANCH 19 28
ATOM     26   N  SGN C   2     130.523  49.047  42.3450  0.00  0.00     0.000 N
ATOM     28  HD  SGN C   2     129.949  48.987  42.9910  0.00  0.00     0.000 HD
ATOM     28   O  SGN C   2     131.986  47.266  41.3910  0.00  0.00     0.000 OA
ATOM     29   S  SGN C   2     130.495  47.746  41.4010  0.00  0.00     0.000 S
ATOM     30   O  SGN C   2     129.710  46.767  42.0480  0.00  0.00     0.000 OA
ATOM     31   O  SGN C   2     130.147  48.171  40.0890  0.00  0.00     0.000 OA
ENDBRANCH 19 28
BRANCH 22 32
ATOM     32   C  SGN C   2     126.952  53.386  43.0940  0.00  0.00     0.000 C
ATOM     33   S  SGN C   2     124.865  53.267  44.6010  0.00  0.00     0.000 S
ATOM     34   O  SGN C   2     124.271  52.216  43.8130  0.00  0.00     0.000 OA
ATOM     35   O  SGN C   2     124.657  53.113  46.0260  0.00  0.00     0.000 OA
ATOM     36   O  SGN C   2     124.579  54.598  44.1190  0.00  0.00     0.000 OA
ATOM     37   O  SGN C   2     126.436  53.075  44.3940  0.00  0.00     0.000 O
ENDBRANCH 22 32
BRANCH 18 38
ATOM     38  O4  IDS C   3     130.047  51.068  44.5440  0.00  0.00     0.000 O
BRANCH 38 42
ATOM     39  C1  IDS C   3     131.862  51.805  47.4230  0.00  0.00     0.000 C
ATOM     40  C2  IDS C   3     130.750  52.743  46.9260  0.00  0.00     0.000 C
ATOM     41  C3  IDS C   3     130.952  53.108  45.4560  0.00  0.00     0.000 C
ATOM     42  C4  IDS C   3     131.230  51.871  44.6140  0.00  0.00     0.000 C
ATOM     43  C5  IDS C   3     132.374  51.064  45.2390  0.00  0.00     0.000 C
ATOM     44  O5  IDS C   3     132.009  50.686  46.5650  0.00  0.00     0.000 O
ATOM     45   O  IDS C   3     132.042  54.025  45.3420  0.00  0.00     0.000 O
ATOM     47  HD  IDS C   3     132.873  54.021  45.5870  0.00  0.00     0.000 HD
BRANCH 40 47
ATOM     47   O  IDS C   3     129.426  52.088  47.0440  0.00  0.00     0.000 O
ATOM     48   S  IDS C   3     128.476  52.432  48.2840  0.00  0.00     0.000 S
ATOM     49   O  IDS C   3     129.017  51.705  49.4120  0.00  0.00     0.000 OA
ATOM     50   O  IDS C   3     127.163  51.960  47.9000  0.00  0.00     0.000 OA
ATOM     51   O  IDS C   3     128.536  53.859  48.4590  0.00  0.00     0.000 OA
ENDBRANCH 40 47
BRANCH 43 52
ATOM     52   C  IDS C   3     132.726  49.830  44.4380  0.00  0.00     0.000 C
ATOM     53   O  IDS C   3     133.283  49.942  43.3700  0.00  0.00     0.000 OA
ATOM     54   O  IDS C   3     132.450  48.739  44.8690  0.00  0.00     0.000 OA
ENDBRANCH 43 52
BRANCH 39 55
ATOM     55  O4  SGN C   4     133.006  52.233  47.9580  0.00  0.00     0.000 O
BRANCH 55 59
ATOM     56  C1  SGN C   4     134.186  50.480  51.5680  0.00  0.00     0.000 C
ATOM     57  C2  SGN C   4     133.124  51.589  51.6570  0.00  0.00     0.000 C
ATOM     58  C3  SGN C   4     132.505  51.857  50.2880  0.00  0.00     0.000 C
ATOM     59  C4  SGN C   4     133.591  52.089  49.2440  0.00  0.00     0.000 C
ATOM     60  C5  SGN C   4     134.543  50.895  49.2520  0.00  0.00     0.000 C
ATOM     61  O5  SGN C   4     135.135  50.797  50.5630  0.00  0.00     0.000 O
ATOM     62   O  SGN C   4     131.639  52.981  50.3690  0.00  0.00     0.000 O
ATOM     64  HD  SGN C   4     131.626  52.640  51.1650  0.00  0.00     0.000 HD
BRANCH 57 66
ATOM     64   N  SGN C   4     132.592  52.450  52.7260  0.00  0.00     0.000 N
ATOM     66  HD  SGN C   4     131.897  52.449  53.2420  0.00  0.00     0.000 HD
ATOM     66   S  SGN C   4     132.226  51.839  54.1540  0.00  0.00     0.000 S
ATOM     67   O  SGN C   4     131.686  52.888  54.9400  0.00  0.00     0.000 OA
ATOM     68   O  SGN C   4     131.449  50.671  53.9200  0.00  0.00     0.000 OA
ATOM     69   O  SGN C   4     133.609  51.410  54.7400  0.00  0.00     0.000 OA
ENDBRANCH 57 66
BRANCH 60 70
ATOM     70   C  SGN C   4     135.667  51.003  48.2450  0.00  0.00     0.000 C
ATOM     71   O  SGN C   4     138.441  48.533  47.6860  0.00  0.00     0.000 OA
ATOM     72   O  SGN C   4     136.441  48.829  46.3590  0.00  0.00     0.000 OA
ATOM     73   O  SGN C   4     136.648  49.972  48.4700  0.00  0.00     0.000 O
ATOM     74   S  SGN C   4     137.448  49.456  47.1860  0.00  0.00     0.000 S
ATOM     75   O  SGN C   4     138.016  50.652  46.5960  0.00  0.00     0.000 OA
ENDBRANCH 60 70
BRANCH 56 76
ATOM     76  O4  IDS C   5     134.198  49.144  51.7320  0.00  0.00     0.000 O
BRANCH 76 80
ATOM     77  C1  IDS C   5     134.227  46.665  48.4900  0.00  0.00     0.000 C
ATOM     78  C2  IDS C   5     132.839  46.932  49.0720  0.00  0.00     0.000 C
ATOM     79  C3  IDS C   5     132.879  48.166  49.9520  0.00  0.00     0.000 C
ATOM     80  C4  IDS C   5     133.764  47.898  51.1670  0.00  0.00     0.000 C
ATOM     81  C5  IDS C   5     134.972  47.053  50.7390  0.00  0.00     0.000 C
ATOM     82  O5  IDS C   5     135.231  47.216  49.3420  0.00  0.00     0.000 O
BRANCH 78 83
ATOM     83   O  IDS C   5     131.852  47.160  47.9910  0.00  0.00     0.000 O
ATOM     84   S  IDS C   5     130.570  46.218  47.8760  0.00  0.00     0.000 S
ATOM     85   O  IDS C   5     131.061  44.869  47.9600  0.00  0.00     0.000 OA
ATOM     86   O  IDS C   5     129.729  46.586  48.9910  0.00  0.00     0.000 OA
ATOM     87   O  IDS C   5     129.970  46.528  46.6010  0.00  0.00     0.000 OA
ENDBRANCH 78 83
BRANCH 81 88
ATOM     88   C  IDS C   5     136.251  47.387  51.4840  0.00  0.00     0.000 C
ATOM     89   O  IDS C   5     137.243  47.678  50.8700  0.00  0.00     0.000 OA
ATOM     90   O  IDS C   5     136.265  47.359  52.6930  0.00  0.00     0.000 OA
ENDBRANCH 81 88
ENDBRANCH 76 80
ENDBRANCH 56 76
ENDBRANCH 55 59
ENDBRANCH 39 55
ENDBRANCH 38 42
ENDBRANCH 18 38
ENDBRANCH 17 21
ENDBRANCH 1 17
TORSDOF 18
ENDMDL
MODEL 94
REMARK VINA RESULT:      -2.3     15.668     22.033
ROOT
ATOM      1  C1  IDS C   1     147.969  33.207  24.7640  0.00  0.00     0.000 C
ATOM      2  C2  IDS C   1     148.265  32.744  23.3350  0.00  0.00     0.000 C
ATOM      3  C3  IDS C   1     148.954  33.845  22.5420  0.00  0.00     0.000 C
ATOM      4  C4  IDS C   1     148.088  35.095  22.4950  0.00  0.00     0.000 C
ATOM      5  C5  IDS C   1     147.405  35.310  23.8420  0.00  0.00     0.000 C
ATOM      6  O5  IDS C   1     148.115  34.617  24.8690  0.00  0.00     0.000 O
ATOM      7   O  IDS C   1     149.226  33.386  21.2100  0.00  0.00     0.000 O
ATOM      9  HD  IDS C   1     149.439  32.548  21.2490  0.00  0.00     0.000 HD
ENDROOT
BRANCH 2 9
ATOM      9   O  IDS C   1     149.164  31.567  23.3390  0.00  0.00     0.000 O
ATOM     10   S  IDS C   1     148.741  30.256  22.5360  0.00  0.00     0.000 S
ATOM     11   O  IDS C   1     149.819  29.311  22.7230  0.00  0.00     0.000 OA
ATOM     12   O  IDS C   1     147.496  29.817  23.1340  0.00  0.00     0.000 OA
ATOM     13   O  IDS C   1     148.589  30.668  21.1580  0.00  0.00     0.000 OA
ENDBRANCH 2 9
BRANCH 5 14
ATOM     14   C  IDS C   1     147.328  36.780  24.2180  0.00  0.00     0.000 C
ATOM     15   O  IDS C   1     148.255  37.508  23.9600  0.00  0.00     0.000 OA
ATOM     16   O  IDS C   1     146.333  37.211  24.7780  0.00  0.00     0.000 OA
ENDBRANCH 5 14
BRANCH 1 17
ATOM     17  O4  SGN C   2     148.169  32.434  25.8360  0.00  0.00     0.000 O
BRANCH 17 21
ATOM     18  C1  SGN C   2     150.284  30.994  29.1490  0.00  0.00     0.000 C
ATOM     19  C2  SGN C   2     150.726  32.352  28.5890  0.00  0.00     0.000 C
ATOM     20  C3  SGN C   2     149.625  32.927  27.6900  0.00  0.00     0.000 C
ATOM     21  C4  SGN C   2     149.237  31.911  26.6210  0.00  0.00     0.000 C
ATOM     22  C5  SGN C   2     148.814  30.612  27.2980  0.00  0.00     0.000 C
ATOM     23  O5  SGN C   2     149.896  30.112  28.1170  0.00  0.00     0.000 O
ATOM     24   O  SGN C   2     150.066  34.139  27.1020  0.00  0.00     0.000 O
ATOM     26  HD  SGN C   2     149.508  33.602  27.4890  0.00  0.00     0.000 HD
BRANCH 19 28
ATOM     26   N  SGN C   2     151.891  33.072  29.1220  0.00  0.00     0.000 N
ATOM     28  HD  SGN C   2     152.097  32.934  28.2920  0.00  0.00     0.000 HD
ATOM     28   O  SGN C   2     152.816  34.774  30.6940  0.00  0.00     0.000 OA
ATOM     29   S  SGN C   2     151.846  34.641  29.4710  0.00  0.00     0.000 S
ATOM     30   O  SGN C   2     152.402  35.337  28.3750  0.00  0.00     0.000 OA
ATOM     31   O  SGN C   2     150.527  34.949  29.9030  0.00  0.00     0.000 OA
ENDBRANCH 19 28
BRANCH 22 32
ATOM     32   C  SGN C   2     148.463  29.515  26.3230  0.00  0.00     0.000 C
ATOM     33   S  SGN C   2     148.971  27.016  25.9520  0.00  0.00     0.000 S
ATOM     34   O  SGN C   2     150.285  27.290  25.4260  0.00  0.00     0.000 OA
ATOM     35   O  SGN C   2     148.918  25.839  26.7950  0.00  0.00     0.000 OA
ATOM     36   O  SGN C   2     147.919  27.063  24.9640  0.00  0.00     0.000 OA
ATOM     37   O  SGN C   2     148.678  28.238  26.9360  0.00  0.00     0.000 O
ENDBRANCH 22 32
BRANCH 18 38
ATOM     38  O4  IDS C   3     149.452  30.706  30.1520  0.00  0.00     0.000 O
BRANCH 38 42
ATOM     39  C1  IDS C   3     147.897  30.041  33.1960  0.00  0.00     0.000 C
ATOM     40  C2  IDS C   3     149.113  29.224  32.7330  0.00  0.00     0.000 C
ATOM     41  C3  IDS C   3     148.904  28.671  31.3240  0.00  0.00     0.000 C
ATOM     42  C4  IDS C   3     148.407  29.753  30.3760  0.00  0.00     0.000 C
ATOM     43  C5  IDS C   3     147.183  30.452  30.9810  0.00  0.00     0.000 C
ATOM     44  O5  IDS C   3     147.545  31.023  32.2370  0.00  0.00     0.000 O
ATOM     45   O  IDS C   3     147.960  27.600  31.3710  0.00  0.00     0.000 O
ATOM     47  HD  IDS C   3     147.150  27.511  31.6640  0.00  0.00     0.000 HD
BRANCH 40 47
ATOM     47   O  IDS C   3     150.329  30.072  32.7030  0.00  0.00     0.000 O
ATOM     48   S  IDS C   3     151.286  30.137  33.9820  0.00  0.00     0.000 S
ATOM     49   O  IDS C   3     150.619  31.000  34.9330  0.00  0.00     0.000 OA
ATOM     50   O  IDS C   3     152.528  30.701  33.5000  0.00  0.00     0.000 OA
ATOM     51   O  IDS C   3     151.424  28.786  34.4570  0.00  0.00     0.000 OA
ENDBRANCH 40 47
BRANCH 43 52
ATOM     52   C  IDS C   3     146.615  31.525  30.0790  0.00  0.00     0.000 C
ATOM     53   O  IDS C   3     145.917  31.216  29.1410  0.00  0.00     0.000 OA
ATOM     54   O  IDS C   3     146.860  32.683  30.3010  0.00  0.00     0.000 OA
ENDBRANCH 43 52
BRANCH 39 55
ATOM     55  O4  SGN C   4     146.855  29.514  33.8400  0.00  0.00     0.000 O
BRANCH 55 59
ATOM     56  C1  SGN C   4     144.121  30.911  36.6820  0.00  0.00     0.000 C
ATOM     57  C2  SGN C   4     145.501  31.589  36.6650  0.00  0.00     0.000 C
ATOM     58  C3  SGN C   4     146.240  31.280  35.3660  0.00  0.00     0.000 C
ATOM     59  C4  SGN C   4     146.258  29.779  35.1010  0.00  0.00     0.000 C
ATOM     60  C5  SGN C   4     144.821  29.261  35.1160  0.00  0.00     0.000 C
ATOM     61  O5  SGN C   4     144.258  29.524  36.4170  0.00  0.00     0.000 O
ATOM     62   O  SGN C   4     147.564  31.792  35.4380  0.00  0.00     0.000 O
ATOM     64  HD  SGN C   4     147.103  32.311  35.9550  0.00  0.00     0.000 HD
BRANCH 57 66
ATOM     64   N  SGN C   4     145.522  32.074  38.0540  0.00  0.00     0.000 N
ATOM     66  HD  SGN C   4     146.024  32.599  38.5260  0.00  0.00     0.000 HD
ATOM     66   S  SGN C   4     145.569  33.638  38.3680  0.00  0.00     0.000 S
ATOM     67   O  SGN C   4     145.643  33.787  39.7750  0.00  0.00     0.000 OA
ATOM     68   O  SGN C   4     146.591  34.195  37.5510  0.00  0.00     0.000 OA
ATOM     69   O  SGN C   4     144.186  34.159  37.8630  0.00  0.00     0.000 OA
ENDBRANCH 57 66
BRANCH 60 70
ATOM     70   C  SGN C   4     144.704  27.775  34.8550  0.00  0.00     0.000 C
ATOM     71   O  SGN C   4     143.086  26.126  31.8940  0.00  0.00     0.000 OA
ATOM     72   O  SGN C   4     145.448  26.463  32.2840  0.00  0.00     0.000 OA
ATOM     73   O  SGN C   4     143.840  27.527  33.7290  0.00  0.00     0.000 O
ATOM     74   S  SGN C   4     144.149  26.216  32.8680  0.00  0.00     0.000 S
ATOM     75   O  SGN C   4     144.145  25.131  33.8290  0.00  0.00     0.000 OA
ENDBRANCH 60 70
BRANCH 56 76
ATOM     76  O4  IDS C   5     142.869  31.268  36.3400  0.00  0.00     0.000 O
BRANCH 76 80
ATOM     77  C1  IDS C   5     141.590  30.644  32.5150  0.00  0.00     0.000 C
ATOM     78  C2  IDS C   5     142.080  32.064  32.7960  0.00  0.00     0.000 C
ATOM     79  C3  IDS C   5     142.919  32.078  34.0580  0.00  0.00     0.000 C
ATOM     80  C4  IDS C   5     142.045  31.726  35.2570  0.00  0.00     0.000 C
ATOM     81  C5  IDS C   5     141.040  30.638  34.8520  0.00  0.00     0.000 C
ATOM     82  O5  IDS C   5     141.527  29.897  33.7290  0.00  0.00     0.000 O
BRANCH 78 83
ATOM     83   O  IDS C   5     142.910  32.564  31.6750  0.00  0.00     0.000 O
ATOM     84   S  IDS C   5     143.442  34.067  31.6910  0.00  0.00     0.000 S
ATOM     85   O  IDS C   5     142.301  34.887  31.9980  0.00  0.00     0.000 OA
ATOM     86   O  IDS C   5     144.457  34.099  32.7180  0.00  0.00     0.000 OA
ATOM     87   O  IDS C   5     143.977  34.307  30.3730  0.00  0.00     0.000 OA
ENDBRANCH 78 83
BRANCH 81 88
ATOM     88   C  IDS C   5     140.729  29.644  35.9560  0.00  0.00     0.000 C
ATOM     89   O  IDS C   5     140.057  29.982  36.8940  0.00  0.00     0.000 OA
ATOM     90   O  IDS C   5     141.160  28.516  35.8850  0.00  0.00     0.000 OA
ENDBRANCH 81 88
ENDBRANCH 76 80
ENDBRANCH 56 76
ENDBRANCH 55 59
ENDBRANCH 39 55
ENDBRANCH 38 42
ENDBRANCH 18 38
ENDBRANCH 17 21
ENDBRANCH 1 17
TORSDOF 18
ENDMDL
MODEL 95
REMARK VINA RESULT:      -2.2     21.732     29.411
ROOT
ATOM      1  C1  IDS C   1     127.996  53.369  37.1860  0.00  0.00     0.000 C
ATOM      2  C2  IDS C   1     126.670  53.906  36.6400  0.00  0.00     0.000 C
ATOM      3  C3  IDS C   1     126.453  53.452  35.2040  0.00  0.00     0.000 C
ATOM      4  C4  IDS C   1     127.593  53.927  34.3130  0.00  0.00     0.000 C
ATOM      5  C5  IDS C   1     128.920  53.813  35.0550  0.00  0.00     0.000 C
ATOM      6  O5  IDS C   1     128.805  52.876  36.1260  0.00  0.00     0.000 O
ATOM      7   O  IDS C   1     125.205  53.964  34.7170  0.00  0.00     0.000 O
ATOM      9  HD  IDS C   1     124.634  53.955  35.3680  0.00  0.00     0.000 HD
ENDROOT
BRANCH 2 9
ATOM      9   O  IDS C   1     125.530  53.409  37.4430  0.00  0.00     0.000 O
ATOM     10   S  IDS C   1     124.489  54.451  38.0540  0.00  0.00     0.000 S
ATOM     11   O  IDS C   1     123.504  53.660  38.7590  0.00  0.00     0.000 OA
ATOM     12   O  IDS C   1     125.262  55.304  38.9330  0.00  0.00     0.000 OA
ATOM     13   O  IDS C   1     123.932  55.162  36.9240  0.00  0.00     0.000 OA
ENDBRANCH 2 9
BRANCH 5 14
ATOM     14   C  IDS C   1     130.050  53.365  34.1430  0.00  0.00     0.000 C
ATOM     15   O  IDS C   1     131.193  53.479  34.5140  0.00  0.00     0.000 OA
ATOM     16   O  IDS C   1     129.794  52.898  33.0460  0.00  0.00     0.000 OA
ENDBRANCH 5 14
BRANCH 1 17
ATOM     17  O4  SGN C   2     128.125  52.862  38.4150  0.00  0.00     0.000 O
BRANCH 17 21
ATOM     18  C1  SGN C   2     128.490  49.808  41.2560  0.00  0.00     0.000 C
ATOM     19  C2  SGN C   2     128.802  49.434  39.8010  0.00  0.00     0.000 C
ATOM     20  C3  SGN C   2     129.039  50.706  38.9770  0.00  0.00     0.000 C
ATOM     21  C4  SGN C   2     127.860  51.659  39.1330  0.00  0.00     0.000 C
ATOM     22  C5  SGN C   2     127.653  51.958  40.6150  0.00  0.00     0.000 C
ATOM     23  O5  SGN C   2     127.419  50.725  41.3340  0.00  0.00     0.000 O
ATOM     24   O  SGN C   2     129.242  50.367  37.6160  0.00  0.00     0.000 O
ATOM     26  HD  SGN C   2     129.386  50.788  38.3590  0.00  0.00     0.000 HD
BRANCH 19 28
ATOM     26   N  SGN C   2     129.574  48.197  39.9780  0.00  0.00     0.000 N
ATOM     28  HD  SGN C   2     129.002  48.177  40.6280  0.00  0.00     0.000 HD
ATOM     28   O  SGN C   2     130.841  46.304  38.9590  0.00  0.00     0.000 OA
ATOM     29   S  SGN C   2     129.407  46.932  38.9980  0.00  0.00     0.000 S
ATOM     30   O  SGN C   2     128.531  46.020  39.6270  0.00  0.00     0.000 OA
ATOM     31   O  SGN C   2     129.093  47.429  37.7030  0.00  0.00     0.000 OA
ENDBRANCH 19 28
BRANCH 22 32
ATOM     32   C  SGN C   2     126.468  52.852  40.8850  0.00  0.00     0.000 C
ATOM     33   S  SGN C   2     124.418  52.935  42.4460  0.00  0.00     0.000 S
ATOM     34   O  SGN C   2     123.706  51.945  41.6760  0.00  0.00     0.000 OA
ATOM     35   O  SGN C   2     124.234  52.802  43.8760  0.00  0.00     0.000 OA
ATOM     36   O  SGN C   2     124.249  54.287  41.9680  0.00  0.00     0.000 OA
ATOM     37   O  SGN C   2     125.958  52.592  42.1980  0.00  0.00     0.000 O
ENDBRANCH 22 32
BRANCH 18 38
ATOM     38  O4  IDS C   3     129.306  50.178  42.2450  0.00  0.00     0.000 O
BRANCH 38 42
ATOM     39  C1  IDS C   3     131.131  50.690  45.1670  0.00  0.00     0.000 C
ATOM     40  C2  IDS C   3     130.225  51.792  44.5950  0.00  0.00     0.000 C
ATOM     41  C3  IDS C   3     130.538  52.057  43.1230  0.00  0.00     0.000 C
ATOM     42  C4  IDS C   3     130.613  50.757  42.3340  0.00  0.00     0.000 C
ATOM     43  C5  IDS C   3     131.571  49.782  43.0300  0.00  0.00     0.000 C
ATOM     44  O5  IDS C   3     131.100  49.529  44.3520  0.00  0.00     0.000 O
ATOM     45   O  IDS C   3     131.780  52.755  43.0210  0.00  0.00     0.000 O
ATOM     47  HD  IDS C   3     132.587  52.612  43.2980  0.00  0.00     0.000 HD
BRANCH 40 47
ATOM     47   O  IDS C   3     128.801  51.393  44.6830  0.00  0.00     0.000 O
ATOM     48   S  IDS C   3     128.050  51.427  46.0950  0.00  0.00     0.000 S
ATOM     49   O  IDS C   3     128.499  50.253  46.8120  0.00  0.00     0.000 OA
ATOM     50   O  IDS C   3     126.640  51.376  45.7780  0.00  0.00     0.000 OA
ATOM     51   O  IDS C   3     128.442  52.655  46.7340  0.00  0.00     0.000 OA
ENDBRANCH 40 47
BRANCH 43 52
ATOM     52   C  IDS C   3     131.718  48.473  42.2850  0.00  0.00     0.000 C
ATOM     53   O  IDS C   3     132.418  48.416  41.3000  0.00  0.00     0.000 OA
ATOM     54   O  IDS C   3     131.137  47.494  42.6770  0.00  0.00     0.000 OA
ENDBRANCH 43 52
BRANCH 39 55
ATOM     55  O4  SGN C   4     132.316  50.925  45.7310  0.00  0.00     0.000 O
BRANCH 55 59
ATOM     56  C1  SGN C   4     132.762  49.541  49.6530  0.00  0.00     0.000 C
ATOM     57  C2  SGN C   4     132.145  50.940  49.4840  0.00  0.00     0.000 C
ATOM     58  C3  SGN C   4     131.678  51.155  48.0470  0.00  0.00     0.000 C
ATOM     59  C4  SGN C   4     132.795  50.821  47.0640  0.00  0.00     0.000 C
ATOM     60  C5  SGN C   4     133.277  49.398  47.3340  0.00  0.00     0.000 C
ATOM     61  O5  SGN C   4     133.778  49.339  48.6850  0.00  0.00     0.000 O
ATOM     62   O  SGN C   4     131.251  52.501  47.8820  0.00  0.00     0.000 O
ATOM     64  HD  SGN C   4     131.109  52.329  48.7190  0.00  0.00     0.000 HD
BRANCH 57 66
ATOM     64   N  SGN C   4     132.470  51.313  50.8700  0.00  0.00     0.000 N
ATOM     66  HD  SGN C   4     132.386  52.020  51.3630  0.00  0.00     0.000 HD
ATOM     66   S  SGN C   4     131.347  51.912  51.8340  0.00  0.00     0.000 S
ATOM     67   O  SGN C   4     131.970  52.227  53.0670  0.00  0.00     0.000 OA
ATOM     68   O  SGN C   4     130.677  52.934  51.1070  0.00  0.00     0.000 OA
ATOM     69   O  SGN C   4     130.362  50.717  52.0420  0.00  0.00     0.000 OA
ENDBRANCH 57 66
BRANCH 60 70
ATOM     70   C  SGN C   4     134.386  48.943  46.4100  0.00  0.00     0.000 C
ATOM     71   O  SGN C   4     135.331  45.401  45.5940  0.00  0.00     0.000 OA
ATOM     72   O  SGN C   4     134.038  46.931  44.2400  0.00  0.00     0.000 OA
ATOM     73   O  SGN C   4     134.577  47.519  46.5130  0.00  0.00     0.000 O
ATOM     74   S  SGN C   4     135.105  46.773  45.2010  0.00  0.00     0.000 S
ATOM     75   O  SGN C   4     136.318  47.477  44.8380  0.00  0.00     0.000 OA
ENDBRANCH 60 70
BRANCH 56 76
ATOM     76  O4  IDS C   5     132.311  48.329  50.0290  0.00  0.00     0.000 O
BRANCH 76 80
ATOM     77  C1  IDS C   5     130.932  45.561  47.3660  0.00  0.00     0.000 C
ATOM     78  C2  IDS C   5     129.856  46.488  47.9310  0.00  0.00     0.000 C
ATOM     79  C3  IDS C   5     130.504  47.718  48.5370  0.00  0.00     0.000 C
ATOM     80  C4  IDS C   5     131.339  47.311  49.7470  0.00  0.00     0.000 C
ATOM     81  C5  IDS C   5     132.033  45.972  49.4590  0.00  0.00     0.000 C
ATOM     82  O5  IDS C   5     132.168  45.769  48.0490  0.00  0.00     0.000 O
BRANCH 78 83
ATOM     83   O  IDS C   5     128.928  46.926  46.8620  0.00  0.00     0.000 O
ATOM     84   S  IDS C   5     127.366  46.636  47.0010  0.00  0.00     0.000 S
ATOM     85   O  IDS C   5     127.251  45.247  47.3570  0.00  0.00     0.000 OA
ATOM     86   O  IDS C   5     126.906  47.528  48.0390  0.00  0.00     0.000 OA
ATOM     87   O  IDS C   5     126.795  46.943  45.7120  0.00  0.00     0.000 OA
ENDBRANCH 78 83
BRANCH 81 88
ATOM     88   C  IDS C   5     133.417  45.851  50.0720  0.00  0.00     0.000 C
ATOM     89   O  IDS C   5     134.390  45.902  49.3690  0.00  0.00     0.000 OA
ATOM     90   O  IDS C   5     133.531  45.706  51.2680  0.00  0.00     0.000 OA
ENDBRANCH 81 88
ENDBRANCH 76 80
ENDBRANCH 56 76
ENDBRANCH 55 59
ENDBRANCH 39 55
ENDBRANCH 38 42
ENDBRANCH 18 38
ENDBRANCH 17 21
ENDBRANCH 1 17
TORSDOF 18
ENDMDL
MODEL 96
REMARK VINA RESULT:      -2.1     13.259     19.847
ROOT
ATOM      1  C1  IDS C   1     167.703  42.871  45.4990  0.00  0.00     0.000 C
ATOM      2  C2  IDS C   1     166.716  43.255  44.3930  0.00  0.00     0.000 C
ATOM      3  C3  IDS C   1     167.410  44.059  43.3040  0.00  0.00     0.000 C
ATOM      4  C4  IDS C   1     168.031  45.323  43.8820  0.00  0.00     0.000 C
ATOM      5  C5  IDS C   1     168.642  45.027  45.2490  0.00  0.00     0.000 C
ATOM      6  O5  IDS C   1     168.900  43.629  45.3790  0.00  0.00     0.000 O
ATOM      7   O  IDS C   1     166.466  44.402  42.2790  0.00  0.00     0.000 O
ATOM      9  HD  IDS C   1     165.917  43.739  42.1810  0.00  0.00     0.000 HD
ENDROOT
BRANCH 2 9
ATOM      9   O  IDS C   1     166.140  42.047  43.7590  0.00  0.00     0.000 O
ATOM     10   S  IDS C   1     166.919  41.348  42.5550  0.00  0.00     0.000 S
ATOM     11   O  IDS C   1     166.116  40.208  42.1730  0.00  0.00     0.000 OA
ATOM     12   O  IDS C   1     167.007  42.350  41.5130  0.00  0.00     0.000 OA
ATOM     13   O  IDS C   1     168.210  40.972  43.0860  0.00  0.00     0.000 OA
ENDBRANCH 2 9
BRANCH 5 14
ATOM     14   C  IDS C   1     169.943  45.780  45.4700  0.00  0.00     0.000 C
ATOM     15   O  IDS C   1     170.956  45.162  45.6930  0.00  0.00     0.000 OA
ATOM     16   O  IDS C   1     169.953  46.998  45.4220  0.00  0.00     0.000 OA
ENDBRANCH 5 14
BRANCH 1 17
ATOM     17  O4  SGN C   2     167.735  41.658  46.0570  0.00  0.00     0.000 O
BRANCH 17 21
ATOM     18  C1  SGN C   2     169.466  38.019  47.1910  0.00  0.00     0.000 C
ATOM     19  C2  SGN C   2     170.430  39.170  46.8780  0.00  0.00     0.000 C
ATOM     20  C3  SGN C   2     169.672  40.503  46.9020  0.00  0.00     0.000 C
ATOM     21  C4  SGN C   2     168.464  40.437  45.9740  0.00  0.00     0.000 C
ATOM     22  C5  SGN C   2     167.584  39.261  46.3870  0.00  0.00     0.000 C
ATOM     23  O5  SGN C   2     168.347  38.034  46.3290  0.00  0.00     0.000 O
ATOM     24   O  SGN C   2     170.542  41.559  46.5280  0.00  0.00     0.000 O
ATOM     26  HD  SGN C   2     169.922  41.166  46.9880  0.00  0.00     0.000 HD
BRANCH 19 28
ATOM     26   N  SGN C   2     171.664  38.700  47.5230  0.00  0.00     0.000 N
ATOM     28  HD  SGN C   2     171.295  37.974  47.2300  0.00  0.00     0.000 HD
ATOM     28   O  SGN C   2     174.053  39.106  48.1150  0.00  0.00     0.000 OA
ATOM     29   S  SGN C   2     173.116  38.935  46.8720  0.00  0.00     0.000 S
ATOM     30   O  SGN C   2     173.475  37.749  46.1950  0.00  0.00     0.000 OA
ATOM     31   O  SGN C   2     173.076  40.166  46.1610  0.00  0.00     0.000 OA
ENDBRANCH 19 28
BRANCH 22 32
ATOM     32   C  SGN C   2     166.383  39.069  45.4920  0.00  0.00     0.000 C
ATOM     33   S  SGN C   2     163.818  38.923  45.6940  0.00  0.00     0.000 S
ATOM     34   O  SGN C   2     163.866  37.574  46.1970  0.00  0.00     0.000 OA
ATOM     35   O  SGN C   2     162.808  39.745  46.3290  0.00  0.00     0.000 OA
ATOM     36   O  SGN C   2     163.811  39.015  44.2530  0.00  0.00     0.000 OA
ATOM     37   O  SGN C   2     165.209  39.562  46.1480  0.00  0.00     0.000 O
ENDBRANCH 22 32
BRANCH 18 38
ATOM     38  O4  IDS C   3     168.970  37.603  48.3590  0.00  0.00     0.000 O
BRANCH 38 42
ATOM     39  C1  IDS C   3     168.180  36.032  51.3640  0.00  0.00     0.000 C
ATOM     40  C2  IDS C   3     167.127  36.199  50.2580  0.00  0.00     0.000 C
ATOM     41  C3  IDS C   3     167.035  37.654  49.7970  0.00  0.00     0.000 C
ATOM     42  C4  IDS C   3     168.416  38.231  49.5200  0.00  0.00     0.000 C
ATOM     43  C5  IDS C   3     169.330  37.996  50.7280  0.00  0.00     0.000 C
ATOM     44  O5  IDS C   3     169.423  36.594  50.9770  0.00  0.00     0.000 O
ATOM     45   O  IDS C   3     166.381  38.428  50.8040  0.00  0.00     0.000 O
ATOM     47  HD  IDS C   3     166.512  38.571  51.6480  0.00  0.00     0.000 HD
BRANCH 40 47
ATOM     47   O  IDS C   3     167.480  35.379  49.0750  0.00  0.00     0.000 O
ATOM     48   S  IDS C   3     166.969  33.867  48.9730  0.00  0.00     0.000 S
ATOM     49   O  IDS C   3     167.824  33.099  49.8520  0.00  0.00     0.000 OA
ATOM     50   O  IDS C   3     167.134  33.503  47.5830  0.00  0.00     0.000 OA
ATOM     51   O  IDS C   3     165.594  33.873  49.3970  0.00  0.00     0.000 OA
ENDBRANCH 40 47
BRANCH 43 52
ATOM     52   C  IDS C   3     170.716  38.570  50.5360  0.00  0.00     0.000 C
ATOM     53   O  IDS C   3     171.678  37.837  50.5360  0.00  0.00     0.000 OA
ATOM     54   O  IDS C   3     170.855  39.757  50.3820  0.00  0.00     0.000 OA
ENDBRANCH 43 52
BRANCH 39 55
ATOM     55  O4  SGN C   4     167.911  36.153  52.6650  0.00  0.00     0.000 O
BRANCH 55 59
ATOM     56  C1  SGN C   4     170.332  33.966  55.2840  0.00  0.00     0.000 C
ATOM     57  C2  SGN C   4     169.167  33.206  54.6280  0.00  0.00     0.000 C
ATOM     58  C3  SGN C   4     168.624  33.977  53.4280  0.00  0.00     0.000 C
ATOM     59  C4  SGN C   4     168.315  35.420  53.8120  0.00  0.00     0.000 C
ATOM     60  C5  SGN C   4     169.571  36.047  54.4150  0.00  0.00     0.000 C
ATOM     61  O5  SGN C   4     169.934  35.293  55.5890  0.00  0.00     0.000 O
ATOM     62   O  SGN C   4     167.459  33.330  52.9330  0.00  0.00     0.000 O
ATOM     64  HD  SGN C   4     167.925  32.694  53.2910  0.00  0.00     0.000 HD
BRANCH 57 66
ATOM     64   N  SGN C   4     169.366  32.159  55.6430  0.00  0.00     0.000 N
ATOM     66  HD  SGN C   4     168.921  31.474  55.9310  0.00  0.00     0.000 HD
ATOM     66   S  SGN C   4     169.258  30.616  55.2510  0.00  0.00     0.000 S
ATOM     67   O  SGN C   4     169.434  29.862  56.4380  0.00  0.00     0.000 OA
ATOM     68   O  SGN C   4     168.064  30.461  54.4950  0.00  0.00     0.000 OA
ATOM     69   O  SGN C   4     170.481  30.388  54.3050  0.00  0.00     0.000 OA
ENDBRANCH 57 66
BRANCH 60 70
ATOM     70   C  SGN C   4     169.393  37.491  54.8310  0.00  0.00     0.000 C
ATOM     71   O  SGN C   4     170.443  39.049  58.0830  0.00  0.00     0.000 OA
ATOM     72   O  SGN C   4     171.569  39.193  55.9480  0.00  0.00     0.000 OA
ATOM     73   O  SGN C   4     169.729  37.662  56.2210  0.00  0.00     0.000 O
ATOM     74   S  SGN C   4     170.307  39.091  56.6450  0.00  0.00     0.000 S
ATOM     75   O  SGN C   4     169.316  40.043  56.1860  0.00  0.00     0.000 OA
ENDBRANCH 60 70
BRANCH 56 76
ATOM     76  O4  IDS C   5     171.672  33.960  55.1660  0.00  0.00     0.000 O
BRANCH 76 80
ATOM     77  C1  IDS C   5     175.723  34.437  55.3170  0.00  0.00     0.000 C
ATOM     78  C2  IDS C   5     174.923  35.699  55.6410  0.00  0.00     0.000 C
ATOM     79  C3  IDS C   5     173.495  35.328  55.9880  0.00  0.00     0.000 C
ATOM     80  C4  IDS C   5     172.808  34.738  54.7590  0.00  0.00     0.000 C
ATOM     81  C5  IDS C   5     173.807  33.865  53.9870  0.00  0.00     0.000 C
ATOM     82  O5  IDS C   5     174.849  33.408  54.8550  0.00  0.00     0.000 O
BRANCH 78 83
ATOM     83   O  IDS C   5     175.515  36.412  56.7970  0.00  0.00     0.000 O
ATOM     84   S  IDS C   5     175.996  37.925  56.6340  0.00  0.00     0.000 S
ATOM     85   O  IDS C   5     176.796  37.959  55.4390  0.00  0.00     0.000 OA
ATOM     86   O  IDS C   5     174.781  38.698  56.5260  0.00  0.00     0.000 OA
ATOM     87   O  IDS C   5     176.744  38.228  57.8300  0.00  0.00     0.000 OA
ENDBRANCH 78 83
BRANCH 81 88
ATOM     88   C  IDS C   5     173.184  32.644  53.3370  0.00  0.00     0.000 C
ATOM     89   O  IDS C   5     173.473  31.544  53.7280  0.00  0.00     0.000 OA
ATOM     90   O  IDS C   5     172.398  32.785  52.4280  0.00  0.00     0.000 OA
ENDBRANCH 81 88
ENDBRANCH 76 80
ENDBRANCH 56 76
ENDBRANCH 55 59
ENDBRANCH 39 55
ENDBRANCH 38 42
ENDBRANCH 18 38
ENDBRANCH 17 21
ENDBRANCH 1 17
TORSDOF 18
ENDMDL
MODEL 97
REMARK VINA RESULT:      -2.1      9.168     15.390
ROOT
ATOM      1  C1  IDS C   1     154.303  47.813  36.1250  0.00  0.00     0.000 C
ATOM      2  C2  IDS C   1     153.617  49.117  36.5430  0.00  0.00     0.000 C
ATOM      3  C3  IDS C   1     153.324  49.986  35.3280  0.00  0.00     0.000 C
ATOM      4  C4  IDS C   1     154.608  50.312  34.5790  0.00  0.00     0.000 C
ATOM      5  C5  IDS C   1     155.526  49.094  34.5580  0.00  0.00     0.000 C
ATOM      6  O5  IDS C   1     154.768  47.905  34.7850  0.00  0.00     0.000 O
ATOM      7   O  IDS C   1     152.678  51.198  35.7430  0.00  0.00     0.000 O
ATOM      9  HD  IDS C   1     152.148  51.012  36.4030  0.00  0.00     0.000 HD
ENDROOT
BRANCH 2 9
ATOM      9   O  IDS C   1     152.327  48.842  37.2160  0.00  0.00     0.000 O
ATOM     10   S  IDS C   1     152.045  49.468  38.6550  0.00  0.00     0.000 S
ATOM     11   O  IDS C   1     150.717  49.031  39.0240  0.00  0.00     0.000 OA
ATOM     12   O  IDS C   1     153.076  48.935  39.5210  0.00  0.00     0.000 OA
ATOM     13   O  IDS C   1     152.136  50.902  38.4860  0.00  0.00     0.000 OA
ENDBRANCH 2 9
BRANCH 5 14
ATOM     14   C  IDS C   1     156.260  48.951  33.2350  0.00  0.00     0.000 C
ATOM     15   O  IDS C   1     156.355  47.863  32.7240  0.00  0.00     0.000 OA
ATOM     16   O  IDS C   1     156.747  49.935  32.7050  0.00  0.00     0.000 OA
ENDBRANCH 5 14
BRANCH 1 17
ATOM     17  O4  SGN C   2     153.978  46.624  36.6390  0.00  0.00     0.000 O
BRANCH 17 21
ATOM     18  C1  SGN C   2     152.171  42.847  36.6540  0.00  0.00     0.000 C
ATOM     19  C2  SGN C   2     152.352  43.517  35.2860  0.00  0.00     0.000 C
ATOM     20  C3  SGN C   2     153.378  44.651  35.3940  0.00  0.00     0.000 C
ATOM     21  C4  SGN C   2     152.981  45.614  36.5080  0.00  0.00     0.000 C
ATOM     22  C5  SGN C   2     152.837  44.834  37.8120  0.00  0.00     0.000 C
ATOM     23  O5  SGN C   2     151.847  43.792  37.6520  0.00  0.00     0.000 O
ATOM     24   O  SGN C   2     153.482  45.327  34.1520  0.00  0.00     0.000 O
ATOM     26  HD  SGN C   2     153.769  44.961  34.8830  0.00  0.00     0.000 HD
BRANCH 19 28
ATOM     26   N  SGN C   2     152.671  42.491  34.2840  0.00  0.00     0.000 N
ATOM     28  HD  SGN C   2     152.821  42.094  35.0390  0.00  0.00     0.000 HD
ATOM     28   O  SGN C   2     152.223  41.471  32.0510  0.00  0.00     0.000 OA
ATOM     29   S  SGN C   2     151.534  41.738  33.4320  0.00  0.00     0.000 S
ATOM     30   O  SGN C   2     151.283  40.498  34.0590  0.00  0.00     0.000 OA
ATOM     31   O  SGN C   2     150.465  42.655  33.2350  0.00  0.00     0.000 OA
ENDBRANCH 19 28
BRANCH 22 32
ATOM     32   C  SGN C   2     152.388  45.688  38.9720  0.00  0.00     0.000 C
ATOM     33   S  SGN C   2     150.639  45.622  40.8640  0.00  0.00     0.000 S
ATOM     34   O  SGN C   2     149.562  45.975  39.9740  0.00  0.00     0.000 OA
ATOM     35   O  SGN C   2     150.270  44.640  41.8620  0.00  0.00     0.000 OA
ATOM     36   O  SGN C   2     151.349  46.756  41.4080  0.00  0.00     0.000 OA
ATOM     37   O  SGN C   2     151.695  44.876  39.9280  0.00  0.00     0.000 O
ENDBRANCH 22 32
BRANCH 18 38
ATOM     38  O4  IDS C   3     152.940  41.958  37.2870  0.00  0.00     0.000 O
BRANCH 38 42
ATOM     39  C1  IDS C   3     154.687  39.227  38.5590  0.00  0.00     0.000 C
ATOM     40  C2  IDS C   3     153.206  39.452  38.9060  0.00  0.00     0.000 C
ATOM     41  C3  IDS C   3     152.972  40.866  39.4370  0.00  0.00     0.000 C
ATOM     42  C4  IDS C   3     153.629  41.907  38.5400  0.00  0.00     0.000 C
ATOM     43  C5  IDS C   3     155.101  41.541  38.3130  0.00  0.00     0.000 C
ATOM     44  O5  IDS C   3     155.174  40.251  37.7080  0.00  0.00     0.000 O
ATOM     45   O  IDS C   3     153.498  40.968  40.7610  0.00  0.00     0.000 O
ATOM     47  HD  IDS C   3     154.270  40.823  41.1260  0.00  0.00     0.000 HD
BRANCH 40 47
ATOM     47   O  IDS C   3     152.358  39.281  37.7030  0.00  0.00     0.000 O
ATOM     48   S  IDS C   3     151.555  37.916  37.4830  0.00  0.00     0.000 S
ATOM     49   O  IDS C   3     152.531  36.952  37.0210  0.00  0.00     0.000 OA
ATOM     50   O  IDS C   3     150.558  38.218  36.4790  0.00  0.00     0.000 OA
ATOM     51   O  IDS C   3     150.987  37.568  38.7580  0.00  0.00     0.000 OA
ENDBRANCH 40 47
BRANCH 43 52
ATOM     52   C  IDS C   3     155.829  42.549  37.4520  0.00  0.00     0.000 C
ATOM     53   O  IDS C   3     156.101  43.639  37.8980  0.00  0.00     0.000 OA
ATOM     54   O  IDS C   3     156.135  42.259  36.3230  0.00  0.00     0.000 OA
ENDBRANCH 43 52
BRANCH 39 55
ATOM     55  O4  SGN C   4     155.588  38.770  39.4280  0.00  0.00     0.000 O
BRANCH 55 59
ATOM     56  C1  SGN C   4     157.780  35.717  41.2660  0.00  0.00     0.000 C
ATOM     57  C2  SGN C   4     158.015  35.921  39.7600  0.00  0.00     0.000 C
ATOM     58  C3  SGN C   4     157.480  37.277  39.3070  0.00  0.00     0.000 C
ATOM     59  C4  SGN C   4     156.038  37.465  39.7640  0.00  0.00     0.000 C
ATOM     60  C5  SGN C   4     155.973  37.265  41.2770  0.00  0.00     0.000 C
ATOM     61  O5  SGN C   4     156.412  35.925  41.5760  0.00  0.00     0.000 O
ATOM     62   O  SGN C   4     157.574  37.377  37.8920  0.00  0.00     0.000 O
ATOM     64  HD  SGN C   4     158.215  36.839  38.1140  0.00  0.00     0.000 HD
BRANCH 57 66
ATOM     64   N  SGN C   4     158.552  34.563  39.5710  0.00  0.00     0.000 N
ATOM     66  HD  SGN C   4     158.857  34.098  38.9080  0.00  0.00     0.000 HD
ATOM     66   S  SGN C   4     159.976  34.341  38.8860  0.00  0.00     0.000 S
ATOM     67   O  SGN C   4     160.188  32.943  38.7900  0.00  0.00     0.000 OA
ATOM     68   O  SGN C   4     159.998  35.134  37.7060  0.00  0.00     0.000 OA
ATOM     69   O  SGN C   4     160.982  34.948  39.9170  0.00  0.00     0.000 OA
ENDBRANCH 57 66
BRANCH 60 70
ATOM     70   C  SGN C   4     154.586  37.437  41.8570  0.00  0.00     0.000 C
ATOM     71   O  SGN C   4     153.717  38.528  45.3440  0.00  0.00     0.000 OA
ATOM     72   O  SGN C   4     153.674  39.863  43.3280  0.00  0.00     0.000 OA
ATOM     73   O  SGN C   4     154.657  37.664  43.2780  0.00  0.00     0.000 O
ATOM     74   S  SGN C   4     153.494  38.556  43.9170  0.00  0.00     0.000 S
ATOM     75   O  SGN C   4     152.263  37.905  43.5120  0.00  0.00     0.000 OA
ENDBRANCH 60 70
BRANCH 56 76
ATOM     76  O4  IDS C   5     158.490  35.936  42.3890  0.00  0.00     0.000 O
BRANCH 76 80
ATOM     77  C1  IDS C   5     159.536  37.809  45.8610  0.00  0.00     0.000 C
ATOM     78  C2  IDS C   5     159.397  38.738  44.6560  0.00  0.00     0.000 C
ATOM     79  C3  IDS C   5     158.601  38.050  43.5640  0.00  0.00     0.000 C
ATOM     80  C4  IDS C   5     159.384  36.851  43.0400  0.00  0.00     0.000 C
ATOM     81  C5  IDS C   5     160.100  36.160  44.2090  0.00  0.00     0.000 C
ATOM     82  O5  IDS C   5     159.437  36.447  45.4440  0.00  0.00     0.000 O
BRANCH 78 83
ATOM     83   O  IDS C   5     158.692  39.985  45.0350  0.00  0.00     0.000 O
ATOM     84   S  IDS C   5     159.455  41.384  44.9510  0.00  0.00     0.000 S
ATOM     85   O  IDS C   5     160.716  41.187  45.6140  0.00  0.00     0.000 OA
ATOM     86   O  IDS C   5     159.592  41.656  43.5390  0.00  0.00     0.000 OA
ATOM     87   O  IDS C   5     158.601  42.335  45.6200  0.00  0.00     0.000 OA
ENDBRANCH 78 83
BRANCH 81 88
ATOM     88   C  IDS C   5     160.183  34.650  44.0750  0.00  0.00     0.000 C
ATOM     89   O  IDS C   5     160.889  34.162  43.2330  0.00  0.00     0.000 OA
ATOM     90   O  IDS C   5     159.538  33.947  44.8180  0.00  0.00     0.000 OA
ENDBRANCH 81 88
ENDBRANCH 76 80
ENDBRANCH 56 76
ENDBRANCH 55 59
ENDBRANCH 39 55
ENDBRANCH 38 42
ENDBRANCH 18 38
ENDBRANCH 17 21
ENDBRANCH 1 17
TORSDOF 18
ENDMDL
MODEL 98
REMARK VINA RESULT:      -2.0     13.025     19.591
ROOT
ATOM      1  C1  IDS C   1     167.680  43.123  45.3110  0.00  0.00     0.000 C
ATOM      2  C2  IDS C   1     166.747  43.644  44.2150  0.00  0.00     0.000 C
ATOM      3  C3  IDS C   1     167.526  44.431  43.1710  0.00  0.00     0.000 C
ATOM      4  C4  IDS C   1     168.251  45.605  43.8150  0.00  0.00     0.000 C
ATOM      5  C5  IDS C   1     168.814  45.193  45.1710  0.00  0.00     0.000 C
ATOM      6  O5  IDS C   1     168.943  43.773  45.2380  0.00  0.00     0.000 O
ATOM      7   O  IDS C   1     166.632  44.906  42.1550  0.00  0.00     0.000 O
ATOM      9  HD  IDS C   1     166.027  44.301  42.0210  0.00  0.00     0.000 HD
ENDROOT
BRANCH 2 9
ATOM      9   O  IDS C   1     166.074  42.525  43.5190  0.00  0.00     0.000 O
ATOM     10   S  IDS C   1     166.802  41.814  42.2920  0.00  0.00     0.000 S
ATOM     11   O  IDS C   1     165.905  40.770  41.8490  0.00  0.00     0.000 OA
ATOM     12   O  IDS C   1     166.995  42.851  41.2990  0.00  0.00     0.000 OA
ATOM     13   O  IDS C   1     168.047  41.297  42.8170  0.00  0.00     0.000 OA
ENDBRANCH 2 9
BRANCH 5 14
ATOM     14   C  IDS C   1     170.174  45.813  45.4400  0.00  0.00     0.000 C
ATOM     15   O  IDS C   1     171.125  45.097  45.6380  0.00  0.00     0.000 OA
ATOM     16   O  IDS C   1     170.294  47.027  45.4560  0.00  0.00     0.000 OA
ENDBRANCH 5 14
BRANCH 1 17
ATOM     17  O4  SGN C   2     167.595  41.887  45.8130  0.00  0.00     0.000 O
BRANCH 17 21
ATOM     18  C1  SGN C   2     168.962  38.050  46.7780  0.00  0.00     0.000 C
ATOM     19  C2  SGN C   2     170.033  39.119  46.5330  0.00  0.00     0.000 C
ATOM     20  C3  SGN C   2     169.403  40.515  46.6160  0.00  0.00     0.000 C
ATOM     21  C4  SGN C   2     168.208  40.608  45.6750  0.00  0.00     0.000 C
ATOM     22  C5  SGN C   2     167.215  39.502  46.0190  0.00  0.00     0.000 C
ATOM     23  O5  SGN C   2     167.862  38.213  45.9080  0.00  0.00     0.000 O
ATOM     24   O  SGN C   2     170.373  41.501  46.3040  0.00  0.00     0.000 O
ATOM     26  HD  SGN C   2     169.713  41.147  46.7390  0.00  0.00     0.000 HD
BRANCH 19 28
ATOM     26   N  SGN C   2     171.210  38.504  47.1630  0.00  0.00     0.000 N
ATOM     28  HD  SGN C   2     170.780  37.831  46.8280  0.00  0.00     0.000 HD
ATOM     28   O  SGN C   2     173.617  38.654  47.8000  0.00  0.00     0.000 OA
ATOM     29   S  SGN C   2     172.686  38.637  46.5410  0.00  0.00     0.000 S
ATOM     30   O  SGN C   2     172.945  37.461  45.8030  0.00  0.00     0.000 OA
ATOM     31   O  SGN C   2     172.770  39.902  45.8970  0.00  0.00     0.000 OA
ENDBRANCH 19 28
BRANCH 22 32
ATOM     32   C  SGN C   2     166.016  39.468  45.1040  0.00  0.00     0.000 C
ATOM     33   S  SGN C   2     163.446  39.579  45.2720  0.00  0.00     0.000 S
ATOM     34   O  SGN C   2     163.348  38.214  45.7230  0.00  0.00     0.000 OA
ATOM     35   O  SGN C   2     162.516  40.476  45.9270  0.00  0.00     0.000 OA
ATOM     36   O  SGN C   2     163.471  39.725  43.8360  0.00  0.00     0.000 OA
ATOM     37   O  SGN C   2     164.888  40.054  45.7660  0.00  0.00     0.000 O
ENDBRANCH 22 32
BRANCH 18 38
ATOM     38  O4  IDS C   3     168.412  37.626  47.9190  0.00  0.00     0.000 O
BRANCH 38 42
ATOM     39  C1  IDS C   3     167.553  36.032  50.8930  0.00  0.00     0.000 C
ATOM     40  C2  IDS C   3     166.523  36.216  49.7680  0.00  0.00     0.000 C
ATOM     41  C3  IDS C   3     166.450  37.676  49.3190  0.00  0.00     0.000 C
ATOM     42  C4  IDS C   3     167.840  38.247  49.0740  0.00  0.00     0.000 C
ATOM     43  C5  IDS C   3     168.728  37.994  50.2990  0.00  0.00     0.000 C
ATOM     44  O5  IDS C   3     168.807  36.589  50.5360  0.00  0.00     0.000 O
ATOM     45   O  IDS C   3     165.781  38.445  50.3200  0.00  0.00     0.000 O
ATOM     47  HD  IDS C   3     165.897  38.579  51.1680  0.00  0.00     0.000 HD
BRANCH 40 47
ATOM     47   O  IDS C   3     166.894  35.405  48.5840  0.00  0.00     0.000 O
ATOM     48   S  IDS C   3     166.392  33.891  48.4670  0.00  0.00     0.000 S
ATOM     49   O  IDS C   3     167.240  33.122  49.3520  0.00  0.00     0.000 OA
ATOM     50   O  IDS C   3     166.575  33.536  47.0770  0.00  0.00     0.000 OA
ATOM     51   O  IDS C   3     165.012  33.888  48.8750  0.00  0.00     0.000 OA
ENDBRANCH 40 47
BRANCH 43 52
ATOM     52   C  IDS C   3     170.121  38.561  50.1390  0.00  0.00     0.000 C
ATOM     53   O  IDS C   3     171.079  37.822  50.1580  0.00  0.00     0.000 OA
ATOM     54   O  IDS C   3     170.270  39.747  49.9920  0.00  0.00     0.000 OA
ENDBRANCH 43 52
BRANCH 39 55
ATOM     55  O4  SGN C   4     167.259  36.142  52.1890  0.00  0.00     0.000 O
BRANCH 55 59
ATOM     56  C1  SGN C   4     169.985  34.370  54.8230  0.00  0.00     0.000 C
ATOM     57  C2  SGN C   4     168.877  33.460  54.2640  0.00  0.00     0.000 C
ATOM     58  C3  SGN C   4     168.215  34.099  53.0460  0.00  0.00     0.000 C
ATOM     59  C4  SGN C   4     167.778  35.526  53.3590  0.00  0.00     0.000 C
ATOM     60  C5  SGN C   4     168.987  36.308  53.8680  0.00  0.00     0.000 C
ATOM     61  O5  SGN C   4     169.468  35.668  55.0670  0.00  0.00     0.000 O
ATOM     62   O  SGN C   4     167.103  33.311  52.6420  0.00  0.00     0.000 O
ATOM     64  HD  SGN C   4     167.643  32.747  53.0150  0.00  0.00     0.000 HD
BRANCH 57 66
ATOM     64   N  SGN C   4     169.120  32.495  55.3480  0.00  0.00     0.000 N
ATOM     66  HD  SGN C   4     168.745  31.768  55.6340  0.00  0.00     0.000 HD
ATOM     66   S  SGN C   4     169.251  30.936  55.0320  0.00  0.00     0.000 S
ATOM     67   O  SGN C   4     169.417  30.264  56.2700  0.00  0.00     0.000 OA
ATOM     68   O  SGN C   4     168.160  30.589  54.1890  0.00  0.00     0.000 OA
ATOM     69   O  SGN C   4     170.573  30.835  54.2060  0.00  0.00     0.000 OA
ENDBRANCH 57 66
BRANCH 60 70
ATOM     70   C  SGN C   4     168.681  37.752  54.2050  0.00  0.00     0.000 C
ATOM     71   O  SGN C   4     170.005  39.715  57.1210  0.00  0.00     0.000 OA
ATOM     72   O  SGN C   4     170.754  39.802  54.8230  0.00  0.00     0.000 OA
ATOM     73   O  SGN C   4     169.204  38.088  55.5050  0.00  0.00     0.000 O
ATOM     74   S  SGN C   4     169.642  39.610  55.7260  0.00  0.00     0.000 S
ATOM     75   O  SGN C   4     168.471  40.387  55.3740  0.00  0.00     0.000 OA
ENDBRANCH 60 70
BRANCH 56 76
ATOM     76  O4  IDS C   5     171.314  34.488  54.6460  0.00  0.00     0.000 O
BRANCH 76 80
ATOM     77  C1  IDS C   5     175.370  34.712  54.2560  0.00  0.00     0.000 C
ATOM     78  C2  IDS C   5     174.796  33.303  54.1100  0.00  0.00     0.000 C
ATOM     79  C3  IDS C   5     173.308  33.381  53.8320  0.00  0.00     0.000 C
ATOM     80  C4  IDS C   5     172.591  33.967  55.0440  0.00  0.00     0.000 C
ATOM     81  C5  IDS C   5     173.455  35.078  55.6570  0.00  0.00     0.000 C
ATOM     82  O5  IDS C   5     174.350  35.616  54.6800  0.00  0.00     0.000 O
BRANCH 78 83
ATOM     83   O  IDS C   5     175.446  32.586  52.9880  0.00  0.00     0.000 O
ATOM     84   S  IDS C   5     176.286  31.261  53.2750  0.00  0.00     0.000 S
ATOM     85   O  IDS C   5     177.166  31.579  54.3680  0.00  0.00     0.000 OA
ATOM     86   O  IDS C   5     175.306  30.255  53.6100  0.00  0.00     0.000 OA
ATOM     87   O  IDS C   5     176.985  30.968  52.0480  0.00  0.00     0.000 OA
ENDBRANCH 78 83
BRANCH 81 88
ATOM     88   C  IDS C   5     172.656  36.234  56.2310  0.00  0.00     0.000 C
ATOM     89   O  IDS C   5     172.581  37.269  55.6250  0.00  0.00     0.000 OA
ATOM     90   O  IDS C   5     172.098  36.105  57.2970  0.00  0.00     0.000 OA
ENDBRANCH 81 88
ENDBRANCH 76 80
ENDBRANCH 56 76
ENDBRANCH 55 59
ENDBRANCH 39 55
ENDBRANCH 38 42
ENDBRANCH 18 38
ENDBRANCH 17 21
ENDBRANCH 1 17
TORSDOF 18
ENDMDL
MODEL 99
REMARK VINA RESULT:      -2.0     10.449     16.476
ROOT
ATOM      1  C1  IDS C   1     157.515  53.099  53.2270  0.00  0.00     0.000 C
ATOM      2  C2  IDS C   1     157.895  54.547  52.9050  0.00  0.00     0.000 C
ATOM      3  C3  IDS C   1     157.621  54.866  51.4430  0.00  0.00     0.000 C
ATOM      4  C4  IDS C   1     158.401  53.928  50.5330  0.00  0.00     0.000 C
ATOM      5  C5  IDS C   1     158.406  52.518  51.1150  0.00  0.00     0.000 C
ATOM      6  O5  IDS C   1     157.320  52.360  52.0280  0.00  0.00     0.000 O
ATOM      7   O  IDS C   1     157.980  56.227  51.1670  0.00  0.00     0.000 O
ATOM      9  HD  IDS C   1     157.783  56.706  51.8610  0.00  0.00     0.000 HD
ENDROOT
BRANCH 2 9
ATOM      9   O  IDS C   1     157.105  55.493  53.7240  0.00  0.00     0.000 O
ATOM     10   S  IDS C   1     157.850  56.426  54.7810  0.00  0.00     0.000 S
ATOM     11   O  IDS C   1     156.818  57.230  55.3970  0.00  0.00     0.000 OA
ATOM     12   O  IDS C   1     158.493  55.523  55.7130  0.00  0.00     0.000 OA
ATOM     13   O  IDS C   1     158.793  57.213  54.0170  0.00  0.00     0.000 OA
ENDBRANCH 2 9
BRANCH 5 14
ATOM     14   C  IDS C   1     158.288  51.453  50.0380  0.00  0.00     0.000 C
ATOM     15   O  IDS C   1     157.197  51.044  49.7230  0.00  0.00     0.000 OA
ATOM     16   O  IDS C   1     159.295  51.019  49.5030  0.00  0.00     0.000 OA
ENDBRANCH 5 14
BRANCH 1 17
ATOM     17  O4  SGN C   2     156.866  52.747  54.3400  0.00  0.00     0.000 O
BRANCH 17 21
ATOM     18  C1  SGN C   2     153.194  52.193  56.2730  0.00  0.00     0.000 C
ATOM     19  C2  SGN C   2     153.159  52.939  54.9330  0.00  0.00     0.000 C
ATOM     20  C3  SGN C   2     154.464  52.692  54.1670  0.00  0.00     0.000 C
ATOM     21  C4  SGN C   2     155.662  53.045  55.0420  0.00  0.00     0.000 C
ATOM     22  C5  SGN C   2     155.587  52.240  56.3360  0.00  0.00     0.000 C
ATOM     23  O5  SGN C   2     154.345  52.528  57.0200  0.00  0.00     0.000 O
ATOM     24   O  SGN C   2     154.471  53.449  52.9680  0.00  0.00     0.000 O
ATOM     26  HD  SGN C   2     154.600  52.754  53.4690  0.00  0.00     0.000 HD
BRANCH 19 28
ATOM     26   N  SGN C   2     151.960  52.569  54.1690  0.00  0.00     0.000 N
ATOM     28  HD  SGN C   2     152.057  51.915  54.7280  0.00  0.00     0.000 HD
ATOM     28   O  SGN C   2     149.906  53.274  52.9410  0.00  0.00     0.000 OA
ATOM     29   S  SGN C   2     150.550  53.316  54.3670  0.00  0.00     0.000 S
ATOM     30   O  SGN C   2     149.768  52.526  55.2390  0.00  0.00     0.000 OA
ATOM     31   O  SGN C   2     150.823  54.671  54.7020  0.00  0.00     0.000 OA
ENDBRANCH 19 28
BRANCH 22 32
ATOM     32   C  SGN C   2     156.700  52.559  57.3040  0.00  0.00     0.000 C
ATOM     33   S  SGN C   2     156.985  53.287  59.7600  0.00  0.00     0.000 S
ATOM     34   O  SGN C   2     156.623  54.651  59.4690  0.00  0.00     0.000 OA
ATOM     35   O  SGN C   2     156.463  52.804  61.0220  0.00  0.00     0.000 OA
ATOM     36   O  SGN C   2     158.386  52.994  59.5670  0.00  0.00     0.000 OA
ATOM     37   O  SGN C   2     156.221  52.432  58.6480  0.00  0.00     0.000 O
ENDBRANCH 22 32
BRANCH 18 38
ATOM     38  O4  IDS C   3     152.994  50.902  56.5460  0.00  0.00     0.000 O
BRANCH 38 42
ATOM     39  C1  IDS C   3     152.116  47.535  56.4020  0.00  0.00     0.000 C
ATOM     40  C2  IDS C   3     151.134  48.630  55.9540  0.00  0.00     0.000 C
ATOM     41  C3  IDS C   3     150.963  49.696  57.0350  0.00  0.00     0.000 C
ATOM     42  C4  IDS C   3     152.312  50.163  57.5660  0.00  0.00     0.000 C
ATOM     43  C5  IDS C   3     153.153  48.951  57.9850  0.00  0.00     0.000 C
ATOM     44  O5  IDS C   3     153.335  48.097  56.8570  0.00  0.00     0.000 O
ATOM     45   O  IDS C   3     150.182  49.164  58.1060  0.00  0.00     0.000 O
ATOM     47  HD  IDS C   3     150.241  48.470  58.6200  0.00  0.00     0.000 HD
BRANCH 40 47
ATOM     47   O  IDS C   3     151.633  49.308  54.7340  0.00  0.00     0.000 O
ATOM     48   S  IDS C   3     150.826  49.170  53.3600  0.00  0.00     0.000 S
ATOM     49   O  IDS C   3     151.141  47.855  52.8450  0.00  0.00     0.000 OA
ATOM     50   O  IDS C   3     151.331  50.230  52.5150  0.00  0.00     0.000 OA
ATOM     51   O  IDS C   3     149.434  49.322  53.6890  0.00  0.00     0.000 OA
ENDBRANCH 40 47
BRANCH 43 52
ATOM     52   C  IDS C   3     154.501  49.341  58.5500  0.00  0.00     0.000 C
ATOM     53   O  IDS C   3     155.508  49.112  57.9210  0.00  0.00     0.000 OA
ATOM     54   O  IDS C   3     154.564  49.879  59.6260  0.00  0.00     0.000 OA
ENDBRANCH 43 52
BRANCH 39 55
ATOM     55  O4  SGN C   4     151.746  46.436  57.0600  0.00  0.00     0.000 O
BRANCH 55 59
ATOM     56  C1  SGN C   4     154.710  43.507  57.4380  0.00  0.00     0.000 C
ATOM     57  C2  SGN C   4     153.823  43.431  56.1830  0.00  0.00     0.000 C
ATOM     58  C3  SGN C   4     153.075  44.743  55.9680  0.00  0.00     0.000 C
ATOM     59  C4  SGN C   4     152.351  45.164  57.2420  0.00  0.00     0.000 C
ATOM     60  C5  SGN C   4     153.364  45.227  58.3840  0.00  0.00     0.000 C
ATOM     61  O5  SGN C   4     153.935  43.915  58.5540  0.00  0.00     0.000 O
ATOM     62   O  SGN C   4     152.155  44.596  54.8950  0.00  0.00     0.000 O
ATOM     64  HD  SGN C   4     152.789  44.035  54.7150  0.00  0.00     0.000 HD
BRANCH 57 66
ATOM     64   N  SGN C   4     154.158  42.015  55.9590  0.00  0.00     0.000 N
ATOM     66  HD  SGN C   4     153.932  41.401  55.3920  0.00  0.00     0.000 HD
ATOM     66   S  SGN C   4     154.682  41.520  54.5350  0.00  0.00     0.000 S
ATOM     67   O  SGN C   4     154.858  40.116  54.6110  0.00  0.00     0.000 OA
ATOM     68   O  SGN C   4     153.803  42.063  53.5570  0.00  0.00     0.000 OA
ATOM     69   O  SGN C   4     156.076  42.211  54.3920  0.00  0.00     0.000 OA
ENDBRANCH 57 66
BRANCH 60 70
ATOM     70   C  SGN C   4     152.765  45.645  59.7090  0.00  0.00     0.000 C
ATOM     71   O  SGN C   4     149.362  47.130  60.2780  0.00  0.00     0.000 OA
ATOM     72   O  SGN C   4     150.053  44.843  60.6500  0.00  0.00     0.000 OA
ATOM     73   O  SGN C   4     151.531  46.360  59.5020  0.00  0.00     0.000 O
ATOM     74   S  SGN C   4     150.433  46.237  60.6580  0.00  0.00     0.000 S
ATOM     75   O  SGN C   4     151.120  46.642  61.8680  0.00  0.00     0.000 OA
ENDBRANCH 60 70
BRANCH 56 76
ATOM     76  O4  IDS C   5     155.991  43.830  57.6920  0.00  0.00     0.000 O
BRANCH 76 80
ATOM     77  C1  IDS C   5     159.316  46.122  58.2850  0.00  0.00     0.000 C
ATOM     78  C2  IDS C   5     158.504  46.492  57.0440  0.00  0.00     0.000 C
ATOM     79  C3  IDS C   5     157.108  45.910  57.1510  0.00  0.00     0.000 C
ATOM     80  C4  IDS C   5     157.186  44.386  57.1230  0.00  0.00     0.000 C
ATOM     81  C5  IDS C   5     158.421  43.926  57.9120  0.00  0.00     0.000 C
ATOM     82  O5  IDS C   5     158.808  44.920  58.8640  0.00  0.00     0.000 O
BRANCH 78 83
ATOM     83   O  IDS C   5     158.389  47.963  56.9120  0.00  0.00     0.000 O
ATOM     84   S  IDS C   5     158.463  48.637  55.4680  0.00  0.00     0.000 S
ATOM     85   O  IDS C   5     159.617  48.069  54.8250  0.00  0.00     0.000 OA
ATOM     86   O  IDS C   5     157.221  48.284  54.8210  0.00  0.00     0.000 OA
ATOM     87   O  IDS C   5     158.583  50.055  55.7050  0.00  0.00     0.000 OA
ENDBRANCH 78 83
BRANCH 81 88
ATOM     88   C  IDS C   5     158.219  42.624  58.6650  0.00  0.00     0.000 C
ATOM     89   O  IDS C   5     157.925  41.624  58.0660  0.00  0.00     0.000 OA
ATOM     90   O  IDS C   5     158.358  42.600  59.8670  0.00  0.00     0.000 OA
ENDBRANCH 81 88
ENDBRANCH 76 80
ENDBRANCH 56 76
ENDBRANCH 55 59
ENDBRANCH 39 55
ENDBRANCH 38 42
ENDBRANCH 18 38
ENDBRANCH 17 21
ENDBRANCH 1 17
TORSDOF 18
ENDMDL
MODEL 100
REMARK VINA RESULT:      -1.8     16.967     23.722
ROOT
ATOM      1  C1  IDS C   1     140.010  48.687  30.4290  0.00  0.00     0.000 C
ATOM      2  C2  IDS C   1     139.256  48.846  29.1060  0.00  0.00     0.000 C
ATOM      3  C3  IDS C   1     139.830  47.921  28.0420  0.00  0.00     0.000 C
ATOM      4  C4  IDS C   1     141.307  48.214  27.8170  0.00  0.00     0.000 C
ATOM      5  C5  IDS C   1     141.990  48.515  29.1480  0.00  0.00     0.000 C
ATOM      6  O5  IDS C   1     141.224  47.976  30.2260  0.00  0.00     0.000 O
ATOM      7   O  IDS C   1     139.106  48.085  26.8150  0.00  0.00     0.000 O
ATOM      9  HD  IDS C   1     138.272  48.220  27.0070  0.00  0.00     0.000 HD
ENDROOT
BRANCH 2 9
ATOM      9   O  IDS C   1     137.825  48.503  29.2700  0.00  0.00     0.000 O
ATOM     10   S  IDS C   1     136.713  49.585  28.9010  0.00  0.00     0.000 S
ATOM     11   O  IDS C   1     135.440  48.947  29.1540  0.00  0.00     0.000 OA
ATOM     12   O  IDS C   1     136.962  50.713  29.7750  0.00  0.00     0.000 OA
ATOM     13   O  IDS C   1     136.915  49.899  27.5040  0.00  0.00     0.000 OA
ENDBRANCH 2 9
BRANCH 5 14
ATOM     14   C  IDS C   1     143.393  47.936  29.2170  0.00  0.00     0.000 C
ATOM     15   O  IDS C   1     144.093  47.957  28.2340  0.00  0.00     0.000 OA
ATOM     16   O  IDS C   1     143.798  47.455  30.2610  0.00  0.00     0.000 OA
ENDBRANCH 5 14
BRANCH 1 17
ATOM     17  O4  SGN C   2     139.395  48.632  31.6140  0.00  0.00     0.000 O
BRANCH 17 21
ATOM     18  C1  SGN C   2     137.341  46.679  34.6950  0.00  0.00     0.000 C
ATOM     19  C2  SGN C   2     137.947  45.790  33.6030  0.00  0.00     0.000 C
ATOM     20  C3  SGN C   2     138.996  46.581  32.8110  0.00  0.00     0.000 C
ATOM     21  C4  SGN C   2     138.391  47.879  32.2900  0.00  0.00     0.000 C
ATOM     22  C5  SGN C   2     137.829  48.674  33.4640  0.00  0.00     0.000 C
ATOM     23  O5  SGN C   2     136.837  47.884  34.1590  0.00  0.00     0.000 O
ATOM     24   O  SGN C   2     139.495  45.789  31.7460  0.00  0.00     0.000 O
ATOM     26  HD  SGN C   2     139.537  46.344  32.4100  0.00  0.00     0.000 HD
BRANCH 19 28
ATOM     26   N  SGN C   2     137.880  44.460  34.2230  0.00  0.00     0.000 N
ATOM     28  HD  SGN C   2     137.105  44.806  34.3940  0.00  0.00     0.000 HD
ATOM     28   O  SGN C   2     138.540  42.054  34.1960  0.00  0.00     0.000 OA
ATOM     29   S  SGN C   2     137.751  43.112  33.3540  0.00  0.00     0.000 S
ATOM     30   O  SGN C   2     136.387  42.748  33.3340  0.00  0.00     0.000 OA
ATOM     31   O  SGN C   2     138.441  43.322  32.1280  0.00  0.00     0.000 OA
ENDBRANCH 19 28
BRANCH 22 32
ATOM     32   C  SGN C   2     137.152  49.957  33.0490  0.00  0.00     0.000 C
ATOM     33   S  SGN C   2     137.098  52.436  33.7530  0.00  0.00     0.000 S
ATOM     34   O  SGN C   2     136.256  52.166  34.8910  0.00  0.00     0.000 OA
ATOM     35   O  SGN C   2     138.116  53.435  34.0070  0.00  0.00     0.000 OA
ATOM     36   O  SGN C   2     136.374  52.654  32.5220  0.00  0.00     0.000 OA
ATOM     37   O  SGN C   2     137.906  51.077  33.5300  0.00  0.00     0.000 O
ENDBRANCH 22 32
BRANCH 18 38
ATOM     38  O4  IDS C   3     137.828  47.034  35.8870  0.00  0.00     0.000 O
BRANCH 38 42
ATOM     39  C1  IDS C   3     137.779  46.494  39.3270  0.00  0.00     0.000 C
ATOM     40  C2  IDS C   3     136.511  46.311  38.4780  0.00  0.00     0.000 C
ATOM     41  C3  IDS C   3     136.234  47.546  37.6220  0.00  0.00     0.000 C
ATOM     42  C4  IDS C   3     137.489  47.999  36.8880  0.00  0.00     0.000 C
ATOM     43  C5  IDS C   3     138.646  48.151  37.8820  0.00  0.00     0.000 C
ATOM     44  O5  IDS C   3     138.876  46.899  38.5260  0.00  0.00     0.000 O
ATOM     45   O  IDS C   3     135.756  48.603  38.4570  0.00  0.00     0.000 O
ATOM     47  HD  IDS C   3     136.050  49.003  39.1660  0.00  0.00     0.000 HD
BRANCH 40 47
ATOM     47   O  IDS C   3     136.662  45.158  37.5590  0.00  0.00     0.000 O
ATOM     48   S  IDS C   3     135.655  43.919  37.6630  0.00  0.00     0.000 S
ATOM     49   O  IDS C   3     136.086  43.153  38.8130  0.00  0.00     0.000 OA
ATOM     50   O  IDS C   3     135.816  43.193  36.4230  0.00  0.00     0.000 OA
ATOM     51   O  IDS C   3     134.340  44.478  37.8260  0.00  0.00     0.000 OA
ENDBRANCH 40 47
BRANCH 43 52
ATOM     52   C  IDS C   3     139.924  48.627  37.2260  0.00  0.00     0.000 C
ATOM     53   O  IDS C   3     140.852  47.864  37.0890  0.00  0.00     0.000 OA
ATOM     54   O  IDS C   3     140.009  49.766  36.8420  0.00  0.00     0.000 OA
ENDBRANCH 43 52
BRANCH 39 55
ATOM     55  O4  SGN C   4     137.778  47.021  40.5520  0.00  0.00     0.000 O
BRANCH 55 59
ATOM     56  C1  SGN C   4     137.610  46.758  44.7240  0.00  0.00     0.000 C
ATOM     57  C2  SGN C   4     138.870  46.190  44.0490  0.00  0.00     0.000 C
ATOM     58  C3  SGN C   4     138.989  46.692  42.6130  0.00  0.00     0.000 C
ATOM     59  C4  SGN C   4     137.690  46.455  41.8520  0.00  0.00     0.000 C
ATOM     60  C5  SGN C   4     136.543  47.103  42.6250  0.00  0.00     0.000 C
ATOM     61  O5  SGN C   4     136.469  46.487  43.9260  0.00  0.00     0.000 O
ATOM     62   O  SGN C   4     140.074  46.039  41.9680  0.00  0.00     0.000 O
ATOM     64  HD  SGN C   4     140.293  46.047  42.8060  0.00  0.00     0.000 HD
BRANCH 57 66
ATOM     64   N  SGN C   4     139.758  46.538  45.1700  0.00  0.00     0.000 N
ATOM     66  HD  SGN C   4     139.881  46.260  45.9810  0.00  0.00     0.000 HD
ATOM     66   S  SGN C   4     140.654  45.421  45.8740  0.00  0.00     0.000 S
ATOM     67   O  SGN C   4     141.345  46.042  46.9450  0.00  0.00     0.000 OA
ATOM     68   O  SGN C   4     139.803  44.313  46.1410  0.00  0.00     0.000 OA
ATOM     69   O  SGN C   4     141.675  45.012  44.7660  0.00  0.00     0.000 OA
ENDBRANCH 57 66
BRANCH 60 70
ATOM     70   C  SGN C   4     135.192  46.944  41.9610  0.00  0.00     0.000 C
ATOM     71   O  SGN C   4     133.563  43.729  40.9030  0.00  0.00     0.000 OA
ATOM     72   O  SGN C   4     133.089  45.042  42.8780  0.00  0.00     0.000 OA
ATOM     73   O  SGN C   4     135.003  45.585  41.5200  0.00  0.00     0.000 O
ATOM     74   S  SGN C   4     133.498  45.047  41.4920  0.00  0.00     0.000 S
ATOM     75   O  SGN C   4     132.776  46.006  40.6800  0.00  0.00     0.000 OA
ENDBRANCH 60 70
BRANCH 56 76
ATOM     76  O4  IDS C   5     137.327  47.830  45.4870  0.00  0.00     0.000 O
BRANCH 76 80
ATOM     77  C1  IDS C   5     134.472  47.179  48.3300  0.00  0.00     0.000 C
ATOM     78  C2  IDS C   5     134.024  48.073  47.1740  0.00  0.00     0.000 C
ATOM     79  C3  IDS C   5     134.960  47.896  45.9950  0.00  0.00     0.000 C
ATOM     80  C4  IDS C   5     136.349  48.408  46.3640  0.00  0.00     0.000 C
ATOM     81  C5  IDS C   5     136.655  48.042  47.8240  0.00  0.00     0.000 C
ATOM     82  O5  IDS C   5     135.872  46.917  48.2340  0.00  0.00     0.000 O
BRANCH 78 83
ATOM     83   O  IDS C   5     132.652  47.720  46.7400  0.00  0.00     0.000 O
ATOM     84   S  IDS C   5     131.955  48.545  45.5660  0.00  0.00     0.000 S
ATOM     85   O  IDS C   5     132.136  49.933  45.8970  0.00  0.00     0.000 OA
ATOM     86   O  IDS C   5     132.649  48.152  44.3630  0.00  0.00     0.000 OA
ATOM     87   O  IDS C   5     130.572  48.135  45.5690  0.00  0.00     0.000 OA
ENDBRANCH 78 83
BRANCH 81 88
ATOM     88   C  IDS C   5     138.112  47.705  48.0820  0.00  0.00     0.000 C
ATOM     89   O  IDS C   5     138.432  46.569  48.3080  0.00  0.00     0.000 OA
ATOM     90   O  IDS C   5     138.943  48.583  48.0570  0.00  0.00     0.000 OA
ENDBRANCH 81 88
ENDBRANCH 76 80
ENDBRANCH 56 76
ENDBRANCH 55 59
ENDBRANCH 39 55
ENDBRANCH 38 42
ENDBRANCH 18 38
ENDBRANCH 17 21
ENDBRANCH 1 17
TORSDOF 18
ENDMDL
