MODEL 1
REMARK VINA RESULT:      -9.1      0.000      0.000
ROOT
ATOM      1  C1  GCU B   1       8.686  31.523 -13.8750  0.00  0.00     0.000 C
ATOM      2  C2  GCU B   1       9.493  32.684 -14.4360  0.00  0.00     0.000 C
ATOM      3  C3  GCU B   1       9.332  32.763 -15.9460  0.00  0.00     0.000 C
ATOM      4  C4  GCU B   1       9.621  31.409 -16.5770  0.00  0.00     0.000 C
ATOM      5  C5  GCU B   1       8.806  30.304 -15.9020  0.00  0.00     0.000 C
ATOM      6  O5  GCU B   1       9.097  30.295 -14.4980  0.00  0.00     0.000 O
ATOM      7   O  GCU B   1       9.023  33.876 -13.8160  0.00  0.00     0.000 O
ATOM      9  HD  GCU B   1       9.510  34.469 -13.4140  0.00  0.00     0.000 HD
ATOM      9   O  GCU B   1      10.210  33.749 -16.4950  0.00  0.00     0.000 O
ATOM     11  HD  GCU B   1      10.697  34.341 -16.0940  0.00  0.00     0.000 HD
ATOM     11   O  GCU B   1       9.297  31.468 -17.9660  0.00  0.00     0.000 O
ATOM     13  HD  GCU B   1       9.784  32.061 -17.5650  0.00  0.00     0.000 HD
ENDROOT
BRANCH 5 13
ATOM     13   C  GCU B   1       9.102  28.975 -16.5570  0.00  0.00     0.000 C
ATOM     14   O  GCU B   1       8.451  28.605 -17.5560  0.00  0.00     0.000 OA
ATOM     15   O  GCU B   1      10.028  28.293 -16.0780  0.00  0.00     0.000 OA
ENDBRANCH 5 13
BRANCH 1 16
ATOM     16  O3  NAG B   2       8.912  30.844 -12.7480  0.00  0.00     0.000 O
BRANCH 16 19
ATOM     17  C1  NAG B   2       6.549  30.002  -9.9320  0.00  0.00     0.000 C
ATOM     18  C2  NAG B   2       7.271  30.883 -10.9440  0.00  0.00     0.000 C
ATOM     19  C3  NAG B   2       8.086  30.023 -11.9080  0.00  0.00     0.000 C
ATOM     20  C4  NAG B   2       8.996  29.071 -11.1320  0.00  0.00     0.000 C
ATOM     21  C5  NAG B   2       8.167  28.244 -10.1600  0.00  0.00     0.000 C
ATOM     22  O5  NAG B   2       7.476  29.132  -9.2640  0.00  0.00     0.000 O
ATOM     23   O  NAG B   2       9.681  28.235 -12.0720  0.00  0.00     0.000 O
ATOM     25  HD  NAG B   2      10.158  28.811 -11.6340  0.00  0.00     0.000 HD
ATOM     25   C  NAG B   2       9.011  27.254  -9.3590  0.00  0.00     0.000 C
ATOM     26   O  NAG B   2       9.800  27.918  -8.3590  0.00  0.00     0.000 O
ATOM     28  HD  NAG B   2      10.277  28.493  -7.9210  0.00  0.00     0.000 HD
BRANCH 18 30
ATOM     28   N  NAG B   2       6.117  31.717 -11.2220  0.00  0.00     0.000 N
ATOM     30  HD  NAG B   2       6.784  32.257 -11.3380  0.00  0.00     0.000 HD
ATOM     30   C  NAG B   2       6.186  33.034 -11.4510  0.00  0.00     0.000 C
ATOM     31   C  NAG B   2       4.896  33.770 -11.6800  0.00  0.00     0.000 C
ATOM     32   O  NAG B   2       7.247  33.625 -11.4740  0.00  0.00     0.000 OA
ENDBRANCH 18 30
BRANCH 17 33
ATOM     33  O4  GCU B   3       5.829  30.870  -9.0330  0.00  0.00     0.000 O
BRANCH 33 37
ATOM     34  C1  GCU B   3       2.831  30.054  -6.2620  0.00  0.00     0.000 C
ATOM     35  C2  GCU B   3       4.272  29.732  -5.8640  0.00  0.00     0.000 C
ATOM     36  C3  GCU B   3       5.227  30.468  -6.7800  0.00  0.00     0.000 C
ATOM     37  C4  GCU B   3       4.910  30.128  -8.2290  0.00  0.00     0.000 C
ATOM     38  C5  GCU B   3       3.454  30.485  -8.5350  0.00  0.00     0.000 C
ATOM     39  O5  GCU B   3       2.608  29.752  -7.6430  0.00  0.00     0.000 O
ATOM     40   O  GCU B   3       4.479  30.134  -4.5090  0.00  0.00     0.000 O
ATOM     42  HD  GCU B   3       5.019  30.584  -4.0020  0.00  0.00     0.000 HD
ATOM     42   O  GCU B   3       6.594  30.132  -6.4810  0.00  0.00     0.000 O
ATOM     44  HD  GCU B   3       7.134  30.582  -5.9750  0.00  0.00     0.000 HD
BRANCH 38 44
ATOM     44   C  GCU B   3       3.058  30.152  -9.9510  0.00  0.00     0.000 C
ATOM     45   O  GCU B   3       3.023  31.066 -10.7890  0.00  0.00     0.000 OA
ATOM     46   O  GCU B   3       2.779  28.976 -10.2540  0.00  0.00     0.000 OA
ENDBRANCH 38 44
BRANCH 34 47
ATOM     47  O3  NAG B   4       2.015  29.251  -5.5950  0.00  0.00     0.000 O
BRANCH 47 50
ATOM     48  C1  NAG B   4      -1.246  28.338  -4.0810  0.00  0.00     0.000 C
ATOM     49  C2  NAG B   4       0.042  29.127  -4.2930  0.00  0.00     0.000 C
ATOM     50  C3  NAG B   4       0.647  28.852  -5.6600  0.00  0.00     0.000 C
ATOM     51  C4  NAG B   4       0.565  27.381  -6.0860  0.00  0.00     0.000 C
ATOM     52  C5  NAG B   4      -0.877  26.904  -6.1450  0.00  0.00     0.000 C
ATOM     53  O5  NAG B   4      -1.695  27.362  -5.0450  0.00  0.00     0.000 O
BRANCH 49 56
ATOM     54   N  NAG B   4      -0.095  30.594  -4.2770  0.00  0.00     0.000 N
ATOM     56  HD  NAG B   4       0.532  31.158  -4.0790  0.00  0.00     0.000 HD
ATOM     56   C  NAG B   4      -1.146  32.777  -4.4270  0.00  0.00     0.000 C
ATOM     57   O  NAG B   4      -2.356  30.769  -4.4240  0.00  0.00     0.000 OA
ATOM     58   C  NAG B   4      -1.250  31.284  -4.3680  0.00  0.00     0.000 C
ENDBRANCH 49 56
ATOM     59   O  NAG B   4      -2.178  24.867  -6.6460  0.00  0.00     0.000 O
ATOM     61  HD  NAG B   4      -1.784  25.369  -6.0610  0.00  0.00     0.000 HD
ATOM     61   O  NAG B   4      -2.178  24.867  -6.6460  0.00  0.00     0.000 O
ATOM     63  HD  NAG B   4      -1.784  25.369  -6.0610  0.00  0.00     0.000 HD
ENDBRANCH 47 50
ENDBRANCH 34 47
ENDBRANCH 33 37
ENDBRANCH 17 33
ENDBRANCH 16 19
ENDBRANCH 1 16
TORSDOF 10
ENDMDL
MODEL 2
REMARK VINA RESULT:      -9.1      3.438     11.579
ROOT
ATOM      1  C1  GCU B   1      -0.871  26.922  -5.6200  0.00  0.00     0.000 C
ATOM      2  C2  GCU B   1      -1.472  25.573  -5.9820  0.00  0.00     0.000 C
ATOM      3  C3  GCU B   1      -2.985  25.606  -5.8280  0.00  0.00     0.000 C
ATOM      4  C4  GCU B   1      -3.361  26.135  -4.4520  0.00  0.00     0.000 C
ATOM      5  C5  GCU B   1      -2.658  27.462  -4.1620  0.00  0.00     0.000 C
ATOM      6  O5  GCU B   1      -1.240  27.277  -4.2780  0.00  0.00     0.000 O
ATOM      7   O  GCU B   1      -1.109  25.285  -7.3290  0.00  0.00     0.000 O
ATOM      9  HD  GCU B   1      -0.732  24.558  -7.6120  0.00  0.00     0.000 HD
ATOM      9   O  GCU B   1      -3.539  24.301  -6.0120  0.00  0.00     0.000 O
ATOM     11  HD  GCU B   1      -3.162  23.574  -6.2950  0.00  0.00     0.000 HD
ATOM     11   O  GCU B   1      -4.776  26.316  -4.3980  0.00  0.00     0.000 O
ATOM     13  HD  GCU B   1      -4.400  25.590  -4.6820  0.00  0.00     0.000 HD
ENDROOT
BRANCH 5 13
ATOM     13   C  GCU B   1      -3.060  27.969  -2.7980  0.00  0.00     0.000 C
ATOM     14   O  GCU B   1      -4.212  27.766  -2.3640  0.00  0.00     0.000 OA
ATOM     15   O  GCU B   1      -2.193  28.564  -2.1290  0.00  0.00     0.000 OA
ENDBRANCH 5 13
BRANCH 1 16
ATOM     16  O3  NAG B   2       0.364  27.170  -5.1790  0.00  0.00     0.000 O
BRANCH 16 19
ATOM     17  C1  NAG B   2       3.454  28.878  -6.5070  0.00  0.00     0.000 C
ATOM     18  C2  NAG B   2       2.364  27.817  -6.4180  0.00  0.00     0.000 C
ATOM     19  C3  NAG B   2       1.298  28.236  -5.4070  0.00  0.00     0.000 C
ATOM     20  C4  NAG B   2       1.945  28.595  -4.0700  0.00  0.00     0.000 C
ATOM     21  C5  NAG B   2       3.010  29.662  -4.2820  0.00  0.00     0.000 C
ATOM     22  O5  NAG B   2       3.993  29.162  -5.2060  0.00  0.00     0.000 O
ATOM     23   O  NAG B   2       0.921  29.055  -3.1810  0.00  0.00     0.000 O
ATOM     25  HD  NAG B   2       1.297  28.298  -2.9920  0.00  0.00     0.000 HD
ATOM     25   C  NAG B   2       3.691  30.084  -2.9810  0.00  0.00     0.000 C
ATOM     26   O  NAG B   2       4.586  29.070  -2.4980  0.00  0.00     0.000 O
ATOM     28  HD  NAG B   2       4.963  28.313  -2.3090  0.00  0.00     0.000 HD
BRANCH 18 30
ATOM     28   N  NAG B   2       2.705  26.750  -7.3390  0.00  0.00     0.000 N
ATOM     30  HD  NAG B   2       2.056  27.159  -7.7420  0.00  0.00     0.000 HD
ATOM     30   C  NAG B   2       2.012  26.475  -8.4520  0.00  0.00     0.000 C
ATOM     31   C  NAG B   2       2.464  25.307  -9.2830  0.00  0.00     0.000 C
ATOM     32   O  NAG B   2       1.050  27.136  -8.7870  0.00  0.00     0.000 OA
ENDBRANCH 18 30
BRANCH 17 33
ATOM     33  O4  GCU B   3       4.442  28.409  -7.4460  0.00  0.00     0.000 O
BRANCH 33 37
ATOM     34  C1  GCU B   3       7.280  30.472  -9.6870  0.00  0.00     0.000 C
ATOM     35  C2  GCU B   3       7.566  30.262  -8.2000  0.00  0.00     0.000 C
ATOM     36  C3  GCU B   3       6.676  29.162  -7.6630  0.00  0.00     0.000 C
ATOM     37  C4  GCU B   3       5.220  29.493  -7.9580  0.00  0.00     0.000 C
ATOM     38  C5  GCU B   3       5.029  29.683  -9.4640  0.00  0.00     0.000 C
ATOM     39  O5  GCU B   3       5.891  30.738  -9.9020  0.00  0.00     0.000 O
ATOM     40   O  GCU B   3       8.942  29.908  -8.0390  0.00  0.00     0.000 O
ATOM     42  HD  GCU B   3       9.459  29.326  -7.6590  0.00  0.00     0.000 HD
ATOM     42   O  GCU B   3       6.867  28.985  -6.2480  0.00  0.00     0.000 O
ATOM     44  HD  GCU B   3       7.384  28.404  -5.8680  0.00  0.00     0.000 HD
BRANCH 38 44
ATOM     44   C  GCU B   3       3.611  30.040  -9.8310  0.00  0.00     0.000 C
ATOM     45   O  GCU B   3       3.025  29.349 -10.6780  0.00  0.00     0.000 OA
ATOM     46   O  GCU B   3       3.056  31.010  -9.2800  0.00  0.00     0.000 OA
ENDBRANCH 38 44
BRANCH 34 47
ATOM     47  O3  NAG B   4       7.910  31.566 -10.0930  0.00  0.00     0.000 O
BRANCH 47 50
ATOM     48  C1  NAG B   4       7.889  35.117 -11.1610  0.00  0.00     0.000 C
ATOM     49  C2  NAG B   4       7.532  33.635 -11.1790  0.00  0.00     0.000 C
ATOM     50  C3  NAG B   4       7.844  32.970  -9.8490  0.00  0.00     0.000 C
ATOM     51  C4  NAG B   4       9.160  33.439  -9.2170  0.00  0.00     0.000 C
ATOM     52  C5  NAG B   4       9.144  34.937  -8.9610  0.00  0.00     0.000 C
ATOM     53  O5  NAG B   4       8.566  35.712 -10.0340  0.00  0.00     0.000 O
BRANCH 49 56
ATOM     54   N  NAG B   4       6.077  33.681 -10.9520  0.00  0.00     0.000 N
ATOM     56  HD  NAG B   4       5.688  33.751 -10.1820  0.00  0.00     0.000 HD
ATOM     56   C  NAG B   4       3.701  33.627 -11.4450  0.00  0.00     0.000 C
ATOM     57   O  NAG B   4       5.349  33.063 -13.0150  0.00  0.00     0.000 OA
ATOM     58   C  NAG B   4       5.123  33.425 -11.8700  0.00  0.00     0.000 C
ENDBRANCH 49 56
ATOM     59   O  NAG B   4      10.599  36.719  -8.0650  0.00  0.00     0.000 O
ATOM     61  HD  NAG B   4      10.311  36.271  -8.7480  0.00  0.00     0.000 HD
ATOM     61   O  NAG B   4      10.599  36.719  -8.0650  0.00  0.00     0.000 O
ATOM     63  HD  NAG B   4      10.311  36.271  -8.7480  0.00  0.00     0.000 HD
ENDBRANCH 47 50
ENDBRANCH 34 47
ENDBRANCH 33 37
ENDBRANCH 17 33
ENDBRANCH 16 19
ENDBRANCH 1 16
TORSDOF 10
ENDMDL
MODEL 3
REMARK VINA RESULT:      -9.0      3.829     13.526
ROOT
ATOM      1  C1  GCU B   1      -3.997  27.287  -1.6140  0.00  0.00     0.000 C
ATOM      2  C2  GCU B   1      -5.244  27.448  -0.7580  0.00  0.00     0.000 C
ATOM      3  C3  GCU B   1      -4.866  27.662   0.6990  0.00  0.00     0.000 C
ATOM      4  C4  GCU B   1      -3.901  26.579   1.1560  0.00  0.00     0.000 C
ATOM      5  C5  GCU B   1      -2.716  26.457   0.1970  0.00  0.00     0.000 C
ATOM      6  O5  GCU B   1      -3.206  26.192  -1.1240  0.00  0.00     0.000 O
ATOM      7   O  GCU B   1      -5.972  28.564  -1.2600  0.00  0.00     0.000 O
ATOM      9  HD  GCU B   1      -6.809  28.570  -1.4820  0.00  0.00     0.000 HD
ATOM      9   O  GCU B   1      -6.030  27.655   1.5280  0.00  0.00     0.000 O
ATOM     11  HD  GCU B   1      -6.867  27.661   1.3070  0.00  0.00     0.000 HD
ATOM     11   O  GCU B   1      -3.432  26.901   2.4660  0.00  0.00     0.000 O
ATOM     13  HD  GCU B   1      -4.269  26.908   2.2450  0.00  0.00     0.000 HD
ENDROOT
BRANCH 5 13
ATOM     13   C  GCU B   1      -1.770  25.385   0.6830  0.00  0.00     0.000 C
ATOM     14   O  GCU B   1      -1.004  25.607   1.6430  0.00  0.00     0.000 OA
ATOM     15   O  GCU B   1      -1.811  24.280   0.1090  0.00  0.00     0.000 OA
ENDBRANCH 5 13
BRANCH 1 16
ATOM     16  O3  NAG B   2      -3.886  26.642  -2.7770  0.00  0.00     0.000 O
BRANCH 16 19
ATOM     17  C1  NAG B   2      -1.110  26.432  -5.3220  0.00  0.00     0.000 C
ATOM     18  C2  NAG B   2      -2.156  27.097  -4.4370  0.00  0.00     0.000 C
ATOM     19  C3  NAG B   2      -2.776  26.072  -3.4880  0.00  0.00     0.000 C
ATOM     20  C4  NAG B   2      -3.283  24.862  -4.2710  0.00  0.00     0.000 C
ATOM     21  C5  NAG B   2      -2.155  24.281  -5.1120  0.00  0.00     0.000 C
ATOM     22  O5  NAG B   2      -1.669  25.299  -6.0050  0.00  0.00     0.000 O
ATOM     23   O  NAG B   2      -3.783  23.898  -3.3370  0.00  0.00     0.000 O
ATOM     25  HD  NAG B   2      -4.362  24.286  -3.8510  0.00  0.00     0.000 HD
ATOM     25   C  NAG B   2      -2.587  23.054  -5.9120  0.00  0.00     0.000 C
ATOM     26   O  NAG B   2      -3.431  23.411  -7.0170  0.00  0.00     0.000 O
ATOM     28  HD  NAG B   2      -4.010  23.800  -7.5310  0.00  0.00     0.000 HD
BRANCH 18 30
ATOM     28   N  NAG B   2      -2.100  28.493  -4.8280  0.00  0.00     0.000 N
ATOM     30  HD  NAG B   2      -1.821  28.506  -4.0080  0.00  0.00     0.000 HD
ATOM     30   C  NAG B   2      -1.808  29.492  -3.9870  0.00  0.00     0.000 C
ATOM     31   C  NAG B   2      -1.833  30.892  -4.5330  0.00  0.00     0.000 C
ATOM     32   O  NAG B   2      -1.533  29.289  -2.8210  0.00  0.00     0.000 OA
ENDBRANCH 18 30
BRANCH 17 33
ATOM     33  O4  GCU B   3      -0.591  27.439  -6.2140  0.00  0.00     0.000 O
BRANCH 33 37
ATOM     34  C1  GCU B   3       3.230  28.012  -7.7660  0.00  0.00     0.000 C
ATOM     35  C2  GCU B   3       2.395  26.867  -8.3400  0.00  0.00     0.000 C
ATOM     36  C3  GCU B   3       0.938  27.073  -7.9830  0.00  0.00     0.000 C
ATOM     37  C4  GCU B   3       0.798  27.227  -6.4760  0.00  0.00     0.000 C
ATOM     38  C5  GCU B   3       1.663  28.394  -5.9950  0.00  0.00     0.000 C
ATOM     39  O5  GCU B   3       3.023  28.132  -6.3560  0.00  0.00     0.000 O
ATOM     40   O  GCU B   3       2.558  26.841  -9.7590  0.00  0.00     0.000 O
ATOM     42  HD  GCU B   3       2.109  26.810 -10.5000  0.00  0.00     0.000 HD
ATOM     42   O  GCU B   3       0.131  25.975  -8.4460  0.00  0.00     0.000 O
ATOM     44  HD  GCU B   3      -0.317  25.944  -9.1860  0.00  0.00     0.000 HD
BRANCH 38 44
ATOM     44   C  GCU B   3       1.594  28.592  -4.5010  0.00  0.00     0.000 C
ATOM     45   O  GCU B   3       1.562  27.591  -3.7700  0.00  0.00     0.000 OA
ATOM     46   O  GCU B   3       1.574  29.746  -4.0320  0.00  0.00     0.000 OA
ENDBRANCH 38 44
BRANCH 34 47
ATOM     47  O3  NAG B   4       4.514  27.716  -7.9050  0.00  0.00     0.000 O
BRANCH 47 50
ATOM     48  C1  NAG B   4       6.853  28.753 -10.5890  0.00  0.00     0.000 C
ATOM     49  C2  NAG B   4       5.517  28.524  -9.8910  0.00  0.00     0.000 C
ATOM     50  C3  NAG B   4       5.694  28.353  -8.3910  0.00  0.00     0.000 C
ATOM     51  C4  NAG B   4       6.920  27.517  -8.0050  0.00  0.00     0.000 C
ATOM     52  C5  NAG B   4       8.202  28.147  -8.5250  0.00  0.00     0.000 C
ATOM     53  O5  NAG B   4       8.101  28.663  -9.8700  0.00  0.00     0.000 O
BRANCH 49 56
ATOM     54   N  NAG B   4       5.079  29.930  -9.8970  0.00  0.00     0.000 N
ATOM     56  HD  NAG B   4       5.492  30.590  -9.5180  0.00  0.00     0.000 HD
ATOM     56   C  NAG B   4       3.682  31.870 -10.3210  0.00  0.00     0.000 C
ATOM     57   O  NAG B   4       2.967  29.668 -10.6960  0.00  0.00     0.000 OA
ATOM     58   C  NAG B   4       3.880  30.385 -10.3130  0.00  0.00     0.000 C
ENDBRANCH 49 56
ATOM     59   O  NAG B   4      10.636  27.738  -8.5520  0.00  0.00     0.000 O
ATOM     61  HD  NAG B   4       9.866  27.650  -8.9380  0.00  0.00     0.000 HD
ATOM     61   O  NAG B   4      10.636  27.738  -8.5520  0.00  0.00     0.000 O
ATOM     63  HD  NAG B   4       9.866  27.650  -8.9380  0.00  0.00     0.000 HD
ENDBRANCH 47 50
ENDBRANCH 34 47
ENDBRANCH 33 37
ENDBRANCH 17 33
ENDBRANCH 16 19
ENDBRANCH 1 16
TORSDOF 10
ENDMDL
MODEL 4
REMARK VINA RESULT:      -9.0      3.107     11.285
ROOT
ATOM      1  C1  GCU B   1       0.731  27.671  -5.7370  0.00  0.00     0.000 C
ATOM      2  C2  GCU B   1       0.132  26.279  -5.8700  0.00  0.00     0.000 C
ATOM      3  C3  GCU B   1      -1.353  26.367  -6.1850  0.00  0.00     0.000 C
ATOM      4  C4  GCU B   1      -2.049  27.280  -5.1870  0.00  0.00     0.000 C
ATOM      5  C5  GCU B   1      -1.335  28.628  -5.0840  0.00  0.00     0.000 C
ATOM      6  O5  GCU B   1       0.035  28.408  -4.7200  0.00  0.00     0.000 O
ATOM      7   O  GCU B   1       0.830  25.605  -6.9120  0.00  0.00     0.000 O
ATOM      9  HD  GCU B   1       1.201  24.825  -6.8570  0.00  0.00     0.000 HD
ATOM      9   O  GCU B   1      -1.953  25.069  -6.1530  0.00  0.00     0.000 O
ATOM     11  HD  GCU B   1      -1.581  24.289  -6.0980  0.00  0.00     0.000 HD
ATOM     11   O  GCU B   1      -3.399  27.479  -5.6070  0.00  0.00     0.000 O
ATOM     13  HD  GCU B   1      -3.028  26.699  -5.5510  0.00  0.00     0.000 HD
ENDROOT
BRANCH 5 13
ATOM     13   C  GCU B   1      -2.054  29.517  -4.0980  0.00  0.00     0.000 C
ATOM     14   O  GCU B   1      -2.253  30.721  -4.3620  0.00  0.00     0.000 OA
ATOM     15   O  GCU B   1      -2.458  28.994  -3.0420  0.00  0.00     0.000 OA
ENDBRANCH 5 13
BRANCH 1 16
ATOM     16  O3  NAG B   2       1.810  28.029  -5.0380  0.00  0.00     0.000 O
BRANCH 16 19
ATOM     17  C1  NAG B   2       5.042  29.637  -6.1330  0.00  0.00     0.000 C
ATOM     18  C2  NAG B   2       3.917  28.610  -6.1240  0.00  0.00     0.000 C
ATOM     19  C3  NAG B   2       2.790  29.066  -5.1980  0.00  0.00     0.000 C
ATOM     20  C4  NAG B   2       3.344  29.414  -3.8170  0.00  0.00     0.000 C
ATOM     21  C5  NAG B   2       4.453  30.447  -3.9510  0.00  0.00     0.000 C
ATOM     22  O5  NAG B   2       5.488  29.913  -4.7960  0.00  0.00     0.000 O
ATOM     23   O  NAG B   2       2.269  29.908  -3.0110  0.00  0.00     0.000 O
ATOM     25  HD  NAG B   2       2.607  29.142  -2.7910  0.00  0.00     0.000 HD
ATOM     25   C  NAG B   2       5.046  30.856  -2.6040  0.00  0.00     0.000 C
ATOM     26   O  NAG B   2       5.870  29.819  -2.0500  0.00  0.00     0.000 O
ATOM     28  HD  NAG B   2       6.209  29.053  -1.8300  0.00  0.00     0.000 HD
BRANCH 18 30
ATOM     28   N  NAG B   2       4.379  27.631  -7.0900  0.00  0.00     0.000 N
ATOM     30  HD  NAG B   2       3.650  27.935  -7.4480  0.00  0.00     0.000 HD
ATOM     30   C  NAG B   2       3.681  27.266  -8.1730  0.00  0.00     0.000 C
ATOM     31   C  NAG B   2       4.274  26.206  -9.0580  0.00  0.00     0.000 C
ATOM     32   O  NAG B   2       2.606  27.764  -8.4410  0.00  0.00     0.000 OA
ENDBRANCH 18 30
BRANCH 17 33
ATOM     33  O4  GCU B   3       6.085  29.133  -6.9920  0.00  0.00     0.000 O
BRANCH 33 37
ATOM     34  C1  GCU B   3       8.701  31.104  -9.5620  0.00  0.00     0.000 C
ATOM     35  C2  GCU B   3       8.974  31.199  -8.0610  0.00  0.00     0.000 C
ATOM     36  C3  GCU B   3       8.213  30.109  -7.3360  0.00  0.00     0.000 C
ATOM     37  C4  GCU B   3       6.735  30.198  -7.6880  0.00  0.00     0.000 C
ATOM     38  C5  GCU B   3       6.560  30.091  -9.2050  0.00  0.00     0.000 C
ATOM     39  O5  GCU B   3       7.295  31.151  -9.8240  0.00  0.00     0.000 O
ATOM     40   O  GCU B   3      10.378  31.055  -7.8360  0.00  0.00     0.000 O
ATOM     42  HD  GCU B   3      10.954  30.619  -7.3570  0.00  0.00     0.000 HD
ATOM     42   O  GCU B   3       8.389  30.214  -5.9120  0.00  0.00     0.000 O
ATOM     44  HD  GCU B   3       8.965  29.778  -5.4330  0.00  0.00     0.000 HD
BRANCH 38 44
ATOM     44   C  GCU B   3       5.117  30.196  -9.6320  0.00  0.00     0.000 C
ATOM     45   O  GCU B   3       4.691  29.401 -10.4850  0.00  0.00     0.000 OA
ATOM     46   O  GCU B   3       4.384  31.067  -9.1260  0.00  0.00     0.000 OA
ENDBRANCH 38 44
BRANCH 34 47
ATOM     47  O3  NAG B   4       9.201  32.177 -10.1570  0.00  0.00     0.000 O
BRANCH 47 50
ATOM     48  C1  NAG B   4       8.971  35.528 -11.7310  0.00  0.00     0.000 C
ATOM     49  C2  NAG B   4       8.744  34.029 -11.5580  0.00  0.00     0.000 C
ATOM     50  C3  NAG B   4       8.996  33.589 -10.1250  0.00  0.00     0.000 C
ATOM     51  C4  NAG B   4      10.208  34.266  -9.4750  0.00  0.00     0.000 C
ATOM     52  C5  NAG B   4      10.044  35.776  -9.4430  0.00  0.00     0.000 C
ATOM     53  O5  NAG B   4       9.496  36.336 -10.6570  0.00  0.00     0.000 O
BRANCH 49 56
ATOM     54   N  NAG B   4       7.273  34.106 -11.5310  0.00  0.00     0.000 N
ATOM     56  HD  NAG B   4       6.802  34.593 -10.9910  0.00  0.00     0.000 HD
ATOM     56   C  NAG B   4       4.965  33.616 -12.0980  0.00  0.00     0.000 C
ATOM     57   O  NAG B   4       6.774  32.342 -12.8740  0.00  0.00     0.000 OA
ATOM     58   C  NAG B   4       6.425  33.296 -12.1940  0.00  0.00     0.000 C
ENDBRANCH 49 56
ATOM     59   O  NAG B   4      11.259  37.797  -8.7130  0.00  0.00     0.000 O
ATOM     61  HD  NAG B   4      11.070  37.233  -9.3420  0.00  0.00     0.000 HD
ATOM     61   O  NAG B   4      11.259  37.797  -8.7130  0.00  0.00     0.000 O
ATOM     63  HD  NAG B   4      11.070  37.233  -9.3420  0.00  0.00     0.000 HD
ENDBRANCH 47 50
ENDBRANCH 34 47
ENDBRANCH 33 37
ENDBRANCH 17 33
ENDBRANCH 16 19
ENDBRANCH 1 16
TORSDOF 10
ENDMDL
MODEL 5
REMARK VINA RESULT:      -9.0      3.525     13.458
ROOT
ATOM      1  C1  GCU B   1      -3.943  27.261  -1.5710  0.00  0.00     0.000 C
ATOM      2  C2  GCU B   1      -5.179  27.437  -0.7040  0.00  0.00     0.000 C
ATOM      3  C3  GCU B   1      -4.785  27.625   0.7530  0.00  0.00     0.000 C
ATOM      4  C4  GCU B   1      -3.841  26.515   1.1890  0.00  0.00     0.000 C
ATOM      5  C5  GCU B   1      -2.666  26.381   0.2190  0.00  0.00     0.000 C
ATOM      6  O5  GCU B   1      -3.171  26.143  -1.1020  0.00  0.00     0.000 O
ATOM      7   O  GCU B   1      -5.887  28.575  -1.1860  0.00  0.00     0.000 O
ATOM      9  HD  GCU B   1      -6.726  28.602  -1.4000  0.00  0.00     0.000 HD
ATOM      9   O  GCU B   1      -5.943  27.631   1.5920  0.00  0.00     0.000 O
ATOM     11  HD  GCU B   1      -6.782  27.658   1.3770  0.00  0.00     0.000 HD
ATOM     11   O  GCU B   1      -3.355  26.811   2.4990  0.00  0.00     0.000 O
ATOM     13  HD  GCU B   1      -4.193  26.837   2.2840  0.00  0.00     0.000 HD
ENDROOT
BRANCH 5 13
ATOM     13   C  GCU B   1      -1.739  25.283   0.6840  0.00  0.00     0.000 C
ATOM     14   O  GCU B   1      -0.501  25.426   0.6050  0.00  0.00     0.000 OA
ATOM     15   O  GCU B   1      -2.259  24.259   1.1660  0.00  0.00     0.000 OA
ENDBRANCH 5 13
BRANCH 1 16
ATOM     16  O3  NAG B   2      -3.854  26.629  -2.7430  0.00  0.00     0.000 O
BRANCH 16 19
ATOM     17  C1  NAG B   2      -1.139  26.475  -5.3570  0.00  0.00     0.000 C
ATOM     18  C2  NAG B   2      -2.170  27.120  -4.4390  0.00  0.00     0.000 C
ATOM     19  C3  NAG B   2      -2.757  26.078  -3.4880  0.00  0.00     0.000 C
ATOM     20  C4  NAG B   2      -3.272  24.872  -4.2720  0.00  0.00     0.000 C
ATOM     21  C5  NAG B   2      -2.159  24.312  -5.1470  0.00  0.00     0.000 C
ATOM     22  O5  NAG B   2      -1.705  25.345  -6.0400  0.00  0.00     0.000 O
ATOM     23   O  NAG B   2      -3.739  23.893  -3.3380  0.00  0.00     0.000 O
ATOM     25  HD  NAG B   2      -4.334  24.281  -3.8330  0.00  0.00     0.000 HD
ATOM     25   C  NAG B   2      -2.598  23.090  -5.9500  0.00  0.00     0.000 C
ATOM     26   O  NAG B   2      -3.473  23.451  -7.0300  0.00  0.00     0.000 O
ATOM     28  HD  NAG B   2      -4.068  23.840  -7.5250  0.00  0.00     0.000 HD
BRANCH 18 30
ATOM     28   N  NAG B   2      -2.115  28.518  -4.8210  0.00  0.00     0.000 N
ATOM     30  HD  NAG B   2      -1.843  28.527  -3.9990  0.00  0.00     0.000 HD
ATOM     30   C  NAG B   2      -1.833  29.513  -3.9700  0.00  0.00     0.000 C
ATOM     31   C  NAG B   2      -1.858  30.917  -4.5080  0.00  0.00     0.000 C
ATOM     32   O  NAG B   2      -1.568  29.303  -2.8040  0.00  0.00     0.000 OA
ENDBRANCH 18 30
BRANCH 17 33
ATOM     33  O4  GCU B   3      -0.652  27.497  -6.2500  0.00  0.00     0.000 O
BRANCH 33 37
ATOM     34  C1  GCU B   3       3.131  28.141  -7.8640  0.00  0.00     0.000 C
ATOM     35  C2  GCU B   3       2.331  26.947  -8.3860  0.00  0.00     0.000 C
ATOM     36  C3  GCU B   3       0.871  27.117  -8.0210  0.00  0.00     0.000 C
ATOM     37  C4  GCU B   3       0.740  27.323  -6.5190  0.00  0.00     0.000 C
ATOM     38  C5  GCU B   3       1.570  28.535  -6.0910  0.00  0.00     0.000 C
ATOM     39  O5  GCU B   3       2.934  28.306  -6.4570  0.00  0.00     0.000 O
ATOM     40   O  GCU B   3       2.481  26.874  -9.8050  0.00  0.00     0.000 O
ATOM     42  HD  GCU B   3       2.026  26.800 -10.5390  0.00  0.00     0.000 HD
ATOM     42   O  GCU B   3       0.098  25.976  -8.4340  0.00  0.00     0.000 O
ATOM     44  HD  GCU B   3      -0.356  25.902  -9.1670  0.00  0.00     0.000 HD
BRANCH 38 44
ATOM     44   C  GCU B   3       1.509  28.787  -4.6050  0.00  0.00     0.000 C
ATOM     45   O  GCU B   3       1.473  27.812  -3.8390  0.00  0.00     0.000 OA
ATOM     46   O  GCU B   3       1.498  29.957  -4.1770  0.00  0.00     0.000 OA
ENDBRANCH 38 44
BRANCH 34 47
ATOM     47  O3  NAG B   4       4.424  27.883  -8.0060  0.00  0.00     0.000 O
BRANCH 47 50
ATOM     48  C1  NAG B   4       6.430  30.820  -9.0570  0.00  0.00     0.000 C
ATOM     49  C2  NAG B   4       5.571  29.949  -8.1470  0.00  0.00     0.000 C
ATOM     50  C3  NAG B   4       5.560  28.501  -8.6090  0.00  0.00     0.000 C
ATOM     51  C4  NAG B   4       5.479  28.339 -10.1310  0.00  0.00     0.000 C
ATOM     52  C5  NAG B   4       6.659  29.005 -10.8190  0.00  0.00     0.000 C
ATOM     53  O5  NAG B   4       7.012  30.294 -10.2690  0.00  0.00     0.000 O
BRANCH 49 56
ATOM     54   N  NAG B   4       6.560  29.832  -7.0610  0.00  0.00     0.000 N
ATOM     56  HD  NAG B   4       7.361  29.512  -7.1380  0.00  0.00     0.000 HD
ATOM     56   C  NAG B   4       7.496  29.938  -4.8240  0.00  0.00     0.000 C
ATOM     57   O  NAG B   4       5.216  30.249  -5.2750  0.00  0.00     0.000 OA
ATOM     58   C  NAG B   4       6.319  30.013  -5.7470  0.00  0.00     0.000 C
ENDBRANCH 49 56
ATOM     59   O  NAG B   4       7.550  29.404 -13.0870  0.00  0.00     0.000 O
ATOM     61  HD  NAG B   4       7.070  29.678 -12.4200  0.00  0.00     0.000 HD
ATOM     61   O  NAG B   4       7.550  29.404 -13.0870  0.00  0.00     0.000 O
ATOM     63  HD  NAG B   4       7.070  29.678 -12.4200  0.00  0.00     0.000 HD
ENDBRANCH 47 50
ENDBRANCH 34 47
ENDBRANCH 33 37
ENDBRANCH 17 33
ENDBRANCH 16 19
ENDBRANCH 1 16
TORSDOF 10
ENDMDL
MODEL 6
REMARK VINA RESULT:      -8.6      3.901      5.814
ROOT
ATOM      1  C1  GCU B   1       8.093  32.004  -7.9570  0.00  0.00     0.000 C
ATOM      2  C2  GCU B   1       9.596  31.899  -7.7450  0.00  0.00     0.000 C
ATOM      3  C3  GCU B   1      10.227  33.282  -7.7240  0.00  0.00     0.000 C
ATOM      4  C4  GCU B   1       9.800  34.074  -8.9500  0.00  0.00     0.000 C
ATOM      5  C5  GCU B   1       8.278  34.066  -9.1060  0.00  0.00     0.000 C
ATOM      6  O5  GCU B   1       7.820  32.709  -9.1780  0.00  0.00     0.000 O
ATOM      7   O  GCU B   1       9.812  31.227  -6.5080  0.00  0.00     0.000 O
ATOM      9  HD  GCU B   1      10.316  30.534  -6.3850  0.00  0.00     0.000 HD
ATOM      9   O  GCU B   1      11.653  33.185  -7.6850  0.00  0.00     0.000 O
ATOM     11  HD  GCU B   1      12.158  32.491  -7.5620  0.00  0.00     0.000 HD
ATOM     11   O  GCU B   1      10.265  35.418  -8.8180  0.00  0.00     0.000 O
ATOM     13  HD  GCU B   1      10.769  34.724  -8.6950  0.00  0.00     0.000 HD
ENDROOT
BRANCH 5 13
ATOM     13   C  GCU B   1       7.882  34.870 -10.3220  0.00  0.00     0.000 C
ATOM     14   O  GCU B   1       7.644  36.091 -10.2210  0.00  0.00     0.000 OA
ATOM     15   O  GCU B   1       7.833  34.272 -11.4140  0.00  0.00     0.000 OA
ENDBRANCH 5 13
BRANCH 1 16
ATOM     16  O3  NAG B   2       7.281  31.087  -8.4890  0.00  0.00     0.000 O
BRANCH 16 19
ATOM     17  C1  NAG B   2       4.377  29.181  -7.0190  0.00  0.00     0.000 C
ATOM     18  C2  NAG B   2       5.806  29.698  -7.1300  0.00  0.00     0.000 C
ATOM     19  C3  NAG B   2       5.911  30.727  -8.2540  0.00  0.00     0.000 C
ATOM     20  C4  NAG B   2       5.340  30.159  -9.5520  0.00  0.00     0.000 C
ATOM     21  C5  NAG B   2       3.913  29.680  -9.3210  0.00  0.00     0.000 C
ATOM     22  O5  NAG B   2       3.919  28.681  -8.2860  0.00  0.00     0.000 O
ATOM     23   O  NAG B   2       5.388  31.182 -10.5520  0.00  0.00     0.000 O
ATOM     25  HD  NAG B   2       5.912  30.501 -10.6590  0.00  0.00     0.000 HD
ATOM     25   C  NAG B   2       3.270  29.111 -10.5850  0.00  0.00     0.000 C
ATOM     26   O  NAG B   2       3.810  27.824 -10.9220  0.00  0.00     0.000 O
ATOM     28  HD  NAG B   2       4.334  27.143 -11.0280  0.00  0.00     0.000 HD
BRANCH 18 30
ATOM     28   N  NAG B   2       6.015  29.990  -5.7250  0.00  0.00     0.000 N
ATOM     30  HD  NAG B   2       6.777  29.663  -5.9740  0.00  0.00     0.000 HD
ATOM     30   C  NAG B   2       7.121  29.654  -5.0490  0.00  0.00     0.000 C
ATOM     31   C  NAG B   2       7.170  29.987  -3.5840  0.00  0.00     0.000 C
ATOM     32   O  NAG B   2       8.056  29.098  -5.5880  0.00  0.00     0.000 OA
ENDBRANCH 18 30
BRANCH 17 33
ATOM     33  O4  GCU B   3       4.352  28.191  -5.9710  0.00  0.00     0.000 O
BRANCH 33 37
ATOM     34  C1  GCU B   3       1.152  26.339  -4.0560  0.00  0.00     0.000 C
ATOM     35  C2  GCU B   3       1.628  25.742  -5.3810  0.00  0.00     0.000 C
ATOM     36  C3  GCU B   3       3.017  26.256  -5.6990  0.00  0.00     0.000 C
ATOM     37  C4  GCU B   3       3.014  27.778  -5.6870  0.00  0.00     0.000 C
ATOM     38  C5  GCU B   3       2.528  28.282  -4.3270  0.00  0.00     0.000 C
ATOM     39  O5  GCU B   3       1.212  27.768  -4.0950  0.00  0.00     0.000 O
ATOM     40   O  GCU B   3       1.642  24.318  -5.2690  0.00  0.00     0.000 O
ATOM     42  HD  GCU B   3       2.143  23.625  -5.4070  0.00  0.00     0.000 HD
ATOM     42   O  GCU B   3       3.469  25.771  -6.9760  0.00  0.00     0.000 O
ATOM     44  HD  GCU B   3       3.970  25.078  -7.1140  0.00  0.00     0.000 HD
BRANCH 38 44
ATOM     44   C  GCU B   3       2.474  29.787  -4.2490  0.00  0.00     0.000 C
ATOM     45   O  GCU B   3       1.448  30.365  -4.6400  0.00  0.00     0.000 OA
ATOM     46   O  GCU B   3       3.448  30.418  -3.7960  0.00  0.00     0.000 OA
ENDBRANCH 38 44
BRANCH 34 47
ATOM     47  O3  NAG B   4      -0.131  26.050  -3.8940  0.00  0.00     0.000 O
BRANCH 47 50
ATOM     48  C1  NAG B   4      -3.786  26.490  -4.3450  0.00  0.00     0.000 C
ATOM     49  C2  NAG B   4      -2.378  26.792  -3.8420  0.00  0.00     0.000 C
ATOM     50  C3  NAG B   4      -1.324  26.082  -4.6760  0.00  0.00     0.000 C
ATOM     51  C4  NAG B   4      -1.710  24.653  -5.0750  0.00  0.00     0.000 C
ATOM     52  C5  NAG B   4      -2.993  24.637  -5.8900  0.00  0.00     0.000 C
ATOM     53  O5  NAG B   4      -4.017  25.528  -5.3960  0.00  0.00     0.000 O
BRANCH 49 56
ATOM     54   N  NAG B   4      -2.252  28.128  -4.4490  0.00  0.00     0.000 N
ATOM     56  HD  NAG B   4      -2.268  28.302  -5.2970  0.00  0.00     0.000 HD
ATOM     56   C  NAG B   4      -1.926  30.529  -4.6020  0.00  0.00     0.000 C
ATOM     57   O  NAG B   4      -1.576  29.311  -2.6290  0.00  0.00     0.000 OA
ATOM     58   C  NAG B   4      -1.897  29.259  -3.8070  0.00  0.00     0.000 C
ENDBRANCH 49 56
ATOM     59   O  NAG B   4      -4.510  23.036  -6.9990  0.00  0.00     0.000 O
ATOM     61  HD  NAG B   4      -4.307  23.499  -6.2960  0.00  0.00     0.000 HD
ATOM     61   O  NAG B   4      -4.510  23.036  -6.9990  0.00  0.00     0.000 O
ATOM     63  HD  NAG B   4      -4.307  23.499  -6.2960  0.00  0.00     0.000 HD
ENDBRANCH 47 50
ENDBRANCH 34 47
ENDBRANCH 33 37
ENDBRANCH 17 33
ENDBRANCH 16 19
ENDBRANCH 1 16
TORSDOF 10
ENDMDL
MODEL 7
REMARK VINA RESULT:      -8.6      2.739     11.669
ROOT
ATOM      1  C1  GCU B   1      -0.436  27.163  -5.7380  0.00  0.00     0.000 C
ATOM      2  C2  GCU B   1      -0.895  25.784  -6.1850  0.00  0.00     0.000 C
ATOM      3  C3  GCU B   1      -2.411  25.680  -6.1180  0.00  0.00     0.000 C
ATOM      4  C4  GCU B   1      -2.907  26.116  -4.7480  0.00  0.00     0.000 C
ATOM      5  C5  GCU B   1      -2.340  27.485  -4.3670  0.00  0.00     0.000 C
ATOM      6  O5  GCU B   1      -0.908  27.428  -4.4070  0.00  0.00     0.000 O
ATOM      7   O  GCU B   1      -0.435  25.585  -7.5180  0.00  0.00     0.000 O
ATOM      9  HD  GCU B   1       0.019  24.907  -7.8060  0.00  0.00     0.000 HD
ATOM      9   O  GCU B   1      -2.837  24.341  -6.3830  0.00  0.00     0.000 O
ATOM     11  HD  GCU B   1      -2.383  23.663  -6.6710  0.00  0.00     0.000 HD
ATOM     11   O  GCU B   1      -4.334  26.173  -4.7700  0.00  0.00     0.000 O
ATOM     13  HD  GCU B   1      -3.879  25.494  -5.0580  0.00  0.00     0.000 HD
ENDROOT
BRANCH 5 13
ATOM     13   C  GCU B   1      -2.859  27.897  -3.0110  0.00  0.00     0.000 C
ATOM     14   O  GCU B   1      -2.284  28.794  -2.3610  0.00  0.00     0.000 OA
ATOM     15   O  GCU B   1      -3.887  27.329  -2.5930  0.00  0.00     0.000 OA
ENDBRANCH 5 13
BRANCH 1 16
ATOM     16  O3  NAG B   2       0.747  27.497  -5.2170  0.00  0.00     0.000 O
BRANCH 16 19
ATOM     17  C1  NAG B   2       3.701  29.479  -6.4710  0.00  0.00     0.000 C
ATOM     18  C2  NAG B   2       2.675  28.352  -6.4420  0.00  0.00     0.000 C
ATOM     19  C3  NAG B   2       1.613  28.630  -5.3800  0.00  0.00     0.000 C
ATOM     20  C4  NAG B   2       2.271  28.923  -4.0320  0.00  0.00     0.000 C
ATOM     21  C5  NAG B   2       3.268  30.064  -4.1830  0.00  0.00     0.000 C
ATOM     22  O5  NAG B   2       4.255  29.694  -5.1630  0.00  0.00     0.000 O
ATOM     23   O  NAG B   2       1.244  29.253  -3.0910  0.00  0.00     0.000 O
ATOM     25  HD  NAG B   2       1.668  28.508  -2.9680  0.00  0.00     0.000 HD
ATOM     25   C  NAG B   2       3.956  30.424  -2.8680  0.00  0.00     0.000 C
ATOM     26   O  NAG B   2       4.919  29.430  -2.4830  0.00  0.00     0.000 O
ATOM     28  HD  NAG B   2       5.342  28.685  -2.3600  0.00  0.00     0.000 HD
BRANCH 18 30
ATOM     28   N  NAG B   2       3.103  27.460  -7.5030  0.00  0.00     0.000 N
ATOM     30  HD  NAG B   2       2.346  27.765  -7.7940  0.00  0.00     0.000 HD
ATOM     30   C  NAG B   2       2.351  27.151  -8.5660  0.00  0.00     0.000 C
ATOM     31   C  NAG B   2       2.916  26.175  -9.5590  0.00  0.00     0.000 C
ATOM     32   O  NAG B   2       1.248  27.631  -8.7320  0.00  0.00     0.000 OA
ENDBRANCH 18 30
BRANCH 17 33
ATOM     33  O4  GCU B   3       4.691  29.141  -7.4630  0.00  0.00     0.000 O
BRANCH 33 37
ATOM     34  C1  GCU B   3       6.829  31.534 -10.1160  0.00  0.00     0.000 C
ATOM     35  C2  GCU B   3       7.279  31.516  -8.6540  0.00  0.00     0.000 C
ATOM     36  C3  GCU B   3       6.689  30.309  -7.9560  0.00  0.00     0.000 C
ATOM     37  C4  GCU B   3       5.176  30.312  -8.1230  0.00  0.00     0.000 C
ATOM     38  C5  GCU B   3       4.822  30.327  -9.6110  0.00  0.00     0.000 C
ATOM     39  O5  GCU B   3       5.402  31.493 -10.2050  0.00  0.00     0.000 O
ATOM     40   O  GCU B   3       8.707  31.464  -8.6100  0.00  0.00     0.000 O
ATOM     42  HD  GCU B   3       9.365  31.034  -8.2470  0.00  0.00     0.000 HD
ATOM     42   O  GCU B   3       7.034  30.300  -6.5590  0.00  0.00     0.000 O
ATOM     44  HD  GCU B   3       7.692  29.870  -6.1960  0.00  0.00     0.000 HD
BRANCH 38 44
ATOM     44   C  GCU B   3       3.334  30.355  -9.8550  0.00  0.00     0.000 C
ATOM     45   O  GCU B   3       2.857  29.589 -10.7050  0.00  0.00     0.000 OA
ATOM     46   O  GCU B   3       2.616  31.137  -9.2030  0.00  0.00     0.000 OA
ENDBRANCH 38 44
BRANCH 34 47
ATOM     47  O3  NAG B   4       7.178  32.693 -10.6560  0.00  0.00     0.000 O
BRANCH 47 50
ATOM     48  C1  NAG B   4       8.953  35.381 -12.4950  0.00  0.00     0.000 C
ATOM     49  C2  NAG B   4       8.259  34.689 -11.3260  0.00  0.00     0.000 C
ATOM     50  C3  NAG B   4       8.197  33.184 -11.5260  0.00  0.00     0.000 C
ATOM     51  C4  NAG B   4       7.882  32.764 -12.9660  0.00  0.00     0.000 C
ATOM     52  C5  NAG B   4       8.931  33.288 -13.9340  0.00  0.00     0.000 C
ATOM     53  O5  NAG B   4       9.346  34.647 -13.6740  0.00  0.00     0.000 O
BRANCH 49 56
ATOM     54   N  NAG B   4       9.416  34.792 -10.4190  0.00  0.00     0.000 N
ATOM     56  HD  NAG B   4      10.228  34.557 -10.6070  0.00  0.00     0.000 HD
ATOM     56   C  NAG B   4      10.678  35.224  -8.3920  0.00  0.00     0.000 C
ATOM     57   O  NAG B   4       8.334  35.233  -8.4700  0.00  0.00     0.000 OA
ATOM     58   C  NAG B   4       9.368  35.075  -9.1020  0.00  0.00     0.000 C
ENDBRANCH 49 56
ATOM     59   O  NAG B   4       9.452  33.281 -16.3470  0.00  0.00     0.000 O
ATOM     61  HD  NAG B   4       9.078  33.671 -15.6710  0.00  0.00     0.000 HD
ATOM     61   O  NAG B   4       9.452  33.281 -16.3470  0.00  0.00     0.000 O
ATOM     63  HD  NAG B   4       9.078  33.671 -15.6710  0.00  0.00     0.000 HD
ENDBRANCH 47 50
ENDBRANCH 34 47
ENDBRANCH 33 37
ENDBRANCH 17 33
ENDBRANCH 16 19
ENDBRANCH 1 16
TORSDOF 10
ENDMDL
MODEL 8
REMARK VINA RESULT:      -8.6      3.408     13.004
ROOT
ATOM      1  C1  GCU B   1      -2.136  26.671  -1.8330  0.00  0.00     0.000 C
ATOM      2  C2  GCU B   1      -3.622  26.968  -1.7020  0.00  0.00     0.000 C
ATOM      3  C3  GCU B   1      -4.007  27.116  -0.2380  0.00  0.00     0.000 C
ATOM      4  C4  GCU B   1      -3.512  25.920   0.5600  0.00  0.00     0.000 C
ATOM      5  C5  GCU B   1      -2.024  25.671   0.3110  0.00  0.00     0.000 C
ATOM      6  O5  GCU B   1      -1.808  25.483  -1.0940  0.00  0.00     0.000 O
ATOM      7   O  GCU B   1      -3.888  28.169  -2.4180  0.00  0.00     0.000 O
ATOM      9  HD  GCU B   1      -4.496  28.278  -3.0250  0.00  0.00     0.000 HD
ATOM      9   O  GCU B   1      -5.425  27.237  -0.1000  0.00  0.00     0.000 O
ATOM     11  HD  GCU B   1      -6.033  27.346  -0.7070  0.00  0.00     0.000 HD
ATOM     11   O  GCU B   1      -3.735  26.167   1.9490  0.00  0.00     0.000 O
ATOM     13  HD  GCU B   1      -4.343  26.276   1.3420  0.00  0.00     0.000 HD
ENDROOT
BRANCH 5 13
ATOM     13   C  GCU B   1      -1.558  24.488   1.1250  0.00  0.00     0.000 C
ATOM     14   O  GCU B   1      -0.377  24.423   1.5260  0.00  0.00     0.000 OA
ATOM     15   O  GCU B   1      -2.400  23.610   1.3960  0.00  0.00     0.000 OA
ENDBRANCH 5 13
BRANCH 1 16
ATOM     16  O3  NAG B   2      -1.519  26.032  -2.8300  0.00  0.00     0.000 O
BRANCH 16 19
ATOM     17  C1  NAG B   2       1.052  27.178  -5.3410  0.00  0.00     0.000 C
ATOM     18  C2  NAG B   2      -0.268  27.183  -4.5810  0.00  0.00     0.000 C
ATOM     19  C3  NAG B   2      -0.226  26.169  -3.4390  0.00  0.00     0.000 C
ATOM     20  C4  NAG B   2       0.201  24.797  -3.9610  0.00  0.00     0.000 C
ATOM     21  C5  NAG B   2       1.529  24.915  -4.6950  0.00  0.00     0.000 C
ATOM     22  O5  NAG B   2       1.380  25.849  -5.7790  0.00  0.00     0.000 O
ATOM     23   O  NAG B   2       0.302  23.903  -2.8470  0.00  0.00     0.000 O
ATOM     25  HD  NAG B   2      -0.335  23.756  -3.4150  0.00  0.00     0.000 HD
ATOM     25   C  NAG B   2       2.028  23.575  -5.2320  0.00  0.00     0.000 C
ATOM     26   O  NAG B   2       1.264  23.142  -6.3680  0.00  0.00     0.000 O
ATOM     28  HD  NAG B   2       0.627  22.995  -6.9360  0.00  0.00     0.000 HD
BRANCH 18 30
ATOM     28   N  NAG B   2      -0.388  28.615  -4.3870  0.00  0.00     0.000 N
ATOM     30  HD  NAG B   2      -1.198  28.373  -4.5740  0.00  0.00     0.000 HD
ATOM     30   C  NAG B   2      -1.511  29.308  -4.6140  0.00  0.00     0.000 C
ATOM     31   C  NAG B   2      -1.465  30.796  -4.4090  0.00  0.00     0.000 C
ATOM     32   O  NAG B   2      -2.536  28.766  -4.9760  0.00  0.00     0.000 OA
ENDBRANCH 18 30
BRANCH 17 33
ATOM     33  O4  GCU B   3       0.936  28.124  -6.4230  0.00  0.00     0.000 O
BRANCH 33 37
ATOM     34  C1  GCU B   3       3.873  30.042  -8.6650  0.00  0.00     0.000 C
ATOM     35  C2  GCU B   3       3.374  28.684  -9.1610  0.00  0.00     0.000 C
ATOM     36  C3  GCU B   3       2.056  28.354  -8.4950  0.00  0.00     0.000 C
ATOM     37  C4  GCU B   3       2.215  28.424  -6.9830  0.00  0.00     0.000 C
ATOM     38  C5  GCU B   3       2.713  29.814  -6.5810  0.00  0.00     0.000 C
ATOM     39  O5  GCU B   3       3.961  30.058  -7.2370  0.00  0.00     0.000 O
ATOM     40   O  GCU B   3       3.211  28.741 -10.5800  0.00  0.00     0.000 O
ATOM     42  HD  GCU B   3       2.645  28.565 -11.2110  0.00  0.00     0.000 HD
ATOM     42   O  GCU B   3       1.592  27.048  -8.8840  0.00  0.00     0.000 O
ATOM     44  HD  GCU B   3       1.027  26.872  -9.5150  0.00  0.00     0.000 HD
BRANCH 38 44
ATOM     44   C  GCU B   3       2.919  29.950  -5.0940  0.00  0.00     0.000 C
ATOM     45   O  GCU B   3       4.023  29.644  -4.6170  0.00  0.00     0.000 OA
ATOM     46   O  GCU B   3       1.990  30.368  -4.3770  0.00  0.00     0.000 OA
ENDBRANCH 38 44
BRANCH 34 47
ATOM     47  O3  NAG B   4       5.114  30.224  -9.0920  0.00  0.00     0.000 O
BRANCH 47 50
ATOM     48  C1  NAG B   4       8.274  31.915 -10.0460  0.00  0.00     0.000 C
ATOM     49  C2  NAG B   4       6.879  31.325 -10.2210  0.00  0.00     0.000 C
ATOM     50  C3  NAG B   4       6.171  31.160  -8.8870  0.00  0.00     0.000 C
ATOM     51  C4  NAG B   4       7.083  30.659  -7.7610  0.00  0.00     0.000 C
ATOM     52  C5  NAG B   4       8.241  31.615  -7.5240  0.00  0.00     0.000 C
ATOM     53  O5  NAG B   4       8.838  32.130  -8.7350  0.00  0.00     0.000 O
BRANCH 49 56
ATOM     54   N  NAG B   4       5.987  32.424 -10.6320  0.00  0.00     0.000 N
ATOM     56  HD  NAG B   4       5.373  32.786 -10.1410  0.00  0.00     0.000 HD
ATOM     56   C  NAG B   4       4.951  34.093 -12.0570  0.00  0.00     0.000 C
ATOM     57   O  NAG B   4       6.410  32.444 -12.8650  0.00  0.00     0.000 OA
ATOM     58   C  NAG B   4       5.845  32.904 -11.8840  0.00  0.00     0.000 C
ENDBRANCH 49 56
ATOM     59   O  NAG B   4      10.237  31.853  -6.0910  0.00  0.00     0.000 O
ATOM     61  HD  NAG B   4       9.887  31.581  -6.8350  0.00  0.00     0.000 HD
ATOM     61   O  NAG B   4      10.237  31.853  -6.0910  0.00  0.00     0.000 O
ATOM     63  HD  NAG B   4       9.887  31.581  -6.8350  0.00  0.00     0.000 HD
ENDBRANCH 47 50
ENDBRANCH 34 47
ENDBRANCH 33 37
ENDBRANCH 17 33
ENDBRANCH 16 19
ENDBRANCH 1 16
TORSDOF 10
ENDMDL
MODEL 9
REMARK VINA RESULT:      -8.5      3.809      7.282
ROOT
ATOM      1  C1  GCU B   1       5.620  29.838  -8.7190  0.00  0.00     0.000 C
ATOM      2  C2  GCU B   1       6.895  30.134  -9.4930  0.00  0.00     0.000 C
ATOM      3  C3  GCU B   1       6.937  31.596  -9.9110  0.00  0.00     0.000 C
ATOM      4  C4  GCU B   1       5.646  31.977 -10.6190  0.00  0.00     0.000 C
ATOM      5  C5  GCU B   1       4.425  31.583  -9.7860  0.00  0.00     0.000 C
ATOM      6  O5  GCU B   1       4.474  30.175  -9.5170  0.00  0.00     0.000 O
ATOM      7   O  GCU B   1       7.998  29.820  -8.6480  0.00  0.00     0.000 O
ATOM      9  HD  GCU B   1       8.666  29.307  -8.8500  0.00  0.00     0.000 HD
ATOM      9   O  GCU B   1       8.051  31.843 -10.7720  0.00  0.00     0.000 O
ATOM     11  HD  GCU B   1       8.719  31.330 -10.9740  0.00  0.00     0.000 HD
ATOM     11   O  GCU B   1       5.642  33.387 -10.8450  0.00  0.00     0.000 O
ATOM     13  HD  GCU B   1       6.310  32.874 -11.0460  0.00  0.00     0.000 HD
ENDROOT
BRANCH 5 13
ATOM     13   C  GCU B   1       3.160  31.985 -10.5060  0.00  0.00     0.000 C
ATOM     14   O  GCU B   1       3.203  32.360 -11.6950  0.00  0.00     0.000 OA
ATOM     15   O  GCU B   1       2.089  31.898  -9.8750  0.00  0.00     0.000 OA
ENDBRANCH 5 13
BRANCH 1 16
ATOM     16  O3  NAG B   2       4.996  28.665  -8.5980  0.00  0.00     0.000 O
BRANCH 16 19
ATOM     17  C1  NAG B   2       2.326  27.480  -6.2110  0.00  0.00     0.000 C
ATOM     18  C2  NAG B   2       3.665  28.066  -6.6430  0.00  0.00     0.000 C
ATOM     19  C3  NAG B   2       3.684  28.286  -8.1550  0.00  0.00     0.000 C
ATOM     20  C4  NAG B   2       3.287  27.003  -8.8840  0.00  0.00     0.000 C
ATOM     21  C5  NAG B   2       1.938  26.516  -8.3750  0.00  0.00     0.000 C
ATOM     22  O5  NAG B   2       2.029  26.289  -6.9580  0.00  0.00     0.000 O
ATOM     23   O  NAG B   2       3.244  27.278 -10.2890  0.00  0.00     0.000 O
ATOM     25  HD  NAG B   2       3.870  26.749 -10.0090  0.00  0.00     0.000 HD
ATOM     25   C  NAG B   2       1.469  25.241  -9.0740  0.00  0.00     0.000 C
ATOM     26   O  NAG B   2       2.217  24.094  -8.6420  0.00  0.00     0.000 O
ATOM     28  HD  NAG B   2       2.843  23.566  -8.3630  0.00  0.00     0.000 HD
BRANCH 18 30
ATOM     28   N  NAG B   2       3.706  28.996  -5.5310  0.00  0.00     0.000 N
ATOM     30  HD  NAG B   2       4.542  28.892  -5.7320  0.00  0.00     0.000 HD
ATOM     30   C  NAG B   2       4.837  29.412  -4.9480  0.00  0.00     0.000 C
ATOM     31   C  NAG B   2       4.715  30.344  -3.7740  0.00  0.00     0.000 C
ATOM     32   O  NAG B   2       5.930  29.054  -5.3410  0.00  0.00     0.000 OA
ENDBRANCH 18 30
BRANCH 17 33
ATOM     33  O4  GCU B   3       2.384  27.263  -4.7870  0.00  0.00     0.000 O
BRANCH 33 37
ATOM     34  C1  GCU B   3      -0.659  26.531  -2.0430  0.00  0.00     0.000 C
ATOM     35  C2  GCU B   3      -0.001  25.323  -2.7110  0.00  0.00     0.000 C
ATOM     36  C3  GCU B   3       1.321  25.740  -3.3210  0.00  0.00     0.000 C
ATOM     37  C4  GCU B   3       1.101  26.910  -4.2690  0.00  0.00     0.000 C
ATOM     38  C5  GCU B   3       0.443  28.067  -3.5140  0.00  0.00     0.000 C
ATOM     39  O5  GCU B   3      -0.800  27.609  -2.9720  0.00  0.00     0.000 O
ATOM     40   O  GCU B   3       0.207  24.306  -1.7290  0.00  0.00     0.000 O
ATOM     42  HD  GCU B   3       0.810  23.770  -1.4160  0.00  0.00     0.000 HD
ATOM     42   O  GCU B   3       1.936  24.644  -4.0220  0.00  0.00     0.000 O
ATOM     44  HD  GCU B   3       2.540  24.108  -3.7080  0.00  0.00     0.000 HD
BRANCH 38 44
ATOM     44   C  GCU B   3       0.169  29.258  -4.3980  0.00  0.00     0.000 C
ATOM     45   O  GCU B   3      -0.924  29.327  -4.9790  0.00  0.00     0.000 OA
ATOM     46   O  GCU B   3       1.035  30.145  -4.5250  0.00  0.00     0.000 OA
ENDBRANCH 38 44
BRANCH 34 47
ATOM     47  O3  NAG B   4      -1.897  26.205  -1.6980  0.00  0.00     0.000 O
BRANCH 47 50
ATOM     48  C1  NAG B   4      -4.423  25.797   0.9870  0.00  0.00     0.000 C
ATOM     49  C2  NAG B   4      -3.090  25.632   0.2640  0.00  0.00     0.000 C
ATOM     50  C3  NAG B   4      -2.904  26.690  -0.8110  0.00  0.00     0.000 C
ATOM     51  C4  NAG B   4      -4.179  26.994  -1.6060  0.00  0.00     0.000 C
ATOM     52  C5  NAG B   4      -5.290  27.491  -0.6950  0.00  0.00     0.000 C
ATOM     53  O5  NAG B   4      -5.397  26.770   0.5520  0.00  0.00     0.000 O
BRANCH 49 56
ATOM     54   N  NAG B   4      -2.159  26.264   1.2140  0.00  0.00     0.000 N
ATOM     56  HD  NAG B   4      -1.994  27.112   1.2730  0.00  0.00     0.000 HD
ATOM     56   C  NAG B   4      -0.488  26.460   2.9640  0.00  0.00     0.000 C
ATOM     57   O  NAG B   4      -1.088  24.414   1.9870  0.00  0.00     0.000 OA
ATOM     58   C  NAG B   4      -1.272  25.622   2.0010  0.00  0.00     0.000 C
ENDBRANCH 49 56
ATOM     59   O  NAG B   4      -7.644  28.226  -0.8090  0.00  0.00     0.000 O
ATOM     61  HD  NAG B   4      -7.072  27.587  -0.6870  0.00  0.00     0.000 HD
ATOM     61   O  NAG B   4      -7.644  28.226  -0.8090  0.00  0.00     0.000 O
ATOM     63  HD  NAG B   4      -7.072  27.587  -0.6870  0.00  0.00     0.000 HD
ENDBRANCH 47 50
ENDBRANCH 34 47
ENDBRANCH 33 37
ENDBRANCH 17 33
ENDBRANCH 16 19
ENDBRANCH 1 16
TORSDOF 10
ENDMDL
MODEL 10
REMARK VINA RESULT:      -8.4      2.631      4.997
ROOT
ATOM      1  C1  GCU B   1       6.599  31.546  -9.5810  0.00  0.00     0.000 C
ATOM      2  C2  GCU B   1       7.423  32.579 -10.3320  0.00  0.00     0.000 C
ATOM      3  C3  GCU B   1       7.388  32.303 -11.8270  0.00  0.00     0.000 C
ATOM      4  C4  GCU B   1       7.759  30.854 -12.1030  0.00  0.00     0.000 C
ATOM      5  C5  GCU B   1       6.916  29.900 -11.2540  0.00  0.00     0.000 C
ATOM      6  O5  GCU B   1       7.089  30.226  -9.8690  0.00  0.00     0.000 O
ATOM      7   O  GCU B   1       6.876  33.862 -10.0440  0.00  0.00     0.000 O
ATOM      9  HD  GCU B   1       7.313  34.551  -9.7540  0.00  0.00     0.000 HD
ATOM      9   O  GCU B   1       8.286  33.172 -12.5220  0.00  0.00     0.000 O
ATOM     11  HD  GCU B   1       8.724  33.861 -12.2330  0.00  0.00     0.000 HD
ATOM     11   O  GCU B   1       7.552  30.580 -13.4890  0.00  0.00     0.000 O
ATOM     13  HD  GCU B   1       7.990  31.269 -13.2000  0.00  0.00     0.000 HD
ENDROOT
BRANCH 5 13
ATOM     13   C  GCU B   1       7.296  28.470 -11.5580  0.00  0.00     0.000 C
ATOM     14   O  GCU B   1       8.143  27.880 -10.8570  0.00  0.00     0.000 OA
ATOM     15   O  GCU B   1       6.713  27.911 -12.5060  0.00  0.00     0.000 OA
ENDBRANCH 5 13
BRANCH 1 16
ATOM     16  O3  NAG B   2       6.745  31.154  -8.3130  0.00  0.00     0.000 O
BRANCH 16 19
ATOM     17  C1  NAG B   2       3.887  29.378  -6.6090  0.00  0.00     0.000 C
ATOM     18  C2  NAG B   2       4.570  30.296  -7.6140  0.00  0.00     0.000 C
ATOM     19  C3  NAG B   2       6.088  30.166  -7.5030  0.00  0.00     0.000 C
ATOM     20  C4  NAG B   2       6.535  30.366  -6.0550  0.00  0.00     0.000 C
ATOM     21  C5  NAG B   2       5.792  29.396  -5.1480  0.00  0.00     0.000 C
ATOM     22  O5  NAG B   2       4.378  29.625  -5.2810  0.00  0.00     0.000 O
ATOM     23   O  NAG B   2       7.950  30.159  -5.9870  0.00  0.00     0.000 O
ATOM     25  HD  NAG B   2       7.663  30.964  -5.8540  0.00  0.00     0.000 HD
ATOM     25   C  NAG B   2       6.200  29.528  -3.6820  0.00  0.00     0.000 C
ATOM     26   O  NAG B   2       5.673  30.725  -3.0900  0.00  0.00     0.000 O
ATOM     28  HD  NAG B   2       5.385  31.531  -2.9560  0.00  0.00     0.000 HD
BRANCH 18 30
ATOM     28   N  NAG B   2       3.654  31.097  -8.4030  0.00  0.00     0.000 N
ATOM     30  HD  NAG B   2       3.785  30.400  -8.9000  0.00  0.00     0.000 HD
ATOM     30   C  NAG B   2       3.284  30.793  -9.6530  0.00  0.00     0.000 C
ATOM     31   C  NAG B   2       2.360  31.746 -10.3590  0.00  0.00     0.000 C
ATOM     32   O  NAG B   2       3.675  29.786 -10.2100  0.00  0.00     0.000 OA
ENDBRANCH 18 30
BRANCH 17 33
ATOM     33  O4  GCU B   3       2.464  29.573  -6.7380  0.00  0.00     0.000 O
BRANCH 33 37
ATOM     34  C1  GCU B   3      -0.737  27.352  -5.2710  0.00  0.00     0.000 C
ATOM     35  C2  GCU B   3      -0.069  28.348  -4.3210  0.00  0.00     0.000 C
ATOM     36  C3  GCU B   3       0.753  29.336  -5.1200  0.00  0.00     0.000 C
ATOM     37  C4  GCU B   3       1.741  28.586  -6.0010  0.00  0.00     0.000 C
ATOM     38  C5  GCU B   3       0.985  27.619  -6.9150  0.00  0.00     0.000 C
ATOM     39  O5  GCU B   3       0.238  26.711  -6.0990  0.00  0.00     0.000 O
ATOM     40   O  GCU B   3      -1.082  29.032  -3.5810  0.00  0.00     0.000 O
ATOM     42  HD  GCU B   3      -1.344  29.824  -3.3490  0.00  0.00     0.000 HD
ATOM     42   O  GCU B   3       1.455  30.246  -4.2530  0.00  0.00     0.000 O
ATOM     44  HD  GCU B   3       1.193  31.038  -4.0210  0.00  0.00     0.000 HD
BRANCH 38 44
ATOM     44   C  GCU B   3       1.904  26.818  -7.8030  0.00  0.00     0.000 C
ATOM     45   O  GCU B   3       2.665  25.991  -7.2780  0.00  0.00     0.000 OA
ATOM     46   O  GCU B   3       1.882  26.997  -9.0360  0.00  0.00     0.000 OA
ENDBRANCH 38 44
BRANCH 34 47
ATOM     47  O3  NAG B   4      -1.279  26.377  -4.5550  0.00  0.00     0.000 O
BRANCH 47 50
ATOM     48  C1  NAG B   4      -3.538  23.738  -3.2550  0.00  0.00     0.000 C
ATOM     49  C2  NAG B   4      -2.660  24.984  -3.2290  0.00  0.00     0.000 C
ATOM     50  C3  NAG B   4      -2.426  25.532  -4.6280  0.00  0.00     0.000 C
ATOM     51  C4  NAG B   4      -2.192  24.446  -5.6850  0.00  0.00     0.000 C
ATOM     52  C5  NAG B   4      -3.381  23.504  -5.7790  0.00  0.00     0.000 C
ATOM     53  O5  NAG B   4      -3.939  23.129  -4.5010  0.00  0.00     0.000 O
BRANCH 49 56
ATOM     54   N  NAG B   4      -3.749  25.834  -2.7150  0.00  0.00     0.000 N
ATOM     56  HD  NAG B   4      -4.581  25.783  -2.9470  0.00  0.00     0.000 HD
ATOM     56   C  NAG B   4      -4.854  27.600  -1.4700  0.00  0.00     0.000 C
ATOM     57   O  NAG B   4      -2.522  27.424  -1.6510  0.00  0.00     0.000 OA
ATOM     58   C  NAG B   4      -3.601  26.943  -1.9640  0.00  0.00     0.000 C
ENDBRANCH 49 56
ATOM     59   O  NAG B   4      -4.112  21.496  -7.0160  0.00  0.00     0.000 O
ATOM     61  HD  NAG B   4      -3.731  21.839  -6.3180  0.00  0.00     0.000 HD
ATOM     61   O  NAG B   4      -4.112  21.496  -7.0160  0.00  0.00     0.000 O
ATOM     63  HD  NAG B   4      -3.731  21.839  -6.3180  0.00  0.00     0.000 HD
ENDBRANCH 47 50
ENDBRANCH 34 47
ENDBRANCH 33 37
ENDBRANCH 17 33
ENDBRANCH 16 19
ENDBRANCH 1 16
TORSDOF 10
ENDMDL
MODEL 11
REMARK VINA RESULT:      -8.4      3.894      7.276
ROOT
ATOM      1  C1  GCU B   1       9.874  32.019  -5.7870  0.00  0.00     0.000 C
ATOM      2  C2  GCU B   1      11.371  31.978  -5.5250  0.00  0.00     0.000 C
ATOM      3  C3  GCU B   1      11.797  33.172  -4.6850  0.00  0.00     0.000 C
ATOM      4  C4  GCU B   1      11.283  34.462  -5.3060  0.00  0.00     0.000 C
ATOM      5  C5  GCU B   1       9.781  34.377  -5.5850  0.00  0.00     0.000 C
ATOM      6  O5  GCU B   1       9.525  33.252  -6.4360  0.00  0.00     0.000 O
ATOM      7   O  GCU B   1      11.659  30.758  -4.8490  0.00  0.00     0.000 O
ATOM      9  HD  GCU B   1      12.255  30.174  -5.0810  0.00  0.00     0.000 HD
ATOM      9   O  GCU B   1      13.221  33.225  -4.5690  0.00  0.00     0.000 O
ATOM     11  HD  GCU B   1      13.817  32.641  -4.8010  0.00  0.00     0.000 HD
ATOM     11   O  GCU B   1      11.548  35.543  -4.4110  0.00  0.00     0.000 O
ATOM     13  HD  GCU B   1      12.144  34.959  -4.6430  0.00  0.00     0.000 HD
ENDROOT
BRANCH 5 13
ATOM     13   C  GCU B   1       9.297  35.674  -6.1880  0.00  0.00     0.000 C
ATOM     14   O  GCU B   1       9.579  35.966  -7.3680  0.00  0.00     0.000 OA
ATOM     15   O  GCU B   1       8.591  36.411  -5.4730  0.00  0.00     0.000 OA
ENDBRANCH 5 13
BRANCH 1 16
ATOM     16  O3  NAG B   2       9.212  31.474  -6.8100  0.00  0.00     0.000 O
BRANCH 16 19
ATOM     17  C1  NAG B   2       5.778  29.944  -7.1120  0.00  0.00     0.000 C
ATOM     18  C2  NAG B   2       7.196  30.119  -6.5830  0.00  0.00     0.000 C
ATOM     19  C3  NAG B   2       7.820  31.391  -7.1540  0.00  0.00     0.000 C
ATOM     20  C4  NAG B   2       7.705  31.404  -8.6780  0.00  0.00     0.000 C
ATOM     21  C5  NAG B   2       6.250  31.226  -9.0860  0.00  0.00     0.000 C
ATOM     22  O5  NAG B   2       5.763  29.984  -8.5480  0.00  0.00     0.000 O
ATOM     23   O  NAG B   2       8.231  32.646  -9.1590  0.00  0.00     0.000 O
ATOM     25  HD  NAG B   2       8.678  31.928  -9.3470  0.00  0.00     0.000 HD
ATOM     25   C  NAG B   2       6.055  31.245 -10.6010  0.00  0.00     0.000 C
ATOM     26   O  NAG B   2       6.533  30.037 -11.2120  0.00  0.00     0.000 O
ATOM     28  HD  NAG B   2       6.980  29.319 -11.4000  0.00  0.00     0.000 HD
BRANCH 18 30
ATOM     28   N  NAG B   2       7.416  28.999  -5.6890  0.00  0.00     0.000 N
ATOM     30  HD  NAG B   2       7.382  29.677  -5.1510  0.00  0.00     0.000 HD
ATOM     30   C  NAG B   2       7.642  29.126  -4.3750  0.00  0.00     0.000 C
ATOM     31   C  NAG B   2       7.897  27.871  -3.5880  0.00  0.00     0.000 C
ATOM     32   O  NAG B   2       7.646  30.210  -3.8280  0.00  0.00     0.000 OA
ENDBRANCH 18 30
BRANCH 17 33
ATOM     33  O4  GCU B   3       5.259  28.713  -6.5690  0.00  0.00     0.000 O
BRANCH 33 37
ATOM     34  C1  GCU B   3       1.350  27.574  -5.7010  0.00  0.00     0.000 C
ATOM     35  C2  GCU B   3       1.671  27.969  -7.1430  0.00  0.00     0.000 C
ATOM     36  C3  GCU B   3       3.169  27.932  -7.3580  0.00  0.00     0.000 C
ATOM     37  C4  GCU B   3       3.855  28.812  -6.3230  0.00  0.00     0.000 C
ATOM     38  C5  GCU B   3       3.479  28.341  -4.9160  0.00  0.00     0.000 C
ATOM     39  O5  GCU B   3       2.056  28.409  -4.7790  0.00  0.00     0.000 O
ATOM     40   O  GCU B   3       1.022  27.055  -8.0300  0.00  0.00     0.000 O
ATOM     42  HD  GCU B   3       1.167  26.547  -8.7160  0.00  0.00     0.000 HD
ATOM     42   O  GCU B   3       3.513  28.369  -8.6850  0.00  0.00     0.000 O
ATOM     44  HD  GCU B   3       3.658  27.861  -9.3710  0.00  0.00     0.000 HD
BRANCH 38 44
ATOM     44   C  GCU B   3       4.104  29.185  -3.8340  0.00  0.00     0.000 C
ATOM     45   O  GCU B   3       4.279  30.394  -4.0490  0.00  0.00     0.000 OA
ATOM     46   O  GCU B   3       4.428  28.660  -2.7510  0.00  0.00     0.000 OA
ENDBRANCH 38 44
BRANCH 34 47
ATOM     47  O3  NAG B   4       0.066  27.808  -5.4700  0.00  0.00     0.000 O
BRANCH 47 50
ATOM     48  C1  NAG B   4      -3.456  27.142  -4.5180  0.00  0.00     0.000 C
ATOM     49  C2  NAG B   4      -2.217  27.187  -5.4060  0.00  0.00     0.000 C
ATOM     50  C3  NAG B   4      -0.947  27.333  -4.5850  0.00  0.00     0.000 C
ATOM     51  C4  NAG B   4      -1.084  28.300  -3.4020  0.00  0.00     0.000 C
ATOM     52  C5  NAG B   4      -2.172  27.846  -2.4430  0.00  0.00     0.000 C
ATOM     53  O5  NAG B   4      -3.367  27.361  -3.0950  0.00  0.00     0.000 O
BRANCH 49 56
ATOM     54   N  NAG B   4      -2.224  25.738  -5.6720  0.00  0.00     0.000 N
ATOM     56  HD  NAG B   4      -2.327  25.115  -5.0790  0.00  0.00     0.000 HD
ATOM     56   C  NAG B   4      -2.051  23.657  -6.9100  0.00  0.00     0.000 C
ATOM     57   O  NAG B   4      -1.452  25.738  -7.8100  0.00  0.00     0.000 OA
ATOM     58   C  NAG B   4      -1.876  25.143  -6.8310  0.00  0.00     0.000 C
ENDBRANCH 49 56
ATOM     59   O  NAG B   4      -3.253  28.548  -0.3380  0.00  0.00     0.000 O
ATOM     61  HD  NAG B   4      -3.245  28.553  -1.2040  0.00  0.00     0.000 HD
ATOM     61   O  NAG B   4      -3.253  28.548  -0.3380  0.00  0.00     0.000 O
ATOM     63  HD  NAG B   4      -3.245  28.553  -1.2040  0.00  0.00     0.000 HD
ENDBRANCH 47 50
ENDBRANCH 34 47
ENDBRANCH 33 37
ENDBRANCH 17 33
ENDBRANCH 16 19
ENDBRANCH 1 16
TORSDOF 10
ENDMDL
MODEL 12
REMARK VINA RESULT:      -8.1      4.540      7.270
ROOT
ATOM      1  C1  GCU B   1       7.880  30.214  -6.5270  0.00  0.00     0.000 C
ATOM      2  C2  GCU B   1       8.475  31.048  -7.6510  0.00  0.00     0.000 C
ATOM      3  C3  GCU B   1       9.939  30.693  -7.8590  0.00  0.00     0.000 C
ATOM      4  C4  GCU B   1      10.688  30.757  -6.5370  0.00  0.00     0.000 C
ATOM      5  C5  GCU B   1       9.976  29.936  -5.4610  0.00  0.00     0.000 C
ATOM      6  O5  GCU B   1       8.631  30.413  -5.3190  0.00  0.00     0.000 O
ATOM      7   O  GCU B   1       7.720  30.787  -8.8300  0.00  0.00     0.000 O
ATOM      9  HD  GCU B   1       7.355  31.381  -9.3440  0.00  0.00     0.000 HD
ATOM      9   O  GCU B   1      10.544  31.582  -8.8020  0.00  0.00     0.000 O
ATOM     11  HD  GCU B   1      10.179  32.175  -9.3160  0.00  0.00     0.000 HD
ATOM     11   O  GCU B   1      12.011  30.256  -6.7320  0.00  0.00     0.000 O
ATOM     13  HD  GCU B   1      11.646  30.849  -7.2460  0.00  0.00     0.000 HD
ENDROOT
BRANCH 5 13
ATOM     13   C  GCU B   1      10.749  30.007  -4.1660  0.00  0.00     0.000 C
ATOM     14   O  GCU B   1      11.696  29.222  -3.9520  0.00  0.00     0.000 OA
ATOM     15   O  GCU B   1      10.420  30.889  -3.3490  0.00  0.00     0.000 OA
ENDBRANCH 5 13
BRANCH 1 16
ATOM     16  O3  NAG B   2       6.842  30.522  -5.7470  0.00  0.00     0.000 O
BRANCH 16 19
ATOM     17  C1  NAG B   2       3.338  29.320  -5.0350  0.00  0.00     0.000 C
ATOM     18  C2  NAG B   2       4.460  29.997  -5.8120  0.00  0.00     0.000 C
ATOM     19  C3  NAG B   2       5.804  29.744  -5.1320  0.00  0.00     0.000 C
ATOM     20  C4  NAG B   2       5.733  30.129  -3.6540  0.00  0.00     0.000 C
ATOM     21  C5  NAG B   2       4.583  29.391  -2.9830  0.00  0.00     0.000 C
ATOM     22  O5  NAG B   2       3.358  29.728  -3.6570  0.00  0.00     0.000 O
ATOM     23   O  NAG B   2       6.986  29.802  -3.0430  0.00  0.00     0.000 O
ATOM     25  HD  NAG B   2       6.791  30.642  -3.1180  0.00  0.00     0.000 HD
ATOM     25   C  NAG B   2       4.462  29.716  -1.4960  0.00  0.00     0.000 C
ATOM     26   O  NAG B   2       3.940  31.036  -1.2820  0.00  0.00     0.000 O
ATOM     28  HD  NAG B   2       3.745  31.877  -1.3580  0.00  0.00     0.000 HD
BRANCH 18 30
ATOM     28   N  NAG B   2       3.667  30.413  -6.9540  0.00  0.00     0.000 N
ATOM     30  HD  NAG B   2       4.344  30.013  -7.3180  0.00  0.00     0.000 HD
ATOM     30   C  NAG B   2       4.065  30.281  -8.2250  0.00  0.00     0.000 C
ATOM     31   C  NAG B   2       3.151  30.801  -9.2990  0.00  0.00     0.000 C
ATOM     32   O  NAG B   2       5.126  29.764  -8.5150  0.00  0.00     0.000 OA
ENDBRANCH 18 30
BRANCH 17 33
ATOM     33  O4  GCU B   3       2.098  29.626  -5.7040  0.00  0.00     0.000 O
BRANCH 33 37
ATOM     34  C1  GCU B   3      -1.772  28.298  -4.9340  0.00  0.00     0.000 C
ATOM     35  C2  GCU B   3      -1.323  29.600  -4.2690  0.00  0.00     0.000 C
ATOM     36  C3  GCU B   3      -0.096  30.134  -4.9780  0.00  0.00     0.000 C
ATOM     37  C4  GCU B   3       0.986  29.064  -5.0050  0.00  0.00     0.000 C
ATOM     38  C5  GCU B   3       0.447  27.806  -5.6890  0.00  0.00     0.000 C
ATOM     39  O5  GCU B   3      -0.701  27.351  -4.9660  0.00  0.00     0.000 O
ATOM     40   O  GCU B   3      -2.389  30.549  -4.3410  0.00  0.00     0.000 O
ATOM     42  HD  GCU B   3      -2.563  31.367  -4.5670  0.00  0.00     0.000 HD
ATOM     42   O  GCU B   3       0.398  31.322  -4.3330  0.00  0.00     0.000 O
ATOM     44  HD  GCU B   3       0.223  32.139  -4.5590  0.00  0.00     0.000 HD
BRANCH 38 44
ATOM     44   C  GCU B   3       1.459  26.688  -5.7300  0.00  0.00     0.000 C
ATOM     45   O  GCU B   3       1.945  26.287  -4.6620  0.00  0.00     0.000 OA
ATOM     46   O  GCU B   3       1.785  26.190  -6.8250  0.00  0.00     0.000 OA
ENDBRANCH 38 44
BRANCH 34 47
ATOM     47  O3  NAG B   4      -2.710  27.737  -4.1840  0.00  0.00     0.000 O
BRANCH 47 50
ATOM     48  C1  NAG B   4      -3.314  24.294  -2.9460  0.00  0.00     0.000 C
ATOM     49  C2  NAG B   4      -2.994  25.784  -2.8780  0.00  0.00     0.000 C
ATOM     50  C3  NAG B   4      -3.428  26.505  -4.1440  0.00  0.00     0.000 C
ATOM     51  C4  NAG B   4      -3.155  25.715  -5.4290  0.00  0.00     0.000 C
ATOM     52  C5  NAG B   4      -3.881  24.380  -5.4200  0.00  0.00     0.000 C
ATOM     53  O5  NAG B   4      -3.832  23.692  -4.1500  0.00  0.00     0.000 O
BRANCH 49 56
ATOM     54   N  NAG B   4      -4.120  26.113  -1.9870  0.00  0.00     0.000 N
ATOM     56  HD  NAG B   4      -4.947  25.885  -2.1110  0.00  0.00     0.000 HD
ATOM     56   C  NAG B   4      -5.326  27.087  -0.1190  0.00  0.00     0.000 C
ATOM     57   O  NAG B   4      -3.113  27.651  -0.6510  0.00  0.00     0.000 OA
ATOM     58   C  NAG B   4      -4.086  26.977  -0.9530  0.00  0.00     0.000 C
ENDBRANCH 49 56
ATOM     59   O  NAG B   4      -4.171  22.373  -6.8280  0.00  0.00     0.000 O
ATOM     61  HD  NAG B   4      -3.744  22.776  -6.1910  0.00  0.00     0.000 HD
ATOM     61   O  NAG B   4      -4.171  22.373  -6.8280  0.00  0.00     0.000 O
ATOM     63  HD  NAG B   4      -3.744  22.776  -6.1910  0.00  0.00     0.000 HD
ENDBRANCH 47 50
ENDBRANCH 34 47
ENDBRANCH 33 37
ENDBRANCH 17 33
ENDBRANCH 16 19
ENDBRANCH 1 16
TORSDOF 10
ENDMDL
MODEL 13
REMARK VINA RESULT:      -8.1      4.094      6.578
ROOT
ATOM      1  C1  GCU B   1       8.733  32.346  -6.6120  0.00  0.00     0.000 C
ATOM      2  C2  GCU B   1       9.977  32.602  -5.7750  0.00  0.00     0.000 C
ATOM      3  C3  GCU B   1      10.301  34.088  -5.7450  0.00  0.00     0.000 C
ATOM      4  C4  GCU B   1      10.345  34.645  -7.1590  0.00  0.00     0.000 C
ATOM      5  C5  GCU B   1       9.077  34.281  -7.9330  0.00  0.00     0.000 C
ATOM      6  O5  GCU B   1       8.925  32.855  -7.9410  0.00  0.00     0.000 O
ATOM      7   O  GCU B   1       9.724  32.114  -4.4620  0.00  0.00     0.000 O
ATOM      9  HD  GCU B   1      10.224  31.566  -4.0150  0.00  0.00     0.000 HD
ATOM      9   O  GCU B   1      11.554  34.317  -5.0950  0.00  0.00     0.000 O
ATOM     11  HD  GCU B   1      12.054  33.770  -4.6480  0.00  0.00     0.000 HD
ATOM     11   O  GCU B   1      10.479  36.065  -7.0920  0.00  0.00     0.000 O
ATOM     13  HD  GCU B   1      10.979  35.518  -6.6450  0.00  0.00     0.000 HD
ENDROOT
BRANCH 5 13
ATOM     13   C  GCU B   1       9.142  34.858  -9.3270  0.00  0.00     0.000 C
ATOM     14   O  GCU B   1       8.966  36.080  -9.5130  0.00  0.00     0.000 OA
ATOM     15   O  GCU B   1       9.403  34.075 -10.2610  0.00  0.00     0.000 OA
ENDBRANCH 5 13
BRANCH 1 16
ATOM     16  O3  NAG B   2       8.404  31.225  -7.2570  0.00  0.00     0.000 O
BRANCH 16 19
ATOM     17  C1  NAG B   2       5.458  28.892  -6.9230  0.00  0.00     0.000 C
ATOM     18  C2  NAG B   2       6.683  29.680  -6.4770  0.00  0.00     0.000 C
ATOM     19  C3  NAG B   2       7.149  30.612  -7.5940  0.00  0.00     0.000 C
ATOM     20  C4  NAG B   2       7.336  29.832  -8.8950  0.00  0.00     0.000 C
ATOM     21  C5  NAG B   2       6.052  29.091  -9.2400  0.00  0.00     0.000 C
ATOM     22  O5  NAG B   2       5.719  28.205  -8.1570  0.00  0.00     0.000 O
ATOM     23   O  NAG B   2       7.696  30.756  -9.9280  0.00  0.00     0.000 O
ATOM     25  HD  NAG B   2       8.301  30.190  -9.6750  0.00  0.00     0.000 HD
ATOM     25   C  NAG B   2       6.159  28.299 -10.5420  0.00  0.00     0.000 C
ATOM     26   O  NAG B   2       6.973  27.127 -10.3840  0.00  0.00     0.000 O
ATOM     28  HD  NAG B   2       7.578  26.561 -10.1310  0.00  0.00     0.000 HD
BRANCH 18 30
ATOM     28   N  NAG B   2       6.157  30.088  -5.1880  0.00  0.00     0.000 N
ATOM     30  HD  NAG B   2       6.997  29.955  -5.0250  0.00  0.00     0.000 HD
ATOM     30   C  NAG B   2       6.871  30.082  -4.0550  0.00  0.00     0.000 C
ATOM     31   C  NAG B   2       6.171  30.490  -2.7890  0.00  0.00     0.000 C
ATOM     32   O  NAG B   2       8.041  29.759  -4.0370  0.00  0.00     0.000 OA
ENDBRANCH 18 30
BRANCH 17 33
ATOM     33  O4  GCU B   3       5.091  28.010  -5.8430  0.00  0.00     0.000 O
BRANCH 33 37
ATOM     34  C1  GCU B   3       1.394  26.396  -4.8140  0.00  0.00     0.000 C
ATOM     35  C2  GCU B   3       2.273  25.599  -5.7790  0.00  0.00     0.000 C
ATOM     36  C3  GCU B   3       3.699  26.102  -5.6990  0.00  0.00     0.000 C
ATOM     37  C4  GCU B   3       3.727  27.602  -5.9550  0.00  0.00     0.000 C
ATOM     38  C5  GCU B   3       2.825  28.313  -4.9450  0.00  0.00     0.000 C
ATOM     39  O5  GCU B   3       1.496  27.798  -5.0790  0.00  0.00     0.000 O
ATOM     40   O  GCU B   3       2.216  24.216  -5.4220  0.00  0.00     0.000 O
ATOM     42  HD  GCU B   3       2.718  23.529  -5.2620  0.00  0.00     0.000 HD
ATOM     42   O  GCU B   3       4.541  25.422  -6.6470  0.00  0.00     0.000 O
ATOM     44  HD  GCU B   3       5.044  24.735  -6.4870  0.00  0.00     0.000 HD
BRANCH 38 44
ATOM     44   C  GCU B   3       2.782  29.806  -5.1530  0.00  0.00     0.000 C
ATOM     45   O  GCU B   3       3.205  30.544  -4.2500  0.00  0.00     0.000 OA
ATOM     46   O  GCU B   3       2.331  30.269  -6.2180  0.00  0.00     0.000 OA
ENDBRANCH 38 44
BRANCH 34 47
ATOM     47  O3  NAG B   4       0.125  26.091  -5.0420  0.00  0.00     0.000 O
BRANCH 47 50
ATOM     48  C1  NAG B   4      -3.415  27.132  -4.6670  0.00  0.00     0.000 C
ATOM     49  C2  NAG B   4      -2.171  26.577  -5.3520  0.00  0.00     0.000 C
ATOM     50  C3  NAG B   4      -1.116  26.160  -4.3410  0.00  0.00     0.000 C
ATOM     51  C4  NAG B   4      -0.979  27.126  -3.1580  0.00  0.00     0.000 C
ATOM     52  C5  NAG B   4      -2.287  27.251  -2.3940  0.00  0.00     0.000 C
ATOM     53  O5  NAG B   4      -3.456  27.338  -3.2390  0.00  0.00     0.000 O
BRANCH 49 56
ATOM     54   N  NAG B   4      -2.844  25.313  -5.7000  0.00  0.00     0.000 N
ATOM     56  HD  NAG B   4      -3.434  24.905  -5.2150  0.00  0.00     0.000 HD
ATOM     56   C  NAG B   4      -3.397  23.305  -6.9460  0.00  0.00     0.000 C
ATOM     57   O  NAG B   4      -1.561  24.670  -7.4620  0.00  0.00     0.000 OA
ATOM     58   C  NAG B   4      -2.513  24.493  -6.7170  0.00  0.00     0.000 C
ENDBRANCH 49 56
ATOM     59   O  NAG B   4      -3.241  28.443  -0.4540  0.00  0.00     0.000 O
ATOM     61  HD  NAG B   4      -3.098  28.412  -1.3080  0.00  0.00     0.000 HD
ATOM     61   O  NAG B   4      -3.241  28.443  -0.4540  0.00  0.00     0.000 O
ATOM     63  HD  NAG B   4      -3.098  28.412  -1.3080  0.00  0.00     0.000 HD
ENDBRANCH 47 50
ENDBRANCH 34 47
ENDBRANCH 33 37
ENDBRANCH 17 33
ENDBRANCH 16 19
ENDBRANCH 1 16
TORSDOF 10
ENDMDL
MODEL 14
REMARK VINA RESULT:      -8.0      2.541     11.665
ROOT
ATOM      1  C1  GCU B   1       0.262  26.951  -5.8010  0.00  0.00     0.000 C
ATOM      2  C2  GCU B   1      -0.395  25.599  -5.5670  0.00  0.00     0.000 C
ATOM      3  C3  GCU B   1      -1.904  25.707  -5.7260  0.00  0.00     0.000 C
ATOM      4  C4  GCU B   1      -2.442  26.846  -4.8730  0.00  0.00     0.000 C
ATOM      5  C5  GCU B   1      -1.675  28.142  -5.1400  0.00  0.00     0.000 C
ATOM      6  O5  GCU B   1      -0.280  27.922  -4.8920  0.00  0.00     0.000 O
ATOM      7   O  GCU B   1       0.148  24.684  -6.5130  0.00  0.00     0.000 O
ATOM      9  HD  GCU B   1       0.497  23.912  -6.3350  0.00  0.00     0.000 HD
ATOM      9   O  GCU B   1      -2.538  24.481  -5.3520  0.00  0.00     0.000 O
ATOM     11  HD  GCU B   1      -2.189  23.709  -5.1740  0.00  0.00     0.000 HD
ATOM     11   O  GCU B   1      -3.826  27.032  -5.1730  0.00  0.00     0.000 O
ATOM     13  HD  GCU B   1      -3.477  26.260  -4.9950  0.00  0.00     0.000 HD
ENDROOT
BRANCH 5 13
ATOM     13   C  GCU B   1      -2.239  29.257  -4.2920  0.00  0.00     0.000 C
ATOM     14   O  GCU B   1      -2.676  29.019  -3.1470  0.00  0.00     0.000 OA
ATOM     15   O  GCU B   1      -2.222  30.407  -4.7700  0.00  0.00     0.000 OA
ENDBRANCH 5 13
BRANCH 1 16
ATOM     16  O3  NAG B   2       1.430  27.382  -5.3180  0.00  0.00     0.000 O
BRANCH 16 19
ATOM     17  C1  NAG B   2       4.114  29.700  -6.6030  0.00  0.00     0.000 C
ATOM     18  C2  NAG B   2       3.210  28.474  -6.5800  0.00  0.00     0.000 C
ATOM     19  C3  NAG B   2       2.169  28.604  -5.4690  0.00  0.00     0.000 C
ATOM     20  C4  NAG B   2       2.849  28.915  -4.1370  0.00  0.00     0.000 C
ATOM     21  C5  NAG B   2       3.719  30.156  -4.2790  0.00  0.00     0.000 C
ATOM     22  O5  NAG B   2       4.696  29.924  -5.3080  0.00  0.00     0.000 O
ATOM     23   O  NAG B   2       1.834  29.104  -3.1450  0.00  0.00     0.000 O
ATOM     25  HD  NAG B   2       2.335  28.403  -3.0680  0.00  0.00     0.000 HD
ATOM     25   C  NAG B   2       4.420  30.539  -2.9770  0.00  0.00     0.000 C
ATOM     26   O  NAG B   2       5.493  29.636  -2.6670  0.00  0.00     0.000 O
ATOM     28  HD  NAG B   2       5.994  28.934  -2.5900  0.00  0.00     0.000 HD
BRANCH 18 30
ATOM     28   N  NAG B   2       3.697  27.720  -7.7200  0.00  0.00     0.000 N
ATOM     30  HD  NAG B   2       2.875  27.891  -7.9330  0.00  0.00     0.000 HD
ATOM     30   C  NAG B   2       2.922  27.320  -8.7360  0.00  0.00     0.000 C
ATOM     31   C  NAG B   2       3.565  26.507  -9.8240  0.00  0.00     0.000 C
ATOM     32   O  NAG B   2       1.740  27.596  -8.7870  0.00  0.00     0.000 OA
ENDBRANCH 18 30
BRANCH 17 33
ATOM     33  O4  GCU B   3       5.092  29.501  -7.6430  0.00  0.00     0.000 O
BRANCH 33 37
ATOM     34  C1  GCU B   3       6.910  32.202 -10.2380  0.00  0.00     0.000 C
ATOM     35  C2  GCU B   3       7.428  32.140  -8.8000  0.00  0.00     0.000 C
ATOM     36  C3  GCU B   3       6.967  30.853  -8.1500  0.00  0.00     0.000 C
ATOM     37  C4  GCU B   3       5.453  30.741  -8.2530  0.00  0.00     0.000 C
ATOM     38  C5  GCU B   3       5.030  30.810  -9.7220  0.00  0.00     0.000 C
ATOM     39  O5  GCU B   3       5.488  32.050 -10.2700  0.00  0.00     0.000 O
ATOM     40   O  GCU B   3       8.856  32.201  -8.8200  0.00  0.00     0.000 O
ATOM     42  HD  GCU B   3       9.562  31.807  -8.5100  0.00  0.00     0.000 HD
ATOM     42   O  GCU B   3       7.376  30.794  -6.7720  0.00  0.00     0.000 O
ATOM     44  HD  GCU B   3       8.082  30.400  -6.4630  0.00  0.00     0.000 HD
BRANCH 38 44
ATOM     44   C  GCU B   3       3.534  30.731  -9.9010  0.00  0.00     0.000 C
ATOM     45   O  GCU B   3       2.815  31.481  -9.2230  0.00  0.00     0.000 OA
ATOM     46   O  GCU B   3       3.052  29.926 -10.7200  0.00  0.00     0.000 OA
ENDBRANCH 38 44
BRANCH 34 47
ATOM     47  O3  NAG B   4       7.141  33.413 -10.7230  0.00  0.00     0.000 O
BRANCH 47 50
ATOM     48  C1  NAG B   4      10.030  33.872 -13.0030  0.00  0.00     0.000 C
ATOM     49  C2  NAG B   4       9.014  33.129 -12.1420  0.00  0.00     0.000 C
ATOM     50  C3  NAG B   4       7.792  33.986 -11.8560  0.00  0.00     0.000 C
ATOM     51  C4  NAG B   4       8.122  35.455 -11.5660  0.00  0.00     0.000 C
ATOM     52  C5  NAG B   4       8.841  36.100 -12.7390  0.00  0.00     0.000 C
ATOM     53  O5  NAG B   4       9.849  35.262 -13.3460  0.00  0.00     0.000 O
BRANCH 49 56
ATOM     54   N  NAG B   4       8.382  32.298 -13.1820  0.00  0.00     0.000 N
ATOM     56  HD  NAG B   4       7.835  32.581 -13.7910  0.00  0.00     0.000 HD
ATOM     56   C  NAG B   4       7.766  30.315 -14.4380  0.00  0.00     0.000 C
ATOM     57   O  NAG B   4       8.890  30.233 -12.3810  0.00  0.00     0.000 OA
ATOM     58   C  NAG B   4       8.391  30.951 -13.2350  0.00  0.00     0.000 C
ENDBRANCH 49 56
ATOM     59   O  NAG B   4       9.830  38.265 -13.3940  0.00  0.00     0.000 O
ATOM     61  HD  NAG B   4       9.932  37.479 -13.0460  0.00  0.00     0.000 HD
ATOM     61   O  NAG B   4       9.830  38.265 -13.3940  0.00  0.00     0.000 O
ATOM     63  HD  NAG B   4       9.932  37.479 -13.0460  0.00  0.00     0.000 HD
ENDBRANCH 47 50
ENDBRANCH 34 47
ENDBRANCH 33 37
ENDBRANCH 17 33
ENDBRANCH 16 19
ENDBRANCH 1 16
TORSDOF 10
ENDMDL
MODEL 15
REMARK VINA RESULT:      -8.0      5.712     13.477
ROOT
ATOM      1  C1  GCU B   1      -3.995  27.244  -1.4180  0.00  0.00     0.000 C
ATOM      2  C2  GCU B   1      -5.228  27.458  -0.5550  0.00  0.00     0.000 C
ATOM      3  C3  GCU B   1      -4.826  27.766   0.8790  0.00  0.00     0.000 C
ATOM      4  C4  GCU B   1      -3.852  26.716   1.3900  0.00  0.00     0.000 C
ATOM      5  C5  GCU B   1      -2.683  26.533   0.4210  0.00  0.00     0.000 C
ATOM      6  O5  GCU B   1      -3.194  26.184  -0.8720  0.00  0.00     0.000 O
ATOM      7   O  GCU B   1      -5.967  28.539  -1.1150  0.00  0.00     0.000 O
ATOM      9  HD  GCU B   1      -6.807  28.530  -1.3220  0.00  0.00     0.000 HD
ATOM      9   O  GCU B   1      -5.977  27.811   1.7270  0.00  0.00     0.000 O
ATOM     11  HD  GCU B   1      -6.818  27.803   1.5200  0.00  0.00     0.000 HD
ATOM     11   O  GCU B   1      -3.363  27.122   2.6680  0.00  0.00     0.000 O
ATOM     13  HD  GCU B   1      -4.203  27.113   2.4610  0.00  0.00     0.000 HD
ENDROOT
BRANCH 5 13
ATOM     13   C  GCU B   1      -1.727  25.496   0.9590  0.00  0.00     0.000 C
ATOM     14   O  GCU B   1      -1.681  24.356   0.4530  0.00  0.00     0.000 OA
ATOM     15   O  GCU B   1      -0.979  25.836   1.8960  0.00  0.00     0.000 OA
ENDBRANCH 5 13
BRANCH 1 16
ATOM     16  O3  NAG B   2      -3.902  26.525  -2.5390  0.00  0.00     0.000 O
BRANCH 16 19
ATOM     17  C1  NAG B   2      -1.121  26.315  -5.0790  0.00  0.00     0.000 C
ATOM     18  C2  NAG B   2      -2.162  26.981  -4.1880  0.00  0.00     0.000 C
ATOM     19  C3  NAG B   2      -2.797  25.951  -3.2550  0.00  0.00     0.000 C
ATOM     20  C4  NAG B   2      -3.318  24.758  -4.0560  0.00  0.00     0.000 C
ATOM     21  C5  NAG B   2      -2.195  24.175  -4.9010  0.00  0.00     0.000 C
ATOM     22  O5  NAG B   2      -1.694  25.198  -5.7790  0.00  0.00     0.000 O
ATOM     23   O  NAG B   2      -3.833  23.788  -3.1370  0.00  0.00     0.000 O
ATOM     25  HD  NAG B   2      -4.405  24.191  -3.6470  0.00  0.00     0.000 HD
ATOM     25   C  NAG B   2      -2.640  22.964  -5.7200  0.00  0.00     0.000 C
ATOM     26   O  NAG B   2      -3.477  23.348  -6.8220  0.00  0.00     0.000 O
ATOM     28  HD  NAG B   2      -4.049  23.751  -7.3320  0.00  0.00     0.000 HD
BRANCH 18 30
ATOM     28   N  NAG B   2      -2.045  28.376  -4.5680  0.00  0.00     0.000 N
ATOM     30  HD  NAG B   2      -1.820  28.380  -3.7310  0.00  0.00     0.000 HD
ATOM     30   C  NAG B   2      -1.784  29.365  -3.7040  0.00  0.00     0.000 C
ATOM     31   C  NAG B   2      -1.739  30.767  -4.2440  0.00  0.00     0.000 C
ATOM     32   O  NAG B   2      -1.590  29.151  -2.5240  0.00  0.00     0.000 OA
ENDBRANCH 18 30
BRANCH 17 33
ATOM     33  O4  GCU B   3      -0.587  27.327  -5.9560  0.00  0.00     0.000 O
BRANCH 33 37
ATOM     34  C1  GCU B   3       3.129  27.660  -7.8030  0.00  0.00     0.000 C
ATOM     35  C2  GCU B   3       2.164  26.602  -8.3370  0.00  0.00     0.000 C
ATOM     36  C3  GCU B   3       0.761  26.906  -7.8560  0.00  0.00     0.000 C
ATOM     37  C4  GCU B   3       0.755  27.019  -6.3380  0.00  0.00     0.000 C
ATOM     38  C5  GCU B   3       1.745  28.099  -5.8980  0.00  0.00     0.000 C
ATOM     39  O5  GCU B   3       3.047  27.747  -6.3780  0.00  0.00     0.000 O
ATOM     40   O  GCU B   3       2.209  26.613  -9.7660  0.00  0.00     0.000 O
ATOM     42  HD  GCU B   3       1.701  26.641 -10.4670  0.00  0.00     0.000 HD
ATOM     42   O  GCU B   3      -0.164  25.889  -8.2800  0.00  0.00     0.000 O
ATOM     44  HD  GCU B   3      -0.672  25.918  -8.9810  0.00  0.00     0.000 HD
BRANCH 38 44
ATOM     44   C  GCU B   3       1.813  28.251  -4.3990  0.00  0.00     0.000 C
ATOM     45   O  GCU B   3       1.775  29.393  -3.9160  0.00  0.00     0.000 OA
ATOM     46   O  GCU B   3       1.901  27.238  -3.6790  0.00  0.00     0.000 OA
ENDBRANCH 38 44
BRANCH 34 47
ATOM     47  O3  NAG B   4       4.371  27.272  -8.0560  0.00  0.00     0.000 O
BRANCH 47 50
ATOM     48  C1  NAG B   4       7.904  27.504  -6.9500  0.00  0.00     0.000 C
ATOM     49  C2  NAG B   4       6.496  27.982  -7.2910  0.00  0.00     0.000 C
ATOM     50  C3  NAG B   4       5.506  26.828  -7.3150  0.00  0.00     0.000 C
ATOM     51  C4  NAG B   4       6.063  25.550  -7.9520  0.00  0.00     0.000 C
ATOM     52  C5  NAG B   4       7.291  25.053  -7.2080  0.00  0.00     0.000 C
ATOM     53  O5  NAG B   4       8.209  26.100  -6.8200  0.00  0.00     0.000 O
BRANCH 49 56
ATOM     54   N  NAG B   4       6.218  28.533  -5.9540  0.00  0.00     0.000 N
ATOM     56  HD  NAG B   4       6.310  28.111  -5.2030  0.00  0.00     0.000 HD
ATOM     56   C  NAG B   4       5.501  30.111  -4.2540  0.00  0.00     0.000 C
ATOM     57   O  NAG B   4       5.120  30.433  -6.5460  0.00  0.00     0.000 OA
ATOM     58   C  NAG B   4       5.592  29.698  -5.6910  0.00  0.00     0.000 C
ENDBRANCH 49 56
ATOM     59   O  NAG B   4       8.953  23.230  -7.3030  0.00  0.00     0.000 O
ATOM     61  HD  NAG B   4       8.725  24.037  -7.5200  0.00  0.00     0.000 HD
ATOM     61   O  NAG B   4       8.953  23.230  -7.3030  0.00  0.00     0.000 O
ATOM     63  HD  NAG B   4       8.725  24.037  -7.5200  0.00  0.00     0.000 HD
ENDBRANCH 47 50
ENDBRANCH 34 47
ENDBRANCH 33 37
ENDBRANCH 17 33
ENDBRANCH 16 19
ENDBRANCH 1 16
TORSDOF 10
ENDMDL
MODEL 16
REMARK VINA RESULT:      -8.0      5.052     11.442
ROOT
ATOM      1  C1  GCU B   1       1.020  28.657  -5.4030  0.00  0.00     0.000 C
ATOM      2  C2  GCU B   1      -0.157  29.319  -4.7030  0.00  0.00     0.000 C
ATOM      3  C3  GCU B   1      -1.190  28.278  -4.3010  0.00  0.00     0.000 C
ATOM      4  C4  GCU B   1      -1.552  27.408  -5.4950  0.00  0.00     0.000 C
ATOM      5  C5  GCU B   1      -0.298  26.841  -6.1630  0.00  0.00     0.000 C
ATOM      6  O5  GCU B   1       0.558  27.924  -6.5500  0.00  0.00     0.000 O
ATOM      7   O  GCU B   1       0.348  29.998  -3.5580  0.00  0.00     0.000 O
ATOM      9  HD  GCU B   1       0.209  30.828  -3.3540  0.00  0.00     0.000 HD
ATOM      9   O  GCU B   1      -2.367  28.909  -3.7880  0.00  0.00     0.000 O
ATOM     11  HD  GCU B   1      -2.506  29.739  -3.5840  0.00  0.00     0.000 HD
ATOM     11   O  GCU B   1      -2.388  26.339  -5.0510  0.00  0.00     0.000 O
ATOM     13  HD  GCU B   1      -2.527  27.169  -4.8470  0.00  0.00     0.000 HD
ENDROOT
BRANCH 5 13
ATOM     13   C  GCU B   1      -0.688  25.972  -7.3340  0.00  0.00     0.000 C
ATOM     14   O  GCU B   1      -0.714  26.444  -8.4890  0.00  0.00     0.000 OA
ATOM     15   O  GCU B   1      -0.949  24.776  -7.1000  0.00  0.00     0.000 OA
ENDBRANCH 5 13
BRANCH 1 16
ATOM     16  O3  NAG B   2       1.856  29.207  -6.2870  0.00  0.00     0.000 O
BRANCH 16 19
ATOM     17  C1  NAG B   2       5.605  29.544  -6.0480  0.00  0.00     0.000 C
ATOM     18  C2  NAG B   2       4.156  29.627  -5.5870  0.00  0.00     0.000 C
ATOM     19  C3  NAG B   2       3.234  28.977  -6.6180  0.00  0.00     0.000 C
ATOM     20  C4  NAG B   2       3.493  29.560  -8.0070  0.00  0.00     0.000 C
ATOM     21  C5  NAG B   2       4.966  29.418  -8.3590  0.00  0.00     0.000 C
ATOM     22  O5  NAG B   2       5.751  30.100  -7.3650  0.00  0.00     0.000 O
ATOM     23   O  NAG B   2       2.665  28.869  -8.9480  0.00  0.00     0.000 O
ATOM     25  HD  NAG B   2       2.479  29.701  -8.7950  0.00  0.00     0.000 HD
ATOM     25   C  NAG B   2       5.298  29.967  -9.7450  0.00  0.00     0.000 C
ATOM     26   O  NAG B   2       5.275  31.402  -9.7660  0.00  0.00     0.000 O
ATOM     28  HD  NAG B   2       5.089  32.235  -9.6140  0.00  0.00     0.000 HD
BRANCH 18 30
ATOM     28   N  NAG B   2       4.370  30.188  -4.2670  0.00  0.00     0.000 N
ATOM     30  HD  NAG B   2       3.909  29.472  -4.1050  0.00  0.00     0.000 HD
ATOM     30   C  NAG B   2       3.813  29.702  -3.1510  0.00  0.00     0.000 C
ATOM     31   C  NAG B   2       4.096  30.421  -1.8610  0.00  0.00     0.000 C
ATOM     32   O  NAG B   2       3.101  28.718  -3.1660  0.00  0.00     0.000 OA
ENDBRANCH 18 30
BRANCH 17 33
ATOM     33  O4  GCU B   3       6.417  30.203  -5.0560  0.00  0.00     0.000 O
BRANCH 33 37
ATOM     34  C1  GCU B   3      10.223  29.320  -3.6200  0.00  0.00     0.000 C
ATOM     35  C2  GCU B   3      10.122  30.083  -4.9420  0.00  0.00     0.000 C
ATOM     36  C3  GCU B   3       8.736  30.674  -5.0810  0.00  0.00     0.000 C
ATOM     37  C4  GCU B   3       7.694  29.574  -4.9360  0.00  0.00     0.000 C
ATOM     38  C5  GCU B   3       7.870  28.872  -3.5880  0.00  0.00     0.000 C
ATOM     39  O5  GCU B   3       9.194  28.331  -3.5270  0.00  0.00     0.000 O
ATOM     40   O  GCU B   3      11.106  31.120  -4.9540  0.00  0.00     0.000 O
ATOM     42  HD  GCU B   3      11.206  31.967  -5.1050  0.00  0.00     0.000 HD
ATOM     42   O  GCU B   3       8.581  31.339  -6.3480  0.00  0.00     0.000 O
ATOM     44  HD  GCU B   3       8.681  32.185  -6.4990  0.00  0.00     0.000 HD
BRANCH 38 44
ATOM     44   C  GCU B   3       6.885  27.749  -3.3840  0.00  0.00     0.000 C
ATOM     45   O  GCU B   3       6.691  26.952  -4.3150  0.00  0.00     0.000 OA
ATOM     46   O  GCU B   3       6.291  27.638  -2.2940  0.00  0.00     0.000 OA
ENDBRANCH 38 44
BRANCH 34 47
ATOM     47  O3  NAG B   4      11.361  28.640  -3.6050  0.00  0.00     0.000 O
BRANCH 47 50
ATOM     48  C1  NAG B   4      14.667  27.738  -2.1850  0.00  0.00     0.000 C
ATOM     49  C2  NAG B   4      13.594  28.618  -2.8190  0.00  0.00     0.000 C
ATOM     50  C3  NAG B   4      12.206  28.025  -2.6340  0.00  0.00     0.000 C
ATOM     51  C4  NAG B   4      12.157  26.503  -2.8080  0.00  0.00     0.000 C
ATOM     52  C5  NAG B   4      13.064  25.804  -1.8080  0.00  0.00     0.000 C
ATOM     53  O5  NAG B   4      14.344  26.448  -1.6250  0.00  0.00     0.000 O
BRANCH 49 56
ATOM     54   N  NAG B   4      13.651  29.620  -1.7400  0.00  0.00     0.000 N
ATOM     56  HD  NAG B   4      13.707  29.449  -0.8930  0.00  0.00     0.000 HD
ATOM     56   C  NAG B   4      13.635  31.793  -0.6600  0.00  0.00     0.000 C
ATOM     57   O  NAG B   4      13.090  31.481  -2.9190  0.00  0.00     0.000 OA
ATOM     58   C  NAG B   4      13.428  30.943  -1.8750  0.00  0.00     0.000 C
ENDBRANCH 49 56
ATOM     59   O  NAG B   4      13.787  23.531  -1.1750  0.00  0.00     0.000 O
ATOM     61  HD  NAG B   4      13.923  24.250  -1.6380  0.00  0.00     0.000 HD
ATOM     61   O  NAG B   4      13.787  23.531  -1.1750  0.00  0.00     0.000 O
ATOM     63  HD  NAG B   4      13.923  24.250  -1.6380  0.00  0.00     0.000 HD
ENDBRANCH 47 50
ENDBRANCH 34 47
ENDBRANCH 33 37
ENDBRANCH 17 33
ENDBRANCH 16 19
ENDBRANCH 1 16
TORSDOF 10
ENDMDL
MODEL 17
REMARK VINA RESULT:      -8.0      4.237      7.675
ROOT
ATOM      1  C1  GCU B   1      10.041  31.161  -4.1390  0.00  0.00     0.000 C
ATOM      2  C2  GCU B   1      11.113  30.463  -3.3140  0.00  0.00     0.000 C
ATOM      3  C3  GCU B   1      11.840  31.465  -2.4310  0.00  0.00     0.000 C
ATOM      4  C4  GCU B   1      12.326  32.643  -3.2610  0.00  0.00     0.000 C
ATOM      5  C5  GCU B   1      11.188  33.233  -4.0970  0.00  0.00     0.000 C
ATOM      6  O5  GCU B   1      10.634  32.204  -4.9280  0.00  0.00     0.000 O
ATOM      7   O  GCU B   1      10.471  29.467  -2.5250  0.00  0.00     0.000 O
ATOM      9  HD  GCU B   1      10.691  28.630  -2.4810  0.00  0.00     0.000 HD
ATOM      9   O  GCU B   1      12.949  30.845  -1.7740  0.00  0.00     0.000 O
ATOM     11  HD  GCU B   1      13.169  30.009  -1.7300  0.00  0.00     0.000 HD
ATOM     11   O  GCU B   1      12.849  33.641  -2.3840  0.00  0.00     0.000 O
ATOM     13  HD  GCU B   1      13.069  32.805  -2.3390  0.00  0.00     0.000 HD
ENDROOT
BRANCH 5 13
ATOM     13   C  GCU B   1      11.696  34.407  -4.8990  0.00  0.00     0.000 C
ATOM     14   O  GCU B   1      10.938  35.361  -5.1690  0.00  0.00     0.000 OA
ATOM     15   O  GCU B   1      12.892  34.390  -5.2460  0.00  0.00     0.000 OA
ENDBRANCH 5 13
BRANCH 1 16
ATOM     16  O3  NAG B   2       9.538  30.774  -5.3120  0.00  0.00     0.000 O
BRANCH 16 19
ATOM     17  C1  NAG B   2       6.159  29.436  -6.3250  0.00  0.00     0.000 C
ATOM     18  C2  NAG B   2       7.480  29.488  -5.5680  0.00  0.00     0.000 C
ATOM     19  C3  NAG B   2       8.216  30.791  -5.8730  0.00  0.00     0.000 C
ATOM     20  C4  NAG B   2       8.342  30.989  -7.3830  0.00  0.00     0.000 C
ATOM     21  C5  NAG B   2       6.966  30.923  -8.0290  0.00  0.00     0.000 C
ATOM     22  O5  NAG B   2       6.372  29.647  -7.7300  0.00  0.00     0.000 O
ATOM     23   O  NAG B   2       8.966  32.256  -7.6210  0.00  0.00     0.000 O
ATOM     25  HD  NAG B   2       9.421  31.547  -7.8250  0.00  0.00     0.000 HD
ATOM     25   C  NAG B   2       7.013  31.130  -9.5420  0.00  0.00     0.000 C
ATOM     26   O  NAG B   2       7.553  29.983 -10.2170  0.00  0.00     0.000 O
ATOM     28  HD  NAG B   2       8.007  29.275 -10.4210  0.00  0.00     0.000 HD
BRANCH 18 30
ATOM     28   N  NAG B   2       6.974  29.129  -4.2560  0.00  0.00     0.000 N
ATOM     30  HD  NAG B   2       7.724  28.697  -4.3040  0.00  0.00     0.000 HD
ATOM     30   C  NAG B   2       7.549  28.221  -3.4580  0.00  0.00     0.000 C
ATOM     31   C  NAG B   2       6.880  27.925  -2.1450  0.00  0.00     0.000 C
ATOM     32   O  NAG B   2       8.573  27.648  -3.7720  0.00  0.00     0.000 OA
ENDBRANCH 18 30
BRANCH 17 33
ATOM     33  O4  GCU B   3       5.533  28.173  -6.0250  0.00  0.00     0.000 O
BRANCH 33 37
ATOM     34  C1  GCU B   3       1.606  26.892  -6.5490  0.00  0.00     0.000 C
ATOM     35  C2  GCU B   3       2.558  26.770  -7.7400  0.00  0.00     0.000 C
ATOM     36  C3  GCU B   3       3.990  26.869  -7.2570  0.00  0.00     0.000 C
ATOM     37  C4  GCU B   3       4.174  28.156  -6.4660  0.00  0.00     0.000 C
ATOM     38  C5  GCU B   3       3.186  28.188  -5.2980  0.00  0.00     0.000 C
ATOM     39  O5  GCU B   3       1.857  28.099  -5.8240  0.00  0.00     0.000 O
ATOM     40   O  GCU B   3       2.339  25.511  -8.3810  0.00  0.00     0.000 O
ATOM     42  HD  GCU B   3       2.755  24.812  -8.6770  0.00  0.00     0.000 HD
ATOM     42   O  GCU B   3       4.912  26.830  -8.3610  0.00  0.00     0.000 O
ATOM     44  HD  GCU B   3       5.328  26.131  -8.6570  0.00  0.00     0.000 HD
BRANCH 38 44
ATOM     44   C  GCU B   3       3.293  29.451  -4.4800  0.00  0.00     0.000 C
ATOM     45   O  GCU B   3       2.657  30.451  -4.8460  0.00  0.00     0.000 OA
ATOM     46   O  GCU B   3       4.007  29.467  -3.4600  0.00  0.00     0.000 OA
ENDBRANCH 38 44
BRANCH 34 47
ATOM     47  O3  NAG B   4       0.367  27.011  -7.0040  0.00  0.00     0.000 O
BRANCH 47 50
ATOM     48  C1  NAG B   4      -2.144  26.107  -4.4280  0.00  0.00     0.000 C
ATOM     49  C2  NAG B   4      -0.980  26.861  -5.0630  0.00  0.00     0.000 C
ATOM     50  C3  NAG B   4      -0.949  26.672  -6.5710  0.00  0.00     0.000 C
ATOM     51  C4  NAG B   4      -1.281  25.244  -7.0210  0.00  0.00     0.000 C
ATOM     52  C5  NAG B   4      -2.668  24.829  -6.5590  0.00  0.00     0.000 C
ATOM     53  O5  NAG B   4      -2.983  25.229  -5.2070  0.00  0.00     0.000 O
BRANCH 49 56
ATOM     54   N  NAG B   4      -1.532  28.226  -5.1140  0.00  0.00     0.000 N
ATOM     56  HD  NAG B   4      -2.088  28.524  -5.7060  0.00  0.00     0.000 HD
ATOM     56   C  NAG B   4      -1.888  30.553  -4.5220  0.00  0.00     0.000 C
ATOM     57   O  NAG B   4      -0.177  29.242  -3.5980  0.00  0.00     0.000 OA
ATOM     58   C  NAG B   4      -1.118  29.276  -4.3780  0.00  0.00     0.000 C
ENDBRANCH 49 56
ATOM     59   O  NAG B   4      -4.193  22.890  -6.6520  0.00  0.00     0.000 O
ATOM     61  HD  NAG B   4      -3.577  23.329  -6.2300  0.00  0.00     0.000 HD
ATOM     61   O  NAG B   4      -4.193  22.890  -6.6520  0.00  0.00     0.000 O
ATOM     63  HD  NAG B   4      -3.577  23.329  -6.2300  0.00  0.00     0.000 HD
ENDBRANCH 47 50
ENDBRANCH 34 47
ENDBRANCH 33 37
ENDBRANCH 17 33
ENDBRANCH 16 19
ENDBRANCH 1 16
TORSDOF 10
ENDMDL
MODEL 18
REMARK VINA RESULT:      -7.9      7.250     11.902
ROOT
ATOM      1  C1  GCU B   1       4.828  29.506  -6.6560  0.00  0.00     0.000 C
ATOM      2  C2  GCU B   1       3.461  29.660  -6.0080  0.00  0.00     0.000 C
ATOM      3  C3  GCU B   1       2.482  28.650  -6.5870  0.00  0.00     0.000 C
ATOM      4  C4  GCU B   1       2.491  28.720  -8.1060  0.00  0.00     0.000 C
ATOM      5  C5  GCU B   1       3.916  28.618  -8.6530  0.00  0.00     0.000 C
ATOM      6  O5  GCU B   1       4.716  29.661  -8.0800  0.00  0.00     0.000 O
ATOM      7   O  GCU B   1       3.621  29.462  -4.6070  0.00  0.00     0.000 O
ATOM      9  HD  GCU B   1       3.351  29.997  -3.9820  0.00  0.00     0.000 HD
ATOM      9   O  GCU B   1       1.160  28.894  -6.1000  0.00  0.00     0.000 O
ATOM     11  HD  GCU B   1       0.890  29.429  -5.4740  0.00  0.00     0.000 HD
ATOM     11   O  GCU B   1       1.697  27.651  -8.6230  0.00  0.00     0.000 O
ATOM     13  HD  GCU B   1       1.428  28.186  -7.9970  0.00  0.00     0.000 HD
ENDROOT
BRANCH 5 13
ATOM     13   C  GCU B   1       3.894  28.676 -10.1610  0.00  0.00     0.000 C
ATOM     14   O  GCU B   1       4.762  28.077 -10.8290  0.00  0.00     0.000 OA
ATOM     15   O  GCU B   1       2.968  29.315 -10.6970  0.00  0.00     0.000 OA
ENDBRANCH 5 13
BRANCH 1 16
ATOM     16  O3  NAG B   2       5.776  30.438  -6.7870  0.00  0.00     0.000 O
BRANCH 16 19
ATOM     17  C1  NAG B   2       9.170  30.819  -5.1860  0.00  0.00     0.000 C
ATOM     18  C2  NAG B   2       7.656  30.659  -5.2480  0.00  0.00     0.000 C
ATOM     19  C3  NAG B   2       7.208  30.410  -6.6870  0.00  0.00     0.000 C
ATOM     20  C4  NAG B   2       7.770  31.487  -7.6130  0.00  0.00     0.000 C
ATOM     21  C5  NAG B   2       9.284  31.553  -7.4700  0.00  0.00     0.000 C
ATOM     22  O5  NAG B   2       9.609  31.839  -6.0980  0.00  0.00     0.000 O
ATOM     23   O  NAG B   2       7.390  31.170  -8.9570  0.00  0.00     0.000 O
ATOM     25  HD  NAG B   2       7.031  31.873  -8.6010  0.00  0.00     0.000 HD
ATOM     25   C  NAG B   2       9.919  32.601  -8.3810  0.00  0.00     0.000 C
ATOM     26   O  NAG B   2       9.664  33.935  -7.9140  0.00  0.00     0.000 O
ATOM     28  HD  NAG B   2       9.305  34.638  -7.5570  0.00  0.00     0.000 HD
BRANCH 18 30
ATOM     28   N  NAG B   2       7.481  29.671  -4.2000  0.00  0.00     0.000 N
ATOM     30  HD  NAG B   2       6.840  30.234  -4.0500  0.00  0.00     0.000 HD
ATOM     30   C  NAG B   2       6.591  29.788  -3.2060  0.00  0.00     0.000 C
ATOM     31   C  NAG B   2       6.559  28.701  -2.1680  0.00  0.00     0.000 C
ATOM     32   O  NAG B   2       5.833  30.734  -3.1330  0.00  0.00     0.000 OA
ENDBRANCH 18 30
BRANCH 17 33
ATOM     33  O4  GCU B   3       9.524  31.086  -3.8150  0.00  0.00     0.000 O
BRANCH 33 37
ATOM     34  C1  GCU B   3      13.091  30.408  -1.7780  0.00  0.00     0.000 C
ATOM     35  C2  GCU B   3      12.897  31.776  -2.4320  0.00  0.00     0.000 C
ATOM     36  C3  GCU B   3      11.429  31.988  -2.7380  0.00  0.00     0.000 C
ATOM     37  C4  GCU B   3      10.911  30.834  -3.5840  0.00  0.00     0.000 C
ATOM     38  C5  GCU B   3      11.146  29.512  -2.8510  0.00  0.00     0.000 C
ATOM     39  O5  GCU B   3      12.548  29.372  -2.6010  0.00  0.00     0.000 O
ATOM     40   O  GCU B   3      13.367  32.788  -1.5390  0.00  0.00     0.000 O
ATOM     42  HD  GCU B   3      13.138  33.540  -1.1750  0.00  0.00     0.000 HD
ATOM     42   O  GCU B   3      11.217  33.237  -3.4210  0.00  0.00     0.000 O
ATOM     44  HD  GCU B   3      10.989  33.988  -3.0570  0.00  0.00     0.000 HD
BRANCH 38 44
ATOM     44   C  GCU B   3      10.679  28.316  -3.6420  0.00  0.00     0.000 C
ATOM     45   O  GCU B   3      11.311  27.995  -4.6600  0.00  0.00     0.000 OA
ATOM     46   O  GCU B   3       9.680  27.676  -3.2640  0.00  0.00     0.000 OA
ENDBRANCH 38 44
BRANCH 34 47
ATOM     47  O3  NAG B   4      14.389  30.150  -1.7060  0.00  0.00     0.000 O
BRANCH 47 50
ATOM     48  C1  NAG B   4      17.778  29.224  -0.5150  0.00  0.00     0.000 C
ATOM     49  C2  NAG B   4      16.684  30.094  -1.1250  0.00  0.00     0.000 C
ATOM     50  C3  NAG B   4      15.298  29.583  -0.7640  0.00  0.00     0.000 C
ATOM     51  C4  NAG B   4      15.177  28.055  -0.7950  0.00  0.00     0.000 C
ATOM     52  C5  NAG B   4      16.147  27.404   0.1770  0.00  0.00     0.000 C
ATOM     53  O5  NAG B   4      17.462  28.003   0.1860  0.00  0.00     0.000 O
BRANCH 49 56
ATOM     54   N  NAG B   4      16.875  31.181  -0.1500  0.00  0.00     0.000 N
ATOM     56  HD  NAG B   4      16.993  31.082   0.7020  0.00  0.00     0.000 HD
ATOM     56   C  NAG B   4      17.045  33.438   0.7280  0.00  0.00     0.000 C
ATOM     57   O  NAG B   4      16.302  32.960  -1.4450  0.00  0.00     0.000 OA
ATOM     58   C  NAG B   4      16.701  32.497  -0.3860  0.00  0.00     0.000 C
ENDBRANCH 49 56
ATOM     59   O  NAG B   4      16.842  25.163   0.9440  0.00  0.00     0.000 O
ATOM     61  HD  NAG B   4      16.960  25.833   0.4070  0.00  0.00     0.000 HD
ATOM     61   O  NAG B   4      16.842  25.163   0.9440  0.00  0.00     0.000 O
ATOM     63  HD  NAG B   4      16.960  25.833   0.4070  0.00  0.00     0.000 HD
ENDBRANCH 47 50
ENDBRANCH 34 47
ENDBRANCH 33 37
ENDBRANCH 17 33
ENDBRANCH 16 19
ENDBRANCH 1 16
TORSDOF 10
ENDMDL
MODEL 19
REMARK VINA RESULT:      -7.8      5.303      8.477
ROOT
ATOM      1  C1  GCU B   1      11.975  39.085 -10.8910  0.00  0.00     0.000 C
ATOM      2  C2  GCU B   1      13.186  39.963 -10.6120  0.00  0.00     0.000 C
ATOM      3  C3  GCU B   1      12.749  41.312 -10.0620  0.00  0.00     0.000 C
ATOM      4  C4  GCU B   1      11.694  41.931 -10.9660  0.00  0.00     0.000 C
ATOM      5  C5  GCU B   1      10.553  40.948 -11.2330  0.00  0.00     0.000 C
ATOM      6  O5  GCU B   1      11.091  39.749 -11.8080  0.00  0.00     0.000 O
ATOM      7   O  GCU B   1      14.009  39.278  -9.6730  0.00  0.00     0.000 O
ATOM      9  HD  GCU B   1      14.855  39.115  -9.7600  0.00  0.00     0.000 HD
ATOM      9   O  GCU B   1      13.867  42.196  -9.9480  0.00  0.00     0.000 O
ATOM     11  HD  GCU B   1      14.713  42.032 -10.0350  0.00  0.00     0.000 HD
ATOM     11   O  GCU B   1      11.181  43.107 -10.3390  0.00  0.00     0.000 O
ATOM     13  HD  GCU B   1      12.027  42.943 -10.4250  0.00  0.00     0.000 HD
ENDROOT
BRANCH 5 13
ATOM     13   C  GCU B   1       9.515  41.593 -12.1200  0.00  0.00     0.000 C
ATOM     14   O  GCU B   1       9.843  42.489 -12.9250  0.00  0.00     0.000 OA
ATOM     15   O  GCU B   1       8.345  41.176 -12.0320  0.00  0.00     0.000 OA
ENDBRANCH 5 13
BRANCH 1 16
ATOM     16  O3  NAG B   2      11.882  38.085 -11.7700  0.00  0.00     0.000 O
BRANCH 16 19
ATOM     17  C1  NAG B   2      10.098  34.776 -11.4620  0.00  0.00     0.000 C
ATOM     18  C2  NAG B   2      11.032  35.910 -11.0610  0.00  0.00     0.000 C
ATOM     19  C3  NAG B   2      10.882  37.085 -12.0250  0.00  0.00     0.000 C
ATOM     20  C4  NAG B   2      11.040  36.613 -13.4700  0.00  0.00     0.000 C
ATOM     21  C5  NAG B   2      10.057  35.487 -13.7550  0.00  0.00     0.000 C
ATOM     22  O5  NAG B   2      10.305  34.409 -12.8350  0.00  0.00     0.000 O
ATOM     23   O  NAG B   2      10.815  37.730 -14.3370  0.00  0.00     0.000 O
ATOM     25  HD  NAG B   2      11.620  37.414 -14.3010  0.00  0.00     0.000 HD
ATOM     25   C  NAG B   2      10.147  34.974 -15.1900  0.00  0.00     0.000 C
ATOM     26   O  NAG B   2      11.335  34.195 -15.4020  0.00  0.00     0.000 O
ATOM     28  HD  NAG B   2      12.140  33.879 -15.3660  0.00  0.00     0.000 HD
BRANCH 18 30
ATOM     28   N  NAG B   2      11.641  35.402  -9.8460  0.00  0.00     0.000 N
ATOM     30  HD  NAG B   2      11.210  36.101  -9.5740  0.00  0.00     0.000 HD
ATOM     30   C  NAG B   2      11.594  36.034  -8.6680  0.00  0.00     0.000 C
ATOM     31   C  NAG B   2      12.312  35.402  -7.5090  0.00  0.00     0.000 C
ATOM     32   O  NAG B   2      10.998  37.083  -8.5270  0.00  0.00     0.000 OA
ENDBRANCH 18 30
BRANCH 17 33
ATOM     33  O4  GCU B   3      10.312  33.688 -10.5400  0.00  0.00     0.000 O
BRANCH 33 37
ATOM     34  C1  GCU B   3       7.625  31.038  -8.7820  0.00  0.00     0.000 C
ATOM     35  C2  GCU B   3       8.120  30.716 -10.1930  0.00  0.00     0.000 C
ATOM     36  C3  GCU B   3       9.370  31.517 -10.4870  0.00  0.00     0.000 C
ATOM     37  C4  GCU B   3       9.091  32.998 -10.2680  0.00  0.00     0.000 C
ATOM     38  C5  GCU B   3       8.606  33.223  -8.8340  0.00  0.00     0.000 C
ATOM     39  O5  GCU B   3       7.422  32.445  -8.6270  0.00  0.00     0.000 O
ATOM     40   O  GCU B   3       8.398  29.316 -10.2770  0.00  0.00     0.000 O
ATOM     42  HD  GCU B   3       9.007  28.754 -10.5270  0.00  0.00     0.000 HD
ATOM     42   O  GCU B   3       9.823  31.294 -11.8340  0.00  0.00     0.000 O
ATOM     44  HD  GCU B   3      10.432  30.731 -12.0840  0.00  0.00     0.000 HD
BRANCH 38 44
ATOM     44   C  GCU B   3       8.285  34.669  -8.5490  0.00  0.00     0.000 C
ATOM     45   O  GCU B   3       8.679  35.165  -7.4830  0.00  0.00     0.000 OA
ATOM     46   O  GCU B   3       7.638  35.334  -9.3810  0.00  0.00     0.000 OA
ENDBRANCH 38 44
BRANCH 34 47
ATOM     47  O3  NAG B   4       6.428  30.494  -8.6150  0.00  0.00     0.000 O
BRANCH 47 50
ATOM     48  C1  NAG B   4       2.932  30.447  -9.8530  0.00  0.00     0.000 C
ATOM     49  C2  NAG B   4       4.267  31.038  -9.4150  0.00  0.00     0.000 C
ATOM     50  C3  NAG B   4       5.374  29.996  -9.4370  0.00  0.00     0.000 C
ATOM     51  C4  NAG B   4       4.936  28.619  -8.9260  0.00  0.00     0.000 C
ATOM     52  C5  NAG B   4       3.795  28.060  -9.7600  0.00  0.00     0.000 C
ATOM     53  O5  NAG B   4       2.785  29.033 -10.1050  0.00  0.00     0.000 O
BRANCH 49 56
ATOM     54   N  NAG B   4       4.895  31.828 -10.4890  0.00  0.00     0.000 N
ATOM     56  HD  NAG B   4       5.717  31.760 -10.7530  0.00  0.00     0.000 HD
ATOM     56   C  NAG B   4       5.135  33.501 -12.2310  0.00  0.00     0.000 C
ATOM     57   O  NAG B   4       3.292  33.412 -10.7840  0.00  0.00     0.000 OA
ATOM     58   C  NAG B   4       4.362  32.909 -11.0930  0.00  0.00     0.000 C
ENDBRANCH 49 56
ATOM     59   O  NAG B   4       2.336  26.072  -9.8800  0.00  0.00     0.000 O
ATOM     61  HD  NAG B   4       2.468  26.878  -9.5920  0.00  0.00     0.000 HD
ATOM     61   O  NAG B   4       2.336  26.072  -9.8800  0.00  0.00     0.000 O
ATOM     63  HD  NAG B   4       2.468  26.878  -9.5920  0.00  0.00     0.000 HD
ENDBRANCH 47 50
ENDBRANCH 34 47
ENDBRANCH 33 37
ENDBRANCH 17 33
ENDBRANCH 16 19
ENDBRANCH 1 16
TORSDOF 10
ENDMDL
MODEL 20
REMARK VINA RESULT:      -7.8      5.350      7.561
ROOT
ATOM      1  C1  GCU B   1       6.627  31.205  -9.7950  0.00  0.00     0.000 C
ATOM      2  C2  GCU B   1       7.470  31.730 -10.9470  0.00  0.00     0.000 C
ATOM      3  C3  GCU B   1       6.951  33.082 -11.4120  0.00  0.00     0.000 C
ATOM      4  C4  GCU B   1       5.457  33.006 -11.6840  0.00  0.00     0.000 C
ATOM      5  C5  GCU B   1       4.710  32.409 -10.4900  0.00  0.00     0.000 C
ATOM      6  O5  GCU B   1       5.251  31.114 -10.1970  0.00  0.00     0.000 O
ATOM      7   O  GCU B   1       8.813  31.836 -10.4870  0.00  0.00     0.000 O
ATOM      9  HD  GCU B   1       9.513  31.500 -10.8710  0.00  0.00     0.000 HD
ATOM      9   O  GCU B   1       7.637  33.505 -12.5930  0.00  0.00     0.000 O
ATOM     11  HD  GCU B   1       8.336  33.169 -12.9780  0.00  0.00     0.000 HD
ATOM     11   O  GCU B   1       4.969  34.321 -11.9510  0.00  0.00     0.000 O
ATOM     13  HD  GCU B   1       5.668  33.985 -12.3360  0.00  0.00     0.000 HD
ENDROOT
BRANCH 5 13
ATOM     13   C  GCU B   1       3.229  32.359 -10.7830  0.00  0.00     0.000 C
ATOM     14   O  GCU B   1       2.564  33.413 -10.8550  0.00  0.00     0.000 OA
ATOM     15   O  GCU B   1       2.720  31.238 -10.9730  0.00  0.00     0.000 OA
ENDBRANCH 5 13
BRANCH 1 16
ATOM     16  O3  NAG B   2       6.443  29.932  -9.4350  0.00  0.00     0.000 O
BRANCH 16 19
ATOM     17  C1  NAG B   2       6.948  28.119  -6.1670  0.00  0.00     0.000 C
ATOM     18  C2  NAG B   2       7.327  28.960  -7.3790  0.00  0.00     0.000 C
ATOM     19  C3  NAG B   2       6.082  29.299  -8.1980  0.00  0.00     0.000 C
ATOM     20  C4  NAG B   2       5.299  28.028  -8.5260  0.00  0.00     0.000 C
ATOM     21  C5  NAG B   2       4.975  27.277  -7.2430  0.00  0.00     0.000 C
ATOM     22  O5  NAG B   2       6.204  26.958  -6.5670  0.00  0.00     0.000 O
ATOM     23   O  NAG B   2       4.105  28.401  -9.2240  0.00  0.00     0.000 O
ATOM     25  HD  NAG B   2       4.707  27.969  -9.6730  0.00  0.00     0.000 HD
ATOM     25   C  NAG B   2       4.176  25.999  -7.4920  0.00  0.00     0.000 C
ATOM     26   O  NAG B   2       4.990  24.968  -8.0700  0.00  0.00     0.000 O
ATOM     28  HD  NAG B   2       5.592  24.536  -8.5190  0.00  0.00     0.000 HD
BRANCH 18 30
ATOM     28   N  NAG B   2       8.741  29.154  -7.1220  0.00  0.00     0.000 N
ATOM     30  HD  NAG B   2       8.436  29.963  -7.1720  0.00  0.00     0.000 HD
ATOM     30   C  NAG B   2       9.343  30.350  -7.1280  0.00  0.00     0.000 C
ATOM     31   C  NAG B   2      10.826  30.384  -6.8870  0.00  0.00     0.000 C
ATOM     32   O  NAG B   2       8.725  31.377  -7.3210  0.00  0.00     0.000 OA
ENDBRANCH 18 30
BRANCH 17 33
ATOM     33  O4  GCU B   3       8.164  27.804  -5.4590  0.00  0.00     0.000 O
BRANCH 33 37
ATOM     34  C1  GCU B   3       8.807  26.860  -1.4550  0.00  0.00     0.000 C
ATOM     35  C2  GCU B   3       8.434  25.719  -2.4020  0.00  0.00     0.000 C
ATOM     36  C3  GCU B   3       8.659  26.155  -3.8340  0.00  0.00     0.000 C
ATOM     37  C4  GCU B   3       7.890  27.441  -4.1040  0.00  0.00     0.000 C
ATOM     38  C5  GCU B   3       8.330  28.521  -3.1140  0.00  0.00     0.000 C
ATOM     39  O5  GCU B   3       8.083  28.049  -1.7860  0.00  0.00     0.000 O
ATOM     40   O  GCU B   3       9.244  24.581  -2.0990  0.00  0.00     0.000 O
ATOM     42  HD  GCU B   3       9.756  23.988  -2.4670  0.00  0.00     0.000 HD
ATOM     42   O  GCU B   3       8.249  25.130  -4.7580  0.00  0.00     0.000 O
ATOM     44  HD  GCU B   3       8.761  24.537  -5.1260  0.00  0.00     0.000 HD
BRANCH 38 44
ATOM     44   C  GCU B   3       7.590  29.821  -3.3050  0.00  0.00     0.000 C
ATOM     45   O  GCU B   3       6.415  29.898  -2.9150  0.00  0.00     0.000 OA
ATOM     46   O  GCU B   3       8.166  30.787  -3.8420  0.00  0.00     0.000 OA
ENDBRANCH 38 44
BRANCH 34 47
ATOM     47  O3  NAG B   4       8.414  26.544  -0.2290  0.00  0.00     0.000 O
BRANCH 47 50
ATOM     48  C1  NAG B   4       6.051  26.342   2.6220  0.00  0.00     0.000 C
ATOM     49  C2  NAG B   4       6.995  26.987   1.6130  0.00  0.00     0.000 C
ATOM     50  C3  NAG B   4       7.222  26.088   0.4080  0.00  0.00     0.000 C
ATOM     51  C4  NAG B   4       7.370  24.604   0.7640  0.00  0.00     0.000 C
ATOM     52  C5  NAG B   4       6.129  24.080   1.4690  0.00  0.00     0.000 C
ATOM     53  O5  NAG B   4       5.585  24.986   2.4540  0.00  0.00     0.000 O
BRANCH 49 56
ATOM     54   N  NAG B   4       6.200  27.948   0.8280  0.00  0.00     0.000 N
ATOM     56  HD  NAG B   4       5.957  27.848   0.0030  0.00  0.00     0.000 HD
ATOM     56   C  NAG B   4       4.991  29.980   0.2820  0.00  0.00     0.000 C
ATOM     57   O  NAG B   4       6.292  29.743   2.2200  0.00  0.00     0.000 OA
ATOM     58   C  NAG B   4       5.895  29.209   1.1940  0.00  0.00     0.000 C
ENDBRANCH 49 56
ATOM     59   O  NAG B   4       5.260  22.000   2.4750  0.00  0.00     0.000 O
ATOM     61  HD  NAG B   4       5.677  22.753   2.5730  0.00  0.00     0.000 HD
ATOM     61   O  NAG B   4       5.260  22.000   2.4750  0.00  0.00     0.000 O
ATOM     63  HD  NAG B   4       5.677  22.753   2.5730  0.00  0.00     0.000 HD
ENDBRANCH 47 50
ENDBRANCH 34 47
ENDBRANCH 33 37
ENDBRANCH 17 33
ENDBRANCH 16 19
ENDBRANCH 1 16
TORSDOF 10
ENDMDL
MODEL 21
REMARK VINA RESULT:      -7.8      3.776      7.024
ROOT
ATOM      1  C1  GCU B   1       9.674  31.727  -6.1970  0.00  0.00     0.000 C
ATOM      2  C2  GCU B   1      11.059  31.282  -5.7520  0.00  0.00     0.000 C
ATOM      3  C3  GCU B   1      11.559  32.158  -4.6140  0.00  0.00     0.000 C
ATOM      4  C4  GCU B   1      11.440  33.627  -4.9900  0.00  0.00     0.000 C
ATOM      5  C5  GCU B   1      10.029  33.957  -5.4800  0.00  0.00     0.000 C
ATOM      6  O5  GCU B   1       9.708  33.108  -6.5910  0.00  0.00     0.000 O
ATOM      7   O  GCU B   1      10.964  29.923  -5.3380  0.00  0.00     0.000 O
ATOM      9  HD  GCU B   1      11.460  29.269  -5.6140  0.00  0.00     0.000 HD
ATOM      9   O  GCU B   1      12.919  31.848  -4.2990  0.00  0.00     0.000 O
ATOM     11  HD  GCU B   1      13.415  31.194  -4.5750  0.00  0.00     0.000 HD
ATOM     11   O  GCU B   1      11.753  34.423  -3.8460  0.00  0.00     0.000 O
ATOM     13  HD  GCU B   1      12.249  33.769  -4.1220  0.00  0.00     0.000 HD
ENDROOT
BRANCH 5 13
ATOM     13   C  GCU B   1       9.937  35.422  -5.8330  0.00  0.00     0.000 C
ATOM     14   O  GCU B   1       8.854  36.032  -5.7190  0.00  0.00     0.000 OA
ATOM     15   O  GCU B   1      10.982  35.989  -6.2080  0.00  0.00     0.000 OA
ENDBRANCH 5 13
BRANCH 1 16
ATOM     16  O3  NAG B   2       9.112  31.561  -7.3960  0.00  0.00     0.000 O
BRANCH 16 19
ATOM     17  C1  NAG B   2       5.903  29.843  -8.3840  0.00  0.00     0.000 C
ATOM     18  C2  NAG B   2       7.272  29.995  -7.7330  0.00  0.00     0.000 C
ATOM     19  C3  NAG B   2       7.752  31.441  -7.8410  0.00  0.00     0.000 C
ATOM     20  C4  NAG B   2       7.683  31.918  -9.2910  0.00  0.00     0.000 C
ATOM     21  C5  NAG B   2       6.273  31.722  -9.8320  0.00  0.00     0.000 C
ATOM     22  O5  NAG B   2       5.927  30.329  -9.7350  0.00  0.00     0.000 O
ATOM     23   O  NAG B   2       8.067  33.297  -9.3320  0.00  0.00     0.000 O
ATOM     25  HD  NAG B   2       8.604  32.726  -9.7010  0.00  0.00     0.000 HD
ATOM     25   C  NAG B   2       6.124  32.193 -11.2770  0.00  0.00     0.000 C
ATOM     26   O  NAG B   2       6.766  31.295 -12.1960  0.00  0.00     0.000 O
ATOM     28  HD  NAG B   2       7.303  30.725 -12.5650  0.00  0.00     0.000 HD
BRANCH 18 30
ATOM     28   N  NAG B   2       7.471  28.663  -7.1930  0.00  0.00     0.000 N
ATOM     30  HD  NAG B   2       7.503  29.168  -6.4900  0.00  0.00     0.000 HD
ATOM     30   C  NAG B   2       7.769  28.414  -5.9120  0.00  0.00     0.000 C
ATOM     31   C  NAG B   2       7.990  26.981  -5.5140  0.00  0.00     0.000 C
ATOM     32   O  NAG B   2       7.864  29.304  -5.0910  0.00  0.00     0.000 OA
ENDBRANCH 18 30
BRANCH 17 33
ATOM     33  O4  GCU B   3       5.523  28.456  -8.2810  0.00  0.00     0.000 O
BRANCH 33 37
ATOM     34  C1  GCU B   3       1.845  26.739  -7.3540  0.00  0.00     0.000 C
ATOM     35  C2  GCU B   3       2.173  26.961  -8.8310  0.00  0.00     0.000 C
ATOM     36  C3  GCU B   3       3.662  27.178  -8.9930  0.00  0.00     0.000 C
ATOM     37  C4  GCU B   3       4.113  28.322  -8.0950  0.00  0.00     0.000 C
ATOM     38  C5  GCU B   3       3.747  28.011  -6.6420  0.00  0.00     0.000 C
ATOM     39  O5  GCU B   3       2.330  27.826  -6.5600  0.00  0.00     0.000 O
ATOM     40   O  GCU B   3       1.757  25.814  -9.5750  0.00  0.00     0.000 O
ATOM     42  HD  GCU B   3       2.033  25.243 -10.1650  0.00  0.00     0.000 HD
ATOM     42   O  GCU B   3       3.998  27.463 -10.3630  0.00  0.00     0.000 O
ATOM     44  HD  GCU B   3       4.275  26.892 -10.9530  0.00  0.00     0.000 HD
BRANCH 38 44
ATOM     44   C  GCU B   3       4.141  29.115  -5.6940  0.00  0.00     0.000 C
ATOM     45   O  GCU B   3       3.933  30.290  -6.0310  0.00  0.00     0.000 OA
ATOM     46   O  GCU B   3       4.661  28.831  -4.5980  0.00  0.00     0.000 OA
ENDBRANCH 38 44
BRANCH 34 47
ATOM     47  O3  NAG B   4       0.529  26.758  -7.2010  0.00  0.00     0.000 O
BRANCH 47 50
ATOM     48  C1  NAG B   4      -0.624  23.947  -5.0730  0.00  0.00     0.000 C
ATOM     49  C2  NAG B   4       0.297  25.055  -5.5730  0.00  0.00     0.000 C
ATOM     50  C3  NAG B   4      -0.452  26.054  -6.4410  0.00  0.00     0.000 C
ATOM     51  C4  NAG B   4      -1.466  25.407  -7.3910  0.00  0.00     0.000 C
ATOM     52  C5  NAG B   4      -2.518  24.623  -6.6240  0.00  0.00     0.000 C
ATOM     53  O5  NAG B   4      -1.990  23.845  -5.5270  0.00  0.00     0.000 O
BRANCH 49 56
ATOM     54   N  NAG B   4       0.332  25.892  -4.3600  0.00  0.00     0.000 N
ATOM     56  HD  NAG B   4      -0.318  26.383  -4.0660  0.00  0.00     0.000 HD
ATOM     56   C  NAG B   4       1.215  26.978  -2.3770  0.00  0.00     0.000 C
ATOM     57   O  NAG B   4       2.560  25.831  -3.9180  0.00  0.00     0.000 OA
ATOM     58   C  NAG B   4       1.427  26.185  -3.6310  0.00  0.00     0.000 C
ENDBRANCH 49 56
ATOM     59   O  NAG B   4      -4.514  23.230  -7.0350  0.00  0.00     0.000 O
ATOM     61  HD  NAG B   4      -3.659  23.281  -6.9080  0.00  0.00     0.000 HD
ATOM     61   O  NAG B   4      -4.514  23.230  -7.0350  0.00  0.00     0.000 O
ATOM     63  HD  NAG B   4      -3.659  23.281  -6.9080  0.00  0.00     0.000 HD
ENDBRANCH 47 50
ENDBRANCH 34 47
ENDBRANCH 33 37
ENDBRANCH 17 33
ENDBRANCH 16 19
ENDBRANCH 1 16
TORSDOF 10
ENDMDL
MODEL 22
REMARK VINA RESULT:      -7.8      5.421     11.788
ROOT
ATOM      1  C1  GCU B   1       1.692  28.589  -5.6150  0.00  0.00     0.000 C
ATOM      2  C2  GCU B   1       0.499  29.121  -4.8350  0.00  0.00     0.000 C
ATOM      3  C3  GCU B   1      -0.549  28.032  -4.6590  0.00  0.00     0.000 C
ATOM      4  C4  GCU B   1      -0.881  27.401  -6.0030  0.00  0.00     0.000 C
ATOM      5  C5  GCU B   1       0.389  26.957  -6.7310  0.00  0.00     0.000 C
ATOM      6  O5  GCU B   1       1.259  28.085  -6.8880  0.00  0.00     0.000 O
ATOM      7   O  GCU B   1       0.975  29.572  -3.5710  0.00  0.00     0.000 O
ATOM      9  HD  GCU B   1       0.833  30.351  -3.2210  0.00  0.00     0.000 HD
ATOM      9   O  GCU B   1      -1.736  28.567  -4.0690  0.00  0.00     0.000 O
ATOM     11  HD  GCU B   1      -1.878  29.346  -3.7190  0.00  0.00     0.000 HD
ATOM     11   O  GCU B   1      -1.733  26.276  -5.7850  0.00  0.00     0.000 O
ATOM     13  HD  GCU B   1      -1.874  27.055  -5.4350  0.00  0.00     0.000 HD
ENDROOT
BRANCH 5 13
ATOM     13   C  GCU B   1       0.028  26.322  -8.0520  0.00  0.00     0.000 C
ATOM     14   O  GCU B   1      -1.157  26.314  -8.4460  0.00  0.00     0.000 OA
ATOM     15   O  GCU B   1       0.956  25.842  -8.7310  0.00  0.00     0.000 OA
ENDBRANCH 5 13
BRANCH 1 16
ATOM     16  O3  NAG B   2       2.553  29.286  -6.3590  0.00  0.00     0.000 O
BRANCH 16 19
ATOM     17  C1  NAG B   2       6.259  29.860  -5.9540  0.00  0.00     0.000 C
ATOM     18  C2  NAG B   2       4.789  29.842  -5.5560  0.00  0.00     0.000 C
ATOM     19  C3  NAG B   2       3.956  29.150  -6.6330  0.00  0.00     0.000 C
ATOM     20  C4  NAG B   2       4.236  29.771  -8.0020  0.00  0.00     0.000 C
ATOM     21  C5  NAG B   2       5.729  29.729  -8.2920  0.00  0.00     0.000 C
ATOM     22  O5  NAG B   2       6.425  30.444  -7.2560  0.00  0.00     0.000 O
ATOM     23   O  NAG B   2       3.495  29.042  -8.9870  0.00  0.00     0.000 O
ATOM     25  HD  NAG B   2       3.249  29.858  -8.8320  0.00  0.00     0.000 HD
ATOM     25   C  NAG B   2       6.082  30.320  -9.6550  0.00  0.00     0.000 C
ATOM     26   O  NAG B   2       5.967  31.751  -9.6590  0.00  0.00     0.000 O
ATOM     28  HD  NAG B   2       5.721  32.567  -9.5040  0.00  0.00     0.000 HD
BRANCH 18 30
ATOM     28   N  NAG B   2       4.842  30.435  -4.2330  0.00  0.00     0.000 N
ATOM     30  HD  NAG B   2       4.515  29.647  -4.0830  0.00  0.00     0.000 HD
ATOM     30   C  NAG B   2       4.340  29.857  -3.1350  0.00  0.00     0.000 C
ATOM     31   C  NAG B   2       4.431  30.618  -1.8420  0.00  0.00     0.000 C
ATOM     32   O  NAG B   2       3.824  28.758  -3.1690  0.00  0.00     0.000 OA
ENDBRANCH 18 30
BRANCH 17 33
ATOM     33  O4  GCU B   3       6.984  30.554  -4.9190  0.00  0.00     0.000 O
BRANCH 33 37
ATOM     34  C1  GCU B   3      10.858  30.050  -3.4810  0.00  0.00     0.000 C
ATOM     35  C2  GCU B   3      10.688  30.737  -4.8370  0.00  0.00     0.000 C
ATOM     36  C3  GCU B   3       9.257  31.208  -4.9900  0.00  0.00     0.000 C
ATOM     37  C4  GCU B   3       8.308  30.036  -4.7820  0.00  0.00     0.000 C
ATOM     38  C5  GCU B   3       8.549  29.416  -3.4040  0.00  0.00     0.000 C
ATOM     39  O5  GCU B   3       9.912  28.987  -3.3300  0.00  0.00     0.000 O
ATOM     40   O  GCU B   3      11.584  31.847  -4.9090  0.00  0.00     0.000 O
ATOM     42  HD  GCU B   3      11.615  32.691  -5.1010  0.00  0.00     0.000 HD
ATOM     42   O  GCU B   3       9.042  31.796  -6.2860  0.00  0.00     0.000 O
ATOM     44  HD  GCU B   3       9.072  32.639  -6.4780  0.00  0.00     0.000 HD
BRANCH 38 44
ATOM     44   C  GCU B   3       7.659  28.229  -3.1370  0.00  0.00     0.000 C
ATOM     45   O  GCU B   3       7.525  27.375  -4.0260  0.00  0.00     0.000 OA
ATOM     46   O  GCU B   3       7.081  28.125  -2.0380  0.00  0.00     0.000 OA
ENDBRANCH 38 44
BRANCH 34 47
ATOM     47  O3  NAG B   4      12.047  29.464  -3.4450  0.00  0.00     0.000 O
BRANCH 47 50
ATOM     48  C1  NAG B   4      14.752  28.437  -1.1250  0.00  0.00     0.000 C
ATOM     49  C2  NAG B   4      13.711  28.298  -2.2310  0.00  0.00     0.000 C
ATOM     50  C3  NAG B   4      13.293  29.654  -2.7770  0.00  0.00     0.000 C
ATOM     51  C4  NAG B   4      13.133  30.731  -1.6980  0.00  0.00     0.000 C
ATOM     52  C5  NAG B   4      14.433  30.949  -0.9410  0.00  0.00     0.000 C
ATOM     53  O5  NAG B   4      15.137  29.731  -0.6150  0.00  0.00     0.000 O
BRANCH 49 56
ATOM     54   N  NAG B   4      14.684  27.876  -3.2530  0.00  0.00     0.000 N
ATOM     56  HD  NAG B   4      15.438  28.266  -3.4250  0.00  0.00     0.000 HD
ATOM     56   C  NAG B   4      15.642  26.606  -5.0870  0.00  0.00     0.000 C
ATOM     57   O  NAG B   4      13.416  26.368  -4.3870  0.00  0.00     0.000 OA
ATOM     58   C  NAG B   4      14.477  26.949  -4.2100  0.00  0.00     0.000 C
ENDBRANCH 49 56
ATOM     59   O  NAG B   4      15.342  32.312   0.9060  0.00  0.00     0.000 O
ATOM     61  HD  NAG B   4      14.972  31.576   0.6410  0.00  0.00     0.000 HD
ATOM     61   O  NAG B   4      15.342  32.312   0.9060  0.00  0.00     0.000 O
ATOM     63  HD  NAG B   4      14.972  31.576   0.6410  0.00  0.00     0.000 HD
ENDBRANCH 47 50
ENDBRANCH 34 47
ENDBRANCH 33 37
ENDBRANCH 17 33
ENDBRANCH 16 19
ENDBRANCH 1 16
TORSDOF 10
ENDMDL
MODEL 23
REMARK VINA RESULT:      -7.8      6.246     12.085
ROOT
ATOM      1  C1  GCU B   1       2.735  29.055  -5.4850  0.00  0.00     0.000 C
ATOM      2  C2  GCU B   1       1.445  29.583  -4.8770  0.00  0.00     0.000 C
ATOM      3  C3  GCU B   1       0.395  28.485  -4.8210  0.00  0.00     0.000 C
ATOM      4  C4  GCU B   1       0.247  27.827  -6.1840  0.00  0.00     0.000 C
ATOM      5  C5  GCU B   1       1.606  27.388  -6.7330  0.00  0.00     0.000 C
ATOM      6  O5  GCU B   1       2.477  28.525  -6.7950  0.00  0.00     0.000 O
ATOM      7   O  GCU B   1       1.746  30.061  -3.5700  0.00  0.00     0.000 O
ATOM      9  HD  GCU B   1       1.552  30.844  -3.2550  0.00  0.00     0.000 HD
ATOM      9   O  GCU B   1      -0.865  29.013  -4.4000  0.00  0.00     0.000 O
ATOM     11  HD  GCU B   1      -1.060  29.796  -4.0850  0.00  0.00     0.000 HD
ATOM     11   O  GCU B   1      -0.613  26.695  -6.0610  0.00  0.00     0.000 O
ATOM     13  HD  GCU B   1      -0.808  27.478  -5.7450  0.00  0.00     0.000 HD
ENDROOT
BRANCH 5 13
ATOM     13   C  GCU B   1       1.428  26.728  -8.0790  0.00  0.00     0.000 C
ATOM     14   O  GCU B   1       0.736  25.695  -8.1880  0.00  0.00     0.000 OA
ATOM     15   O  GCU B   1       1.971  27.270  -9.0610  0.00  0.00     0.000 OA
ENDBRANCH 5 13
BRANCH 1 16
ATOM     16  O3  NAG B   2       3.679  29.751  -6.1230  0.00  0.00     0.000 O
BRANCH 16 19
ATOM     17  C1  NAG B   2       7.361  30.070  -5.3720  0.00  0.00     0.000 C
ATOM     18  C2  NAG B   2       5.864  30.094  -5.0930  0.00  0.00     0.000 C
ATOM     19  C3  NAG B   2       5.092  29.565  -6.3010  0.00  0.00     0.000 C
ATOM     20  C4  NAG B   2       5.513  30.308  -7.5680  0.00  0.00     0.000 C
ATOM     21  C5  NAG B   2       7.021  30.213  -7.7450  0.00  0.00     0.000 C
ATOM     22  O5  NAG B   2       7.662  30.776  -6.5870  0.00  0.00     0.000 O
ATOM     23   O  NAG B   2       4.823  29.728  -8.6810  0.00  0.00     0.000 O
ATOM     25  HD  NAG B   2       4.604  30.536  -8.4580  0.00  0.00     0.000 HD
ATOM     25   C  NAG B   2       7.514  30.921  -9.0050  0.00  0.00     0.000 C
ATOM     26   O  NAG B   2       7.468  32.349  -8.8630  0.00  0.00     0.000 O
ATOM     28  HD  NAG B   2       7.249  33.157  -8.6400  0.00  0.00     0.000 HD
BRANCH 18 30
ATOM     28   N  NAG B   2       5.921  29.466  -3.7870  0.00  0.00     0.000 N
ATOM     30  HD  NAG B   2       5.292  30.054  -3.6960  0.00  0.00     0.000 HD
ATOM     30   C  NAG B   2       5.216  29.882  -2.7270  0.00  0.00     0.000 C
ATOM     31   C  NAG B   2       5.418  29.156  -1.4270  0.00  0.00     0.000 C
ATOM     32   O  NAG B   2       4.441  30.814  -2.8000  0.00  0.00     0.000 OA
ENDBRANCH 18 30
BRANCH 17 33
ATOM     33  O4  GCU B   3       8.029  30.612  -4.2150  0.00  0.00     0.000 O
BRANCH 33 37
ATOM     34  C1  GCU B   3      12.063  30.714  -3.1900  0.00  0.00     0.000 C
ATOM     35  C2  GCU B   3      11.557  31.759  -4.1850  0.00  0.00     0.000 C
ATOM     36  C3  GCU B   3      10.047  31.844  -4.1070  0.00  0.00     0.000 C
ATOM     37  C4  GCU B   3       9.446  30.462  -4.3230  0.00  0.00     0.000 C
ATOM     38  C5  GCU B   3      10.007  29.489  -3.2840  0.00  0.00     0.000 C
ATOM     39  O5  GCU B   3      11.431  29.451  -3.4180  0.00  0.00     0.000 O
ATOM     40   O  GCU B   3      12.140  33.024  -3.8650  0.00  0.00     0.000 O
ATOM     42  HD  GCU B   3      11.939  33.856  -3.7290  0.00  0.00     0.000 HD
ATOM     42   O  GCU B   3       9.529  32.766  -5.0830  0.00  0.00     0.000 O
ATOM     44  HD  GCU B   3       9.329  33.598  -4.9470  0.00  0.00     0.000 HD
BRANCH 38 44
ATOM     44   C  GCU B   3       9.474  28.088  -3.4520  0.00  0.00     0.000 C
ATOM     45   O  GCU B   3       8.482  27.747  -2.7890  0.00  0.00     0.000 OA
ATOM     46   O  GCU B   3      10.030  27.306  -4.2460  0.00  0.00     0.000 OA
ENDBRANCH 38 44
BRANCH 34 47
ATOM     47  O3  NAG B   4      13.353  30.503  -3.4120  0.00  0.00     0.000 O
BRANCH 47 50
ATOM     48  C1  NAG B   4      15.417  31.016  -0.3740  0.00  0.00     0.000 C
ATOM     49  C2  NAG B   4      14.352  30.392  -1.2690  0.00  0.00     0.000 C
ATOM     50  C3  NAG B   4      14.587  30.726  -2.7330  0.00  0.00     0.000 C
ATOM     51  C4  NAG B   4      15.046  32.170  -2.9710  0.00  0.00     0.000 C
ATOM     52  C5  NAG B   4      16.348  32.461  -2.2430  0.00  0.00     0.000 C
ATOM     53  O5  NAG B   4      16.411  31.917  -0.9070  0.00  0.00     0.000 O
BRANCH 49 56
ATOM     54   N  NAG B   4      14.915  29.031  -1.2400  0.00  0.00     0.000 N
ATOM     56  HD  NAG B   4      15.723  28.813  -1.4620  0.00  0.00     0.000 HD
ATOM     56   C  NAG B   4      15.012  26.621  -0.9700  0.00  0.00     0.000 C
ATOM     57   O  NAG B   4      13.005  27.834  -0.9480  0.00  0.00     0.000 OA
ATOM     58   C  NAG B   4      14.221  27.890  -1.0600  0.00  0.00     0.000 C
ENDBRANCH 49 56
ATOM     59   O  NAG B   4      17.940  34.312  -1.8790  0.00  0.00     0.000 O
ATOM     61  HD  NAG B   4      17.244  33.870  -1.6140  0.00  0.00     0.000 HD
ATOM     61   O  NAG B   4      17.940  34.312  -1.8790  0.00  0.00     0.000 O
ATOM     63  HD  NAG B   4      17.244  33.870  -1.6140  0.00  0.00     0.000 HD
ENDBRANCH 47 50
ENDBRANCH 34 47
ENDBRANCH 33 37
ENDBRANCH 17 33
ENDBRANCH 16 19
ENDBRANCH 1 16
TORSDOF 10
ENDMDL
MODEL 24
REMARK VINA RESULT:      -7.7      5.640      8.628
ROOT
ATOM      1  C1  GCU B   1      10.763  29.164  -3.5430  0.00  0.00     0.000 C
ATOM      2  C2  GCU B   1      11.772  30.258  -3.8580  0.00  0.00     0.000 C
ATOM      3  C3  GCU B   1      13.151  29.660  -4.0880  0.00  0.00     0.000 C
ATOM      4  C4  GCU B   1      13.527  28.746  -2.9320  0.00  0.00     0.000 C
ATOM      5  C5  GCU B   1      12.422  27.724  -2.6570  0.00  0.00     0.000 C
ATOM      6  O5  GCU B   1      11.195  28.418  -2.3940  0.00  0.00     0.000 O
ATOM      7   O  GCU B   1      11.318  30.942  -5.0220  0.00  0.00     0.000 O
ATOM      9  HD  GCU B   1      11.213  31.798  -5.1040  0.00  0.00     0.000 HD
ATOM      9   O  GCU B   1      14.131  30.692  -4.2280  0.00  0.00     0.000 O
ATOM     11  HD  GCU B   1      14.026  31.548  -4.3090  0.00  0.00     0.000 HD
ATOM     11   O  GCU B   1      14.742  28.069  -3.2550  0.00  0.00     0.000 O
ATOM     13  HD  GCU B   1      14.637  28.925  -3.3360  0.00  0.00     0.000 HD
ENDROOT
BRANCH 5 13
ATOM     13   C  GCU B   1      12.828  26.823  -1.5160  0.00  0.00     0.000 C
ATOM     14   O  GCU B   1      12.601  25.597  -1.5670  0.00  0.00     0.000 OA
ATOM     15   O  GCU B   1      13.416  27.349  -0.5510  0.00  0.00     0.000 OA
ENDBRANCH 5 13
BRANCH 1 16
ATOM     16  O3  NAG B   2       9.630  29.279  -2.8470  0.00  0.00     0.000 O
BRANCH 16 19
ATOM     17  C1  NAG B   2       5.988  28.796  -3.7020  0.00  0.00     0.000 C
ATOM     18  C2  NAG B   2       7.383  29.401  -3.7910  0.00  0.00     0.000 C
ATOM     19  C3  NAG B   2       8.358  28.615  -2.9160  0.00  0.00     0.000 C
ATOM     20  C4  NAG B   2       7.812  28.487  -1.4940  0.00  0.00     0.000 C
ATOM     21  C5  NAG B   2       6.421  27.869  -1.5300  0.00  0.00     0.000 C
ATOM     22  O5  NAG B   2       5.564  28.699  -2.3330  0.00  0.00     0.000 O
ATOM     23   O  NAG B   2       8.718  27.680  -0.7340  0.00  0.00     0.000 O
ATOM     25  HD  NAG B   2       8.661  28.517  -0.5210  0.00  0.00     0.000 HD
ATOM     25   C  NAG B   2       5.817  27.694  -0.1390  0.00  0.00     0.000 C
ATOM     26   O  NAG B   2       5.410  28.951   0.4250  0.00  0.00     0.000 O
ATOM     28  HD  NAG B   2       5.353  29.788   0.6370  0.00  0.00     0.000 HD
BRANCH 18 30
ATOM     28   N  NAG B   2       7.270  29.600  -5.2240  0.00  0.00     0.000 N
ATOM     30  HD  NAG B   2       7.882  30.168  -4.9930  0.00  0.00     0.000 HD
ATOM     30   C  NAG B   2       7.909  30.565  -5.8960  0.00  0.00     0.000 C
ATOM     31   C  NAG B   2       7.654  30.672  -7.3730  0.00  0.00     0.000 C
ATOM     32   O  NAG B   2       8.669  31.335  -5.3430  0.00  0.00     0.000 OA
ENDBRANCH 18 30
BRANCH 17 33
ATOM     33  O4  GCU B   3       5.112  29.599  -4.5180  0.00  0.00     0.000 O
BRANCH 33 37
ATOM     34  C1  GCU B   3       1.263  28.868  -5.9270  0.00  0.00     0.000 C
ATOM     35  C2  GCU B   3       1.410  29.359  -4.4870  0.00  0.00     0.000 C
ATOM     36  C3  GCU B   3       2.784  29.966  -4.2950  0.00  0.00     0.000 C
ATOM     37  C4  GCU B   3       3.849  28.957  -4.7020  0.00  0.00     0.000 C
ATOM     38  C5  GCU B   3       3.624  28.527  -6.1530  0.00  0.00     0.000 C
ATOM     39  O5  GCU B   3       2.315  27.957  -6.2610  0.00  0.00     0.000 O
ATOM     40   O  GCU B   3       0.399  30.335  -4.2250  0.00  0.00     0.000 O
ATOM     42  HD  GCU B   3       0.282  31.131  -3.9050  0.00  0.00     0.000 HD
ATOM     42   O  GCU B   3       2.984  30.374  -2.9300  0.00  0.00     0.000 O
ATOM     44  HD  GCU B   3       2.867  31.170  -2.6100  0.00  0.00     0.000 HD
BRANCH 38 44
ATOM     44   C  GCU B   3       4.630  27.505  -6.6190  0.00  0.00     0.000 C
ATOM     45   O  GCU B   3       5.552  27.876  -7.3610  0.00  0.00     0.000 OA
ATOM     46   O  GCU B   3       4.521  26.319  -6.2530  0.00  0.00     0.000 OA
ENDBRANCH 38 44
BRANCH 34 47
ATOM     47  O3  NAG B   4       0.147  28.160  -6.0260  0.00  0.00     0.000 O
BRANCH 47 50
ATOM     48  C1  NAG B   4      -1.712  25.000  -6.5860  0.00  0.00     0.000 C
ATOM     49  C2  NAG B   4      -0.784  26.168  -6.9020  0.00  0.00     0.000 C
ATOM     50  C3  NAG B   4      -0.318  26.869  -5.6370  0.00  0.00     0.000 C
ATOM     51  C4  NAG B   4      -1.413  27.020  -4.5750  0.00  0.00     0.000 C
ATOM     52  C5  NAG B   4      -1.957  25.667  -4.1480  0.00  0.00     0.000 C
ATOM     53  O5  NAG B   4      -2.161  24.742  -5.2390  0.00  0.00     0.000 O
BRANCH 49 56
ATOM     54   N  NAG B   4       0.486  25.457  -7.1320  0.00  0.00     0.000 N
ATOM     56  HD  NAG B   4       1.021  25.166  -6.5160  0.00  0.00     0.000 HD
ATOM     56   C  NAG B   4       2.349  24.472  -8.3360  0.00  0.00     0.000 C
ATOM     57   O  NAG B   4       0.732  25.825  -9.3610  0.00  0.00     0.000 OA
ATOM     58   C  NAG B   4       1.115  25.321  -8.3160  0.00  0.00     0.000 C
ENDBRANCH 49 56
ATOM     59   O  NAG B   4      -3.644  24.699  -2.6270  0.00  0.00     0.000 O
ATOM     61  HD  NAG B   4      -3.437  24.989  -3.4170  0.00  0.00     0.000 HD
ATOM     61   O  NAG B   4      -3.644  24.699  -2.6270  0.00  0.00     0.000 O
ATOM     63  HD  NAG B   4      -3.437  24.989  -3.4170  0.00  0.00     0.000 HD
ENDBRANCH 47 50
ENDBRANCH 34 47
ENDBRANCH 33 37
ENDBRANCH 17 33
ENDBRANCH 16 19
ENDBRANCH 1 16
TORSDOF 10
ENDMDL
MODEL 25
REMARK VINA RESULT:      -7.7      3.324     11.937
ROOT
ATOM      1  C1  GCU B   1       4.636  30.328  -6.6750  0.00  0.00     0.000 C
ATOM      2  C2  GCU B   1       3.389  29.459  -6.7330  0.00  0.00     0.000 C
ATOM      3  C3  GCU B   1       2.492  29.734  -5.5360  0.00  0.00     0.000 C
ATOM      4  C4  GCU B   1       3.292  29.634  -4.2460  0.00  0.00     0.000 C
ATOM      5  C5  GCU B   1       4.554  30.497  -4.3140  0.00  0.00     0.000 C
ATOM      6  O5  GCU B   1       5.339  30.093  -5.4440  0.00  0.00     0.000 O
ATOM      7   O  GCU B   1       2.711  29.755  -7.9500  0.00  0.00     0.000 O
ATOM      9  HD  GCU B   1       2.453  29.180  -8.5440  0.00  0.00     0.000 HD
ATOM      9   O  GCU B   1       1.401  28.810  -5.5000  0.00  0.00     0.000 O
ATOM     11  HD  GCU B   1       1.143  28.235  -6.0940  0.00  0.00     0.000 HD
ATOM     11   O  GCU B   1       2.472  30.064  -3.1590  0.00  0.00     0.000 O
ATOM     13  HD  GCU B   1       2.213  29.489  -3.7530  0.00  0.00     0.000 HD
ENDROOT
BRANCH 5 13
ATOM     13   C  GCU B   1       5.320  30.390  -3.0170  0.00  0.00     0.000 C
ATOM     14   O  GCU B   1       6.055  29.405  -2.7980  0.00  0.00     0.000 OA
ATOM     15   O  GCU B   1       5.206  31.327  -2.2040  0.00  0.00     0.000 OA
ENDBRANCH 5 13
BRANCH 1 16
ATOM     16  O3  NAG B   2       5.828  30.079  -7.2210  0.00  0.00     0.000 O
BRANCH 16 19
ATOM     17  C1  NAG B   2       7.934  31.950  -9.7290  0.00  0.00     0.000 C
ATOM     18  C2  NAG B   2       6.709  31.224  -9.1870  0.00  0.00     0.000 C
ATOM     19  C3  NAG B   2       6.889  30.919  -7.7010  0.00  0.00     0.000 C
ATOM     20  C4  NAG B   2       8.213  30.195  -7.4620  0.00  0.00     0.000 C
ATOM     21  C5  NAG B   2       9.359  31.013  -8.0400  0.00  0.00     0.000 C
ATOM     22  O5  NAG B   2       9.131  31.207  -9.4470  0.00  0.00     0.000 O
ATOM     23   O  NAG B   2       8.373  30.000  -6.0530  0.00  0.00     0.000 O
ATOM     25  HD  NAG B   2       8.245  29.294  -6.5370  0.00  0.00     0.000 HD
ATOM     25   C  NAG B   2      10.721  30.356  -7.8230  0.00  0.00     0.000 C
ATOM     26   O  NAG B   2      10.902  29.216  -8.6780  0.00  0.00     0.000 O
ATOM     28  HD  NAG B   2      10.773  28.510  -9.1620  0.00  0.00     0.000 HD
BRANCH 18 30
ATOM     28   N  NAG B   2       5.761  32.105  -9.8410  0.00  0.00     0.000 N
ATOM     30  HD  NAG B   2       5.334  31.353  -9.7980  0.00  0.00     0.000 HD
ATOM     30   C  NAG B   2       4.589  31.698 -10.3440  0.00  0.00     0.000 C
ATOM     31   C  NAG B   2       3.733  32.724 -11.0340  0.00  0.00     0.000 C
ATOM     32   O  NAG B   2       4.219  30.545 -10.2550  0.00  0.00     0.000 OA
ENDBRANCH 18 30
BRANCH 17 33
ATOM     33  O4  GCU B   3       7.719  32.176 -11.1370  0.00  0.00     0.000 O
BRANCH 33 37
ATOM     34  C1  GCU B   3       9.572  34.817 -13.7680  0.00  0.00     0.000 C
ATOM     35  C2  GCU B   3      10.208  33.439 -13.5800  0.00  0.00     0.000 C
ATOM     36  C3  GCU B   3       9.202  32.498 -12.9530  0.00  0.00     0.000 C
ATOM     37  C4  GCU B   3       8.674  33.101 -11.6600  0.00  0.00     0.000 C
ATOM     38  C5  GCU B   3       8.056  34.472 -11.9460  0.00  0.00     0.000 C
ATOM     39  O5  GCU B   3       9.059  35.311 -12.5280  0.00  0.00     0.000 O
ATOM     40   O  GCU B   3      10.623  32.942 -14.8550  0.00  0.00     0.000 O
ATOM     42  HD  GCU B   3      10.576  32.245 -15.3660  0.00  0.00     0.000 HD
ATOM     42   O  GCU B   3       9.790  31.210 -12.6940  0.00  0.00     0.000 O
ATOM     44  HD  GCU B   3       9.743  30.512 -13.2060  0.00  0.00     0.000 HD
BRANCH 38 44
ATOM     44   C  GCU B   3       7.532  35.145 -10.7020  0.00  0.00     0.000 C
ATOM     45   O  GCU B   3       8.278  35.924 -10.0890  0.00  0.00     0.000 OA
ATOM     46   O  GCU B   3       6.370  34.913 -10.3170  0.00  0.00     0.000 OA
ENDBRANCH 38 44
BRANCH 34 47
ATOM     47  O3  NAG B   4      10.516  35.678 -14.1220  0.00  0.00     0.000 O
BRANCH 47 50
ATOM     48  C1  NAG B   4       9.454  38.646 -16.0760  0.00  0.00     0.000 C
ATOM     49  C2  NAG B   4       9.674  37.768 -14.8490  0.00  0.00     0.000 C
ATOM     50  C3  NAG B   4      10.704  36.682 -15.1170  0.00  0.00     0.000 C
ATOM     51  C4  NAG B   4      10.586  36.049 -16.5080  0.00  0.00     0.000 C
ATOM     52  C5  NAG B   4      10.755  37.089 -17.6030  0.00  0.00     0.000 C
ATOM     53  O5  NAG B   4      10.076  38.337 -17.3410  0.00  0.00     0.000 O
BRANCH 49 56
ATOM     54   N  NAG B   4      10.502  38.758 -14.1390  0.00  0.00     0.000 N
ATOM     56  HD  NAG B   4      11.180  39.182 -14.4720  0.00  0.00     0.000 HD
ATOM     56   C  NAG B   4      11.332  40.138 -12.3230  0.00  0.00     0.000 C
ATOM     57   O  NAG B   4       9.770  38.416 -12.0150  0.00  0.00     0.000 OA
ATOM     58   C  NAG B   4      10.468  39.018 -12.8170  0.00  0.00     0.000 C
ENDBRANCH 49 56
ATOM     59   O  NAG B   4      10.745  37.264 -20.0660  0.00  0.00     0.000 O
ATOM     61  HD  NAG B   4      10.311  37.313 -19.3180  0.00  0.00     0.000 HD
ATOM     61   O  NAG B   4      10.745  37.264 -20.0660  0.00  0.00     0.000 O
ATOM     63  HD  NAG B   4      10.311  37.313 -19.3180  0.00  0.00     0.000 HD
ENDBRANCH 47 50
ENDBRANCH 34 47
ENDBRANCH 33 37
ENDBRANCH 17 33
ENDBRANCH 16 19
ENDBRANCH 1 16
TORSDOF 10
ENDMDL
MODEL 26
REMARK VINA RESULT:      -7.7      8.080     11.363
ROOT
ATOM      1  C1  GCU B   1       8.623  22.930  -1.6700  0.00  0.00     0.000 C
ATOM      2  C2  GCU B   1      10.094  22.811  -2.0380  0.00  0.00     0.000 C
ATOM      3  C3  GCU B   1      10.499  21.349  -2.1450  0.00  0.00     0.000 C
ATOM      4  C4  GCU B   1      10.081  20.595  -0.8920  0.00  0.00     0.000 C
ATOM      5  C5  GCU B   1       8.603  20.830  -0.5760  0.00  0.00     0.000 C
ATOM      6  O5  GCU B   1       8.370  22.238  -0.4370  0.00  0.00     0.000 O
ATOM      7   O  GCU B   1      10.284  23.479  -3.2820  0.00  0.00     0.000 O
ATOM      9  HD  GCU B   1      10.874  24.091  -3.4480  0.00  0.00     0.000 HD
ATOM      9   O  GCU B   1      11.911  21.230  -2.3330  0.00  0.00     0.000 O
ATOM     11  HD  GCU B   1      12.501  21.841  -2.4990  0.00  0.00     0.000 HD
ATOM     11   O  GCU B   1      10.318  19.201  -1.0910  0.00  0.00     0.000 O
ATOM     13  HD  GCU B   1      10.908  19.813  -1.2570  0.00  0.00     0.000 HD
ENDROOT
BRANCH 5 13
ATOM     13   C  GCU B   1       8.214  20.060   0.6640  0.00  0.00     0.000 C
ATOM     14   O  GCU B   1       7.050  19.631   0.8010  0.00  0.00     0.000 OA
ATOM     15   O  GCU B   1       9.102  19.853   1.5130  0.00  0.00     0.000 OA
ENDBRANCH 5 13
BRANCH 1 16
ATOM     16  O3  NAG B   2       8.021  23.943  -1.0440  0.00  0.00     0.000 O
BRANCH 16 19
ATOM     17  C1  NAG B   2       4.924  25.868  -2.0080  0.00  0.00     0.000 C
ATOM     18  C2  NAG B   2       6.302  25.244  -2.1870  0.00  0.00     0.000 C
ATOM     19  C3  NAG B   2       6.658  24.389  -0.9720  0.00  0.00     0.000 C
ATOM     20  C4  NAG B   2       6.489  25.196   0.3150  0.00  0.00     0.000 C
ATOM     21  C5  NAG B   2       5.079  25.765   0.3860  0.00  0.00     0.000 C
ATOM     22  O5  NAG B   2       4.852  26.592  -0.7690  0.00  0.00     0.000 O
ATOM     23   O  NAG B   2       6.757  24.334   1.4270  0.00  0.00     0.000 O
ATOM     25  HD  NAG B   2       7.323  24.972   1.2760  0.00  0.00     0.000 HD
ATOM     25   C  NAG B   2       4.832  26.573   1.6580  0.00  0.00     0.000 C
ATOM     26   O  NAG B   2       5.505  27.841   1.6200  0.00  0.00     0.000 O
ATOM     28  HD  NAG B   2       6.071  28.479   1.4690  0.00  0.00     0.000 HD
BRANCH 18 30
ATOM     28   N  NAG B   2       6.084  24.778  -3.5430  0.00  0.00     0.000 N
ATOM     30  HD  NAG B   2       6.922  24.997  -3.5420  0.00  0.00     0.000 HD
ATOM     30   C  NAG B   2       7.002  24.853  -4.5140  0.00  0.00     0.000 C
ATOM     31   C  NAG B   2       6.611  24.368  -5.8820  0.00  0.00     0.000 C
ATOM     32   O  NAG B   2       8.115  25.298  -4.3110  0.00  0.00     0.000 OA
ENDBRANCH 18 30
BRANCH 17 33
ATOM     33  O4  GCU B   3       4.663  26.688  -3.1650  0.00  0.00     0.000 O
BRANCH 33 37
ATOM     34  C1  GCU B   3       1.076  27.970  -4.8450  0.00  0.00     0.000 C
ATOM     35  C2  GCU B   3       1.624  28.757  -3.6540  0.00  0.00     0.000 C
ATOM     36  C3  GCU B   3       3.089  28.430  -3.4610  0.00  0.00     0.000 C
ATOM     37  C4  GCU B   3       3.263  26.925  -3.3220  0.00  0.00     0.000 C
ATOM     38  C5  GCU B   3       2.691  26.224  -4.5560  0.00  0.00     0.000 C
ATOM     39  O5  GCU B   3       1.307  26.569  -4.6740  0.00  0.00     0.000 O
ATOM     40   O  GCU B   3       1.458  30.154  -3.9070  0.00  0.00     0.000 O
ATOM     42  HD  GCU B   3       1.887  30.907  -3.9000  0.00  0.00     0.000 HD
ATOM     42   O  GCU B   3       3.620  29.099  -2.3020  0.00  0.00     0.000 O
ATOM     44  HD  GCU B   3       4.049  29.851  -2.2960  0.00  0.00     0.000 HD
BRANCH 38 44
ATOM     44   C  GCU B   3       2.805  24.723  -4.4780  0.00  0.00     0.000 C
ATOM     45   O  GCU B   3       3.362  24.120  -5.4080  0.00  0.00     0.000 OA
ATOM     46   O  GCU B   3       2.346  24.119  -3.4900  0.00  0.00     0.000 OA
ENDBRANCH 38 44
BRANCH 34 47
ATOM     47  O3  NAG B   4      -0.242  28.104  -4.8760  0.00  0.00     0.000 O
BRANCH 47 50
ATOM     48  C1  NAG B   4      -3.648  26.644  -5.0240  0.00  0.00     0.000 C
ATOM     49  C2  NAG B   4      -2.214  26.930  -5.4570  0.00  0.00     0.000 C
ATOM     50  C3  NAG B   4      -1.379  27.461  -4.3030  0.00  0.00     0.000 C
ATOM     51  C4  NAG B   4      -2.126  28.453  -3.4040  0.00  0.00     0.000 C
ATOM     52  C5  NAG B   4      -3.362  27.816  -2.7900  0.00  0.00     0.000 C
ATOM     53  O5  NAG B   4      -4.118  26.993  -3.7050  0.00  0.00     0.000 O
BRANCH 49 56
ATOM     54   N  NAG B   4      -1.703  25.549  -5.4240  0.00  0.00     0.000 N
ATOM     56  HD  NAG B   4      -1.589  25.069  -4.7130  0.00  0.00     0.000 HD
ATOM     56   C  NAG B   4      -0.786  23.449  -6.2260  0.00  0.00     0.000 C
ATOM     57   O  NAG B   4      -0.949  25.371  -7.5610  0.00  0.00     0.000 OA
ATOM     58   C  NAG B   4      -1.150  24.884  -6.4580  0.00  0.00     0.000 C
ENDBRANCH 49 56
ATOM     59   O  NAG B   4      -5.241  28.388  -1.2940  0.00  0.00     0.000 O
ATOM     61  HD  NAG B   4      -4.927  28.325  -2.0990  0.00  0.00     0.000 HD
ATOM     61   O  NAG B   4      -5.241  28.388  -1.2940  0.00  0.00     0.000 O
ATOM     63  HD  NAG B   4      -4.927  28.325  -2.0990  0.00  0.00     0.000 HD
ENDBRANCH 47 50
ENDBRANCH 34 47
ENDBRANCH 33 37
ENDBRANCH 17 33
ENDBRANCH 16 19
ENDBRANCH 1 16
TORSDOF 10
ENDMDL
MODEL 27
REMARK VINA RESULT:      -7.6      4.727     11.812
ROOT
ATOM      1  C1  GCU B   1       1.064  27.742  -5.6920  0.00  0.00     0.000 C
ATOM      2  C2  GCU B   1       0.441  26.386  -5.9870  0.00  0.00     0.000 C
ATOM      3  C3  GCU B   1      -1.030  26.543  -6.3410  0.00  0.00     0.000 C
ATOM      4  C4  GCU B   1      -1.741  27.365  -5.2770  0.00  0.00     0.000 C
ATOM      5  C5  GCU B   1      -1.002  28.678  -5.0120  0.00  0.00     0.000 C
ATOM      6  O5  GCU B   1       0.348  28.387  -4.6270  0.00  0.00     0.000 O
ATOM      7   O  GCU B   1       1.161  25.806  -7.0700  0.00  0.00     0.000 O
ATOM      9  HD  GCU B   1       1.513  25.015  -7.0840  0.00  0.00     0.000 HD
ATOM      9   O  GCU B   1      -1.658  25.264  -6.4630  0.00  0.00     0.000 O
ATOM     11  HD  GCU B   1      -1.305  24.473  -6.4770  0.00  0.00     0.000 HD
ATOM     11   O  GCU B   1      -3.071  27.640  -5.7190  0.00  0.00     0.000 O
ATOM     13  HD  GCU B   1      -2.718  26.849  -5.7320  0.00  0.00     0.000 HD
ENDROOT
BRANCH 5 13
ATOM     13   C  GCU B   1      -1.737  29.479  -3.9630  0.00  0.00     0.000 C
ATOM     14   O  GCU B   1      -2.421  30.470  -4.2910  0.00  0.00     0.000 OA
ATOM     15   O  GCU B   1      -1.653  29.092  -2.7820  0.00  0.00     0.000 OA
ENDBRANCH 5 13
BRANCH 1 16
ATOM     16  O3  NAG B   2       2.125  27.999  -4.9240  0.00  0.00     0.000 O
BRANCH 16 19
ATOM     17  C1  NAG B   2       5.617  29.343  -5.4060  0.00  0.00     0.000 C
ATOM     18  C2  NAG B   2       4.464  28.354  -5.5240  0.00  0.00     0.000 C
ATOM     19  C3  NAG B   2       3.176  28.976  -4.9870  0.00  0.00     0.000 C
ATOM     20  C4  NAG B   2       3.397  29.528  -3.5790  0.00  0.00     0.000 C
ATOM     21  C5  NAG B   2       4.566  30.503  -3.5850  0.00  0.00     0.000 C
ATOM     22  O5  NAG B   2       5.741  29.818  -4.0560  0.00  0.00     0.000 O
ATOM     23   O  NAG B   2       2.190  30.167  -3.1500  0.00  0.00     0.000 O
ATOM     25  HD  NAG B   2       2.418  29.439  -2.7410  0.00  0.00     0.000 HD
ATOM     25   C  NAG B   2       4.837  31.108  -2.2100  0.00  0.00     0.000 C
ATOM     26   O  NAG B   2       5.438  30.155  -1.3200  0.00  0.00     0.000 O
ATOM     28  HD  NAG B   2       5.666  29.427  -0.9100  0.00  0.00     0.000 HD
BRANCH 18 30
ATOM     28   N  NAG B   2       4.892  27.924  -6.8420  0.00  0.00     0.000 N
ATOM     30  HD  NAG B   2       4.409  27.261  -6.5650  0.00  0.00     0.000 HD
ATOM     30   C  NAG B   2       4.652  26.707  -7.3440  0.00  0.00     0.000 C
ATOM     31   C  NAG B   2       5.201  26.395  -8.7080  0.00  0.00     0.000 C
ATOM     32   O  NAG B   2       4.019  25.873  -6.7280  0.00  0.00     0.000 OA
ENDBRANCH 18 30
BRANCH 17 33
ATOM     33  O4  GCU B   3       6.805  28.687  -5.8930  0.00  0.00     0.000 O
BRANCH 33 37
ATOM     34  C1  GCU B   3      10.738  30.019  -6.1890  0.00  0.00     0.000 C
ATOM     35  C2  GCU B   3      10.230  29.608  -4.8060  0.00  0.00     0.000 C
ATOM     36  C3  GCU B   3       8.976  28.773  -4.9550  0.00  0.00     0.000 C
ATOM     37  C4  GCU B   3       7.946  29.537  -5.7740  0.00  0.00     0.000 C
ATOM     38  C5  GCU B   3       8.541  29.903  -7.1360  0.00  0.00     0.000 C
ATOM     39  O5  GCU B   3       9.713  30.695  -6.9240  0.00  0.00     0.000 O
ATOM     40   O  GCU B   3      11.249  28.857  -4.1430  0.00  0.00     0.000 O
ATOM     42  HD  GCU B   3      11.383  28.119  -3.7090  0.00  0.00     0.000 HD
ATOM     42   O  GCU B   3       8.428  28.428  -3.6690  0.00  0.00     0.000 O
ATOM     44  HD  GCU B   3       8.563  27.691  -3.2360  0.00  0.00     0.000 HD
BRANCH 38 44
ATOM     44   C  GCU B   3       7.583  30.687  -7.9980  0.00  0.00     0.000 C
ATOM     45   O  GCU B   3       7.705  31.920  -8.0500  0.00  0.00     0.000 OA
ATOM     46   O  GCU B   3       6.696  30.090  -8.6370  0.00  0.00     0.000 OA
ENDBRANCH 38 44
BRANCH 34 47
ATOM     47  O3  NAG B   4      11.705  30.913  -6.0400  0.00  0.00     0.000 O
BRANCH 47 50
ATOM     48  C1  NAG B   4      13.533  34.067  -5.3550  0.00  0.00     0.000 C
ATOM     49  C2  NAG B   4      12.898  32.953  -6.1810  0.00  0.00     0.000 C
ATOM     50  C3  NAG B   4      11.896  32.154  -5.3630  0.00  0.00     0.000 C
ATOM     51  C4  NAG B   4      12.348  31.885  -3.9230  0.00  0.00     0.000 C
ATOM     52  C5  NAG B   4      12.589  33.183  -3.1700  0.00  0.00     0.000 C
ATOM     53  O5  NAG B   4      13.272  34.195  -3.9420  0.00  0.00     0.000 O
BRANCH 49 56
ATOM     54   N  NAG B   4      11.843  33.604  -6.9760  0.00  0.00     0.000 N
ATOM     56  HD  NAG B   4      10.997  33.598  -6.7950  0.00  0.00     0.000 HD
ATOM     56   C  NAG B   4      10.805  34.839  -8.7900  0.00  0.00     0.000 C
ATOM     57   O  NAG B   4      13.031  34.103  -8.8490  0.00  0.00     0.000 OA
ATOM     58   C  NAG B   4      11.993  34.139  -8.2050  0.00  0.00     0.000 C
ENDBRANCH 49 56
ATOM     59   O  NAG B   4      13.313  33.975  -0.9460  0.00  0.00     0.000 O
ATOM     61  HD  NAG B   4      13.518  33.760  -1.7600  0.00  0.00     0.000 HD
ATOM     61   O  NAG B   4      13.313  33.975  -0.9460  0.00  0.00     0.000 O
ATOM     63  HD  NAG B   4      13.518  33.760  -1.7600  0.00  0.00     0.000 HD
ENDBRANCH 47 50
ENDBRANCH 34 47
ENDBRANCH 33 37
ENDBRANCH 17 33
ENDBRANCH 16 19
ENDBRANCH 1 16
TORSDOF 10
ENDMDL
MODEL 28
REMARK VINA RESULT:      -7.6      4.443      7.009
ROOT
ATOM      1  C1  GCU B   1       9.622  31.766  -6.0920  0.00  0.00     0.000 C
ATOM      2  C2  GCU B   1      11.137  31.647  -6.1430  0.00  0.00     0.000 C
ATOM      3  C3  GCU B   1      11.786  32.793  -5.3830  0.00  0.00     0.000 C
ATOM      4  C4  GCU B   1      11.224  34.124  -5.8580  0.00  0.00     0.000 C
ATOM      5  C5  GCU B   1       9.695  34.118  -5.8250  0.00  0.00     0.000 C
ATOM      6  O5  GCU B   1       9.212  33.034  -6.6290  0.00  0.00     0.000 O
ATOM      7   O  GCU B   1      11.492  30.394  -5.5680  0.00  0.00     0.000 O
ATOM      9  HD  GCU B   1      11.998  29.791  -5.9290  0.00  0.00     0.000 HD
ATOM      9   O  GCU B   1      13.205  32.776  -5.5610  0.00  0.00     0.000 O
ATOM     11  HD  GCU B   1      13.710  32.172  -5.9220  0.00  0.00     0.000 HD
ATOM     11   O  GCU B   1      11.722  35.163  -5.0130  0.00  0.00     0.000 O
ATOM     13  HD  GCU B   1      12.227  34.559  -5.3750  0.00  0.00     0.000 HD
ENDROOT
BRANCH 5 13
ATOM     13   C  GCU B   1       9.166  35.454  -6.2870  0.00  0.00     0.000 C
ATOM     14   O  GCU B   1       8.736  36.284  -5.4600  0.00  0.00     0.000 OA
ATOM     15   O  GCU B   1       9.205  35.695  -7.5090  0.00  0.00     0.000 OA
ENDBRANCH 5 13
BRANCH 1 16
ATOM     16  O3  NAG B   2       8.738  31.285  -6.9690  0.00  0.00     0.000 O
BRANCH 16 19
ATOM     17  C1  NAG B   2       5.462  29.593  -6.1710  0.00  0.00     0.000 C
ATOM     18  C2  NAG B   2       6.949  29.904  -6.0490  0.00  0.00     0.000 C
ATOM     19  C3  NAG B   2       7.315  31.095  -6.9330  0.00  0.00     0.000 C
ATOM     20  C4  NAG B   2       6.830  30.865  -8.3640  0.00  0.00     0.000 C
ATOM     21  C5  NAG B   2       5.337  30.568  -8.3620  0.00  0.00     0.000 C
ATOM     22  O5  NAG B   2       5.094  29.407  -7.5480  0.00  0.00     0.000 O
ATOM     23   O  NAG B   2       7.125  32.035  -9.1350  0.00  0.00     0.000 O
ATOM     25  HD  NAG B   2       7.567  31.315  -9.3260  0.00  0.00     0.000 HD
ATOM     25   C  NAG B   2       4.778  30.342  -9.7650  0.00  0.00     0.000 C
ATOM     26   O  NAG B   2       5.183  29.073 -10.2990  0.00  0.00     0.000 O
ATOM     28  HD  NAG B   2       5.625  28.353 -10.4900  0.00  0.00     0.000 HD
BRANCH 18 30
ATOM     28   N  NAG B   2       7.525  28.955  -5.1170  0.00  0.00     0.000 N
ATOM     30  HD  NAG B   2       7.496  29.689  -4.6580  0.00  0.00     0.000 HD
ATOM     30   C  NAG B   2       7.996  29.287  -3.9090  0.00  0.00     0.000 C
ATOM     31   C  NAG B   2       8.606  28.196  -3.0740  0.00  0.00     0.000 C
ATOM     32   O  NAG B   2       7.941  30.426  -3.4910  0.00  0.00     0.000 OA
ENDBRANCH 18 30
BRANCH 17 33
ATOM     33  O4  GCU B   3       5.188  28.444  -5.3460  0.00  0.00     0.000 O
BRANCH 33 37
ATOM     34  C1  GCU B   3       1.709  27.272  -3.3830  0.00  0.00     0.000 C
ATOM     35  C2  GCU B   3       1.669  27.357  -4.9090  0.00  0.00     0.000 C
ATOM     36  C3  GCU B   3       3.081  27.372  -5.4540  0.00  0.00     0.000 C
ATOM     37  C4  GCU B   3       3.867  28.502  -4.8050  0.00  0.00     0.000 C
ATOM     38  C5  GCU B   3       3.855  28.332  -3.2850  0.00  0.00     0.000 C
ATOM     39  O5  GCU B   3       2.495  28.335  -2.8370  0.00  0.00     0.000 O
ATOM     40   O  GCU B   3       0.955  26.228  -5.4170  0.00  0.00     0.000 O
ATOM     42  HD  GCU B   3       1.007  25.591  -6.0020  0.00  0.00     0.000 HD
ATOM     42   O  GCU B   3       3.083  27.525  -6.8840  0.00  0.00     0.000 O
ATOM     44  HD  GCU B   3       3.136  26.888  -7.4690  0.00  0.00     0.000 HD
BRANCH 38 44
ATOM     44   C  GCU B   3       4.596  29.434  -2.5700  0.00  0.00     0.000 C
ATOM     45   O  GCU B   3       5.352  29.131  -1.6340  0.00  0.00     0.000 OA
ATOM     46   O  GCU B   3       4.441  30.617  -2.9280  0.00  0.00     0.000 OA
ENDBRANCH 38 44
BRANCH 34 47
ATOM     47  O3  NAG B   4       0.486  27.467  -2.9110  0.00  0.00     0.000 O
BRANCH 47 50
ATOM     48  C1  NAG B   4      -3.198  27.668  -2.5310  0.00  0.00     0.000 C
ATOM     49  C2  NAG B   4      -1.752  28.151  -2.5520  0.00  0.00     0.000 C
ATOM     50  C3  NAG B   4      -0.854  27.192  -3.3160  0.00  0.00     0.000 C
ATOM     51  C4  NAG B   4      -1.170  25.714  -3.0610  0.00  0.00     0.000 C
ATOM     52  C5  NAG B   4      -2.599  25.380  -3.4550  0.00  0.00     0.000 C
ATOM     53  O5  NAG B   4      -3.567  26.381  -3.0680  0.00  0.00     0.000 O
BRANCH 49 56
ATOM     54   N  NAG B   4      -2.120  29.279  -3.4260  0.00  0.00     0.000 N
ATOM     56  HD  NAG B   4      -2.879  29.379  -3.8290  0.00  0.00     0.000 HD
ATOM     56   C  NAG B   4      -1.890  31.336  -4.6930  0.00  0.00     0.000 C
ATOM     57   O  NAG B   4      -0.075  30.235  -3.6960  0.00  0.00     0.000 OA
ATOM     58   C  NAG B   4      -1.281  30.223  -3.8960  0.00  0.00     0.000 C
ENDBRANCH 49 56
ATOM     59   O  NAG B   4      -4.157  23.465  -3.4830  0.00  0.00     0.000 O
ATOM     61  HD  NAG B   4      -3.844  24.159  -3.0720  0.00  0.00     0.000 HD
ATOM     61   O  NAG B   4      -4.157  23.465  -3.4830  0.00  0.00     0.000 O
ATOM     63  HD  NAG B   4      -3.844  24.159  -3.0720  0.00  0.00     0.000 HD
ENDBRANCH 47 50
ENDBRANCH 34 47
ENDBRANCH 33 37
ENDBRANCH 17 33
ENDBRANCH 16 19
ENDBRANCH 1 16
TORSDOF 10
ENDMDL
MODEL 29
REMARK VINA RESULT:      -7.6      4.725      7.462
ROOT
ATOM      1  C1  GCU B   1       9.110  31.414  -6.0760  0.00  0.00     0.000 C
ATOM      2  C2  GCU B   1      10.607  31.157  -5.9930  0.00  0.00     0.000 C
ATOM      3  C3  GCU B   1      11.308  32.316  -5.3020  0.00  0.00     0.000 C
ATOM      4  C4  GCU B   1      10.912  33.633  -5.9510  0.00  0.00     0.000 C
ATOM      5  C5  GCU B   1       9.391  33.765  -6.0410  0.00  0.00     0.000 C
ATOM      6  O5  GCU B   1       8.864  32.648  -6.7690  0.00  0.00     0.000 O
ATOM      7   O  GCU B   1      10.798  29.946  -5.2680  0.00  0.00     0.000 O
ATOM      9  HD  GCU B   1      11.267  29.265  -5.5260  0.00  0.00     0.000 HD
ATOM      9   O  GCU B   1      12.728  32.154  -5.3630  0.00  0.00     0.000 O
ATOM     11  HD  GCU B   1      13.197  31.473  -5.6200  0.00  0.00     0.000 HD
ATOM     11   O  GCU B   1      11.446  34.708  -5.1780  0.00  0.00     0.000 O
ATOM     13  HD  GCU B   1      11.915  34.027  -5.4360  0.00  0.00     0.000 HD
ENDROOT
BRANCH 5 13
ATOM     13   C  GCU B   1       9.027  35.086  -6.6770  0.00  0.00     0.000 C
ATOM     14   O  GCU B   1       8.991  35.200  -7.9190  0.00  0.00     0.000 OA
ATOM     15   O  GCU B   1       8.743  36.030  -5.9150  0.00  0.00     0.000 OA
ENDBRANCH 5 13
BRANCH 1 16
ATOM     16  O3  NAG B   2       8.248  30.922  -6.9690  0.00  0.00     0.000 O
BRANCH 16 19
ATOM     17  C1  NAG B   2       4.953  29.215  -6.2940  0.00  0.00     0.000 C
ATOM     18  C2  NAG B   2       6.437  29.517  -6.1320  0.00  0.00     0.000 C
ATOM     19  C3  NAG B   2       6.824  30.736  -6.9680  0.00  0.00     0.000 C
ATOM     20  C4  NAG B   2       6.368  30.556  -8.4150  0.00  0.00     0.000 C
ATOM     21  C5  NAG B   2       4.874  30.265  -8.4520  0.00  0.00     0.000 C
ATOM     22  O5  NAG B   2       4.612  29.077  -7.6830  0.00  0.00     0.000 O
ATOM     23   O  NAG B   2       6.681  31.751  -9.1400  0.00  0.00     0.000 O
ATOM     25  HD  NAG B   2       7.124  31.036  -9.3460  0.00  0.00     0.000 HD
ATOM     25   C  NAG B   2       4.342  30.088  -9.8730  0.00  0.00     0.000 C
ATOM     26   O  NAG B   2       4.755  28.836 -10.4420  0.00  0.00     0.000 O
ATOM     28  HD  NAG B   2       5.198  28.122 -10.6490  0.00  0.00     0.000 HD
BRANCH 18 30
ATOM     28   N  NAG B   2       6.468  29.431  -4.6850  0.00  0.00     0.000 N
ATOM     30  HD  NAG B   2       7.231  29.096  -4.9190  0.00  0.00     0.000 HD
ATOM     30   C  NAG B   2       7.440  28.824  -3.9940  0.00  0.00     0.000 C
ATOM     31   C  NAG B   2       7.308  28.779  -2.4970  0.00  0.00     0.000 C
ATOM     32   O  NAG B   2       8.399  28.320  -4.5440  0.00  0.00     0.000 OA
ENDBRANCH 18 30
BRANCH 17 33
ATOM     33  O4  GCU B   3       4.660  28.039  -5.5140  0.00  0.00     0.000 O
BRANCH 33 37
ATOM     34  C1  GCU B   3       1.063  26.711  -3.8920  0.00  0.00     0.000 C
ATOM     35  C2  GCU B   3       1.435  26.220  -5.2920  0.00  0.00     0.000 C
ATOM     36  C3  GCU B   3       2.913  26.442  -5.5310  0.00  0.00     0.000 C
ATOM     37  C4  GCU B   3       3.255  27.906  -5.2930  0.00  0.00     0.000 C
ATOM     38  C5  GCU B   3       2.851  28.305  -3.8720  0.00  0.00     0.000 C
ATOM     39  O5  GCU B   3       1.446  28.078  -3.7170  0.00  0.00     0.000 O
ATOM     40   O  GCU B   3       1.121  24.829  -5.3940  0.00  0.00     0.000 O
ATOM     42  HD  GCU B   3       1.456  24.068  -5.6340  0.00  0.00     0.000 HD
ATOM     42   O  GCU B   3       3.285  26.058  -6.8670  0.00  0.00     0.000 O
ATOM     44  HD  GCU B   3       3.620  25.297  -7.1080  0.00  0.00     0.000 HD
BRANCH 38 44
ATOM     44   C  GCU B   3       3.137  29.754  -3.5710  0.00  0.00     0.000 C
ATOM     45   O  GCU B   3       3.959  30.025  -2.6820  0.00  0.00     0.000 OA
ATOM     46   O  GCU B   3       2.552  30.646  -4.2140  0.00  0.00     0.000 OA
ENDBRANCH 38 44
BRANCH 34 47
ATOM     47  O3  NAG B   4      -0.257  26.702  -3.7730  0.00  0.00     0.000 O
BRANCH 47 50
ATOM     48  C1  NAG B   4      -3.054  24.953  -2.0780  0.00  0.00     0.000 C
ATOM     49  C2  NAG B   4      -1.724  25.116  -2.8060  0.00  0.00     0.000 C
ATOM     50  C3  NAG B   4      -1.218  26.547  -2.7300  0.00  0.00     0.000 C
ATOM     51  C4  NAG B   4      -2.321  27.600  -2.8930  0.00  0.00     0.000 C
ATOM     52  C5  NAG B   4      -3.383  27.457  -1.8160  0.00  0.00     0.000 C
ATOM     53  O5  NAG B   4      -3.756  26.090  -1.5340  0.00  0.00     0.000 O
BRANCH 49 56
ATOM     54   N  NAG B   4      -0.892  24.523  -1.7440  0.00  0.00     0.000 N
ATOM     56  HD  NAG B   4      -0.846  24.798  -0.9240  0.00  0.00     0.000 HD
ATOM     56   C  NAG B   4       0.729  23.061  -0.6810  0.00  0.00     0.000 C
ATOM     57   O  NAG B   4       0.421  23.160  -3.0040  0.00  0.00     0.000 OA
ATOM     58   C  NAG B   4       0.072  23.596  -1.9170  0.00  0.00     0.000 C
ENDBRANCH 49 56
ATOM     59   O  NAG B   4      -5.508  28.491  -1.1040  0.00  0.00     0.000 O
ATOM     61  HD  NAG B   4      -5.098  27.881  -1.5610  0.00  0.00     0.000 HD
ATOM     61   O  NAG B   4      -5.508  28.491  -1.1040  0.00  0.00     0.000 O
ATOM     63  HD  NAG B   4      -5.098  27.881  -1.5610  0.00  0.00     0.000 HD
ENDBRANCH 47 50
ENDBRANCH 34 47
ENDBRANCH 33 37
ENDBRANCH 17 33
ENDBRANCH 16 19
ENDBRANCH 1 16
TORSDOF 10
ENDMDL
MODEL 30
REMARK VINA RESULT:      -7.6      4.928      8.452
ROOT
ATOM      1  C1  GCU B   1      11.008  31.777  -3.7030  0.00  0.00     0.000 C
ATOM      2  C2  GCU B   1      12.131  31.038  -2.9920  0.00  0.00     0.000 C
ATOM      3  C3  GCU B   1      12.728  31.905  -1.8940  0.00  0.00     0.000 C
ATOM      4  C4  GCU B   1      13.099  33.272  -2.4480  0.00  0.00     0.000 C
ATOM      5  C5  GCU B   1      11.922  33.902  -3.1940  0.00  0.00     0.000 C
ATOM      6  O5  GCU B   1      11.500  33.015  -4.2390  0.00  0.00     0.000 O
ATOM      7   O  GCU B   1      11.586  29.840  -2.4490  0.00  0.00     0.000 O
ATOM      9  HD  GCU B   1      11.894  29.039  -2.5650  0.00  0.00     0.000 HD
ATOM      9   O  GCU B   1      13.884  31.280  -1.3310  0.00  0.00     0.000 O
ATOM     11  HD  GCU B   1      14.193  30.480  -1.4470  0.00  0.00     0.000 HD
ATOM     11   O  GCU B   1      13.493  34.116  -1.3660  0.00  0.00     0.000 O
ATOM     13  HD  GCU B   1      13.802  33.316  -1.4820  0.00  0.00     0.000 HD
ENDROOT
BRANCH 5 13
ATOM     13   C  GCU B   1      12.315  35.262  -3.7200  0.00  0.00     0.000 C
ATOM     14   O  GCU B   1      11.577  36.250  -3.5270  0.00  0.00     0.000 OA
ATOM     15   O  GCU B   1      13.404  35.353  -4.3180  0.00  0.00     0.000 OA
ENDBRANCH 5 13
BRANCH 1 16
ATOM     16  O3  NAG B   2      10.572  31.590  -4.9510  0.00  0.00     0.000 O
BRANCH 16 19
ATOM     17  C1  NAG B   2       7.327  30.269  -6.3480  0.00  0.00     0.000 C
ATOM     18  C2  NAG B   2       8.614  30.256  -5.5320  0.00  0.00     0.000 C
ATOM     19  C3  NAG B   2       9.273  31.634  -5.5600  0.00  0.00     0.000 C
ATOM     20  C4  NAG B   2       9.439  32.116  -7.0010  0.00  0.00     0.000 C
ATOM     21  C5  NAG B   2       8.094  32.090  -7.7120  0.00  0.00     0.000 C
ATOM     22  O5  NAG B   2       7.575  30.749  -7.6790  0.00  0.00     0.000 O
ATOM     23   O  NAG B   2       9.987  33.439  -6.9740  0.00  0.00     0.000 O
ATOM     25  HD  NAG B   2      10.493  32.808  -7.2820  0.00  0.00     0.000 HD
ATOM     25   C  NAG B   2       8.181  32.576  -9.1570  0.00  0.00     0.000 C
ATOM     26   O  NAG B   2       8.819  31.608 -10.0040  0.00  0.00     0.000 O
ATOM     28  HD  NAG B   2       9.325  30.978 -10.3130  0.00  0.00     0.000 HD
BRANCH 18 30
ATOM     28   N  NAG B   2       8.673  28.909  -4.9970  0.00  0.00     0.000 N
ATOM     30  HD  NAG B   2       8.566  29.398  -4.2900  0.00  0.00     0.000 HD
ATOM     30   C  NAG B   2       8.692  28.626  -3.6890  0.00  0.00     0.000 C
ATOM     31   C  NAG B   2       8.800  27.181  -3.2900  0.00  0.00     0.000 C
ATOM     32   O  NAG B   2       8.628  29.497  -2.8440  0.00  0.00     0.000 OA
ENDBRANCH 18 30
BRANCH 17 33
ATOM     33  O4  GCU B   3       6.775  28.938  -6.3130  0.00  0.00     0.000 O
BRANCH 33 37
ATOM     34  C1  GCU B   3       2.830  27.616  -6.1690  0.00  0.00     0.000 C
ATOM     35  C2  GCU B   3       3.360  28.125  -7.5100  0.00  0.00     0.000 C
ATOM     36  C3  GCU B   3       4.873  28.151  -7.4800  0.00  0.00     0.000 C
ATOM     37  C4  GCU B   3       5.347  28.974  -6.2920  0.00  0.00     0.000 C
ATOM     38  C5  GCU B   3       4.772  28.392  -4.9990  0.00  0.00     0.000 C
ATOM     39  O5  GCU B   3       3.343  28.404  -5.0910  0.00  0.00     0.000 O
ATOM     40   O  GCU B   3       2.900  27.257  -8.5480  0.00  0.00     0.000 O
ATOM     42  HD  GCU B   3       3.175  26.804  -9.2340  0.00  0.00     0.000 HD
ATOM     42   O  GCU B   3       5.406  28.693  -8.7020  0.00  0.00     0.000 O
ATOM     44  HD  GCU B   3       5.680  28.241  -9.3880  0.00  0.00     0.000 HD
BRANCH 38 44
ATOM     44   C  GCU B   3       5.179  29.174  -3.7760  0.00  0.00     0.000 C
ATOM     45   O  GCU B   3       5.219  30.412  -3.8490  0.00  0.00     0.000 OA
ATOM     46   O  GCU B   3       5.463  28.571  -2.7230  0.00  0.00     0.000 OA
ENDBRANCH 38 44
BRANCH 34 47
ATOM     47  O3  NAG B   4       1.517  27.793  -6.1330  0.00  0.00     0.000 O
BRANCH 47 50
ATOM     48  C1  NAG B   4      -1.877  26.298  -6.1790  0.00  0.00     0.000 C
ATOM     49  C2  NAG B   4      -0.448  26.571  -6.6350  0.00  0.00     0.000 C
ATOM     50  C3  NAG B   4       0.388  27.174  -5.5180  0.00  0.00     0.000 C
ATOM     51  C4  NAG B   4      -0.363  28.210  -4.6740  0.00  0.00     0.000 C
ATOM     52  C5  NAG B   4      -1.591  27.600  -4.0170  0.00  0.00     0.000 C
ATOM     53  O5  NAG B   4      -2.344  26.719  -4.8790  0.00  0.00     0.000 O
BRANCH 49 56
ATOM     54   N  NAG B   4       0.012  25.175  -6.5410  0.00  0.00     0.000 N
ATOM     56  HD  NAG B   4      -0.018  24.679  -5.8310  0.00  0.00     0.000 HD
ATOM     56   C  NAG B   4       1.005  23.063  -7.2100  0.00  0.00     0.000 C
ATOM     57   O  NAG B   4       1.139  25.012  -8.5080  0.00  0.00     0.000 OA
ATOM     58   C  NAG B   4       0.728  24.512  -7.4720  0.00  0.00     0.000 C
ENDBRANCH 49 56
ATOM     59   O  NAG B   4      -3.467  28.242  -2.5470  0.00  0.00     0.000 O
ATOM     61  HD  NAG B   4      -3.156  28.135  -3.3480  0.00  0.00     0.000 HD
ATOM     61   O  NAG B   4      -3.467  28.242  -2.5470  0.00  0.00     0.000 O
ATOM     63  HD  NAG B   4      -3.156  28.135  -3.3480  0.00  0.00     0.000 HD
ENDBRANCH 47 50
ENDBRANCH 34 47
ENDBRANCH 33 37
ENDBRANCH 17 33
ENDBRANCH 16 19
ENDBRANCH 1 16
TORSDOF 10
ENDMDL
MODEL 31
REMARK VINA RESULT:      -7.6      4.405     12.120
ROOT
ATOM      1  C1  GCU B   1       4.887  30.445  -7.2220  0.00  0.00     0.000 C
ATOM      2  C2  GCU B   1       3.643  29.592  -7.4160  0.00  0.00     0.000 C
ATOM      3  C3  GCU B   1       2.684  29.778  -6.2510  0.00  0.00     0.000 C
ATOM      4  C4  GCU B   1       3.413  29.571  -4.9320  0.00  0.00     0.000 C
ATOM      5  C5  GCU B   1       4.679  30.426  -4.8630  0.00  0.00     0.000 C
ATOM      6  O5  GCU B   1       5.522  30.108  -5.9780  0.00  0.00     0.000 O
ATOM      7   O  GCU B   1       3.032  29.989  -8.6400  0.00  0.00     0.000 O
ATOM      9  HD  GCU B   1       2.805  29.465  -9.2910  0.00  0.00     0.000 HD
ATOM      9   O  GCU B   1       1.589  28.863  -6.3470  0.00  0.00     0.000 O
ATOM     11  HD  GCU B   1       1.362  28.339  -6.9980  0.00  0.00     0.000 HD
ATOM     11   O  GCU B   1       2.536  29.918  -3.8600  0.00  0.00     0.000 O
ATOM     13  HD  GCU B   1       2.308  29.394  -4.5110  0.00  0.00     0.000 HD
ENDROOT
BRANCH 5 13
ATOM     13   C  GCU B   1       5.373  30.210  -3.5400  0.00  0.00     0.000 C
ATOM     14   O  GCU B   1       5.054  30.889  -2.5420  0.00  0.00     0.000 OA
ATOM     15   O  GCU B   1       6.243  29.319  -3.4870  0.00  0.00     0.000 OA
ENDBRANCH 5 13
BRANCH 1 16
ATOM     16  O3  NAG B   2       6.106  30.231  -7.7220  0.00  0.00     0.000 O
BRANCH 16 19
ATOM     17  C1  NAG B   2       8.477  32.357  -9.7430  0.00  0.00     0.000 C
ATOM     18  C2  NAG B   2       7.188  31.613  -9.4170  0.00  0.00     0.000 C
ATOM     19  C3  NAG B   2       7.230  31.085  -7.9840  0.00  0.00     0.000 C
ATOM     20  C4  NAG B   2       8.506  30.277  -7.7510  0.00  0.00     0.000 C
ATOM     21  C5  NAG B   2       9.722  31.121  -8.1050  0.00  0.00     0.000 C
ATOM     22  O5  NAG B   2       9.621  31.529  -9.4810  0.00  0.00     0.000 O
ATOM     23   O  NAG B   2       8.538  29.871  -6.3780  0.00  0.00     0.000 O
ATOM     25  HD  NAG B   2       8.430  29.250  -6.9720  0.00  0.00     0.000 HD
ATOM     25   C  NAG B   2      11.039  30.381  -7.8810  0.00  0.00     0.000 C
ATOM     26   O  NAG B   2      11.258  29.372  -8.8800  0.00  0.00     0.000 O
ATOM     28  HD  NAG B   2      11.149  28.751  -9.4730  0.00  0.00     0.000 HD
BRANCH 18 30
ATOM     28   N  NAG B   2       6.367  32.611 -10.0770  0.00  0.00     0.000 N
ATOM     30  HD  NAG B   2       5.867  31.904 -10.0890  0.00  0.00     0.000 HD
ATOM     30   C  NAG B   2       5.190  32.344 -10.6560  0.00  0.00     0.000 C
ATOM     31   C  NAG B   2       4.478  33.477 -11.3400  0.00  0.00     0.000 C
ATOM     32   O  NAG B   2       4.706  31.230 -10.6390  0.00  0.00     0.000 OA
ENDBRANCH 18 30
BRANCH 17 33
ATOM     33  O4  GCU B   3       8.391  32.797 -11.1140  0.00  0.00     0.000 O
BRANCH 33 37
ATOM     34  C1  GCU B   3       9.937  36.255 -12.8400  0.00  0.00     0.000 C
ATOM     35  C2  GCU B   3      10.654  34.936 -13.1290  0.00  0.00     0.000 C
ATOM     36  C3  GCU B   3       9.739  33.777 -12.7940  0.00  0.00     0.000 C
ATOM     37  C4  GCU B   3       9.262  33.903 -11.3540  0.00  0.00     0.000 C
ATOM     38  C5  GCU B   3       8.557  35.248 -11.1610  0.00  0.00     0.000 C
ATOM     39  O5  GCU B   3       9.477  36.295 -11.4860  0.00  0.00     0.000 O
ATOM     40   O  GCU B   3      11.014  34.897 -14.5120  0.00  0.00     0.000 O
ATOM     42  HD  GCU B   3      10.972  34.396 -15.2160  0.00  0.00     0.000 HD
ATOM     42   O  GCU B   3      10.408  32.517 -12.9850  0.00  0.00     0.000 O
ATOM     44  HD  GCU B   3      10.365  32.016 -13.6890  0.00  0.00     0.000 HD
BRANCH 38 44
ATOM     44   C  GCU B   3       8.077  35.455  -9.7470  0.00  0.00     0.000 C
ATOM     45   O  GCU B   3       8.919  35.630  -8.8530  0.00  0.00     0.000 OA
ATOM     46   O  GCU B   3       6.855  35.452  -9.5020  0.00  0.00     0.000 OA
ENDBRANCH 38 44
BRANCH 34 47
ATOM     47  O3  NAG B   4      10.811  37.247 -12.9400  0.00  0.00     0.000 O
BRANCH 47 50
ATOM     48  C1  NAG B   4      11.576  40.761 -13.8440  0.00  0.00     0.000 C
ATOM     49  C2  NAG B   4      11.066  39.336 -14.0240  0.00  0.00     0.000 C
ATOM     50  C3  NAG B   4      10.842  38.650 -12.6860  0.00  0.00     0.000 C
ATOM     51  C4  NAG B   4      11.928  38.955 -11.6470  0.00  0.00     0.000 C
ATOM     52  C5  NAG B   4      12.015  40.446 -11.3630  0.00  0.00     0.000 C
ATOM     53  O5  NAG B   4      11.918  41.277 -12.5400  0.00  0.00     0.000 O
BRANCH 49 56
ATOM     54   N  NAG B   4       9.635  39.576 -14.2800  0.00  0.00     0.000 N
ATOM     56  HD  NAG B   4       9.030  39.721 -13.6770  0.00  0.00     0.000 HD
ATOM     56   C  NAG B   4       7.560  39.811 -15.5170  0.00  0.00     0.000 C
ATOM     57   O  NAG B   4       9.537  38.989 -16.4740  0.00  0.00     0.000 OA
ATOM     58   C  NAG B   4       9.003  39.415 -15.4600  0.00  0.00     0.000 C
ENDBRANCH 49 56
ATOM     59   O  NAG B   4      13.306  42.039  -9.9880  0.00  0.00     0.000 O
ATOM     61  HD  NAG B   4      13.203  41.623 -10.7410  0.00  0.00     0.000 HD
ATOM     61   O  NAG B   4      13.306  42.039  -9.9880  0.00  0.00     0.000 O
ATOM     63  HD  NAG B   4      13.203  41.623 -10.7410  0.00  0.00     0.000 HD
ENDBRANCH 47 50
ENDBRANCH 34 47
ENDBRANCH 33 37
ENDBRANCH 17 33
ENDBRANCH 16 19
ENDBRANCH 1 16
TORSDOF 10
ENDMDL
MODEL 32
REMARK VINA RESULT:      -7.5      4.602      7.334
ROOT
ATOM      1  C1  GCU B   1       9.566  31.469  -6.1350  0.00  0.00     0.000 C
ATOM      2  C2  GCU B   1      11.073  31.303  -6.2570  0.00  0.00     0.000 C
ATOM      3  C3  GCU B   1      11.793  32.409  -5.5000  0.00  0.00     0.000 C
ATOM      4  C4  GCU B   1      11.254  33.769  -5.9180  0.00  0.00     0.000 C
ATOM      5  C5  GCU B   1       9.728  33.810  -5.8180  0.00  0.00     0.000 C
ATOM      6  O5  GCU B   1       9.176  32.762  -6.6250  0.00  0.00     0.000 O
ATOM      7   O  GCU B   1      11.412  30.026  -5.7270  0.00  0.00     0.000 O
ATOM      9  HD  GCU B   1      11.881  29.416  -6.1240  0.00  0.00     0.000 HD
ATOM      9   O  GCU B   1      13.201  32.351  -5.7420  0.00  0.00     0.000 O
ATOM     11  HD  GCU B   1      13.670  31.741  -6.1390  0.00  0.00     0.000 HD
ATOM     11   O  GCU B   1      11.822  34.770  -5.0730  0.00  0.00     0.000 O
ATOM     13  HD  GCU B   1      12.291  34.160  -5.4710  0.00  0.00     0.000 HD
ENDROOT
BRANCH 5 13
ATOM     13   C  GCU B   1       9.224  35.174  -6.2250  0.00  0.00     0.000 C
ATOM     14   O  GCU B   1       8.736  35.354  -7.3600  0.00  0.00     0.000 OA
ATOM     15   O  GCU B   1       9.290  36.087  -5.3790  0.00  0.00     0.000 OA
ENDBRANCH 5 13
BRANCH 1 16
ATOM     16  O3  NAG B   2       8.630  31.038  -6.9830  0.00  0.00     0.000 O
BRANCH 16 19
ATOM     17  C1  NAG B   2       5.455  29.194  -6.1190  0.00  0.00     0.000 C
ATOM     18  C2  NAG B   2       6.940  29.529  -6.0770  0.00  0.00     0.000 C
ATOM     19  C3  NAG B   2       7.217  30.810  -6.8610  0.00  0.00     0.000 C
ATOM     20  C4  NAG B   2       6.628  30.712  -8.2680  0.00  0.00     0.000 C
ATOM     21  C5  NAG B   2       5.145  30.380  -8.1840  0.00  0.00     0.000 C
ATOM     22  O5  NAG B   2       4.986  29.137  -7.4750  0.00  0.00     0.000 O
ATOM     23   O  NAG B   2       6.843  31.960  -8.9350  0.00  0.00     0.000 O
ATOM     25  HD  NAG B   2       7.281  31.274  -9.2310  0.00  0.00     0.000 HD
ATOM     25   C  NAG B   2       4.484  30.281  -9.5560  0.00  0.00     0.000 C
ATOM     26   O  NAG B   2       4.869  29.081 -10.2460  0.00  0.00     0.000 O
ATOM     28  HD  NAG B   2       5.307  28.395 -10.5410  0.00  0.00     0.000 HD
BRANCH 18 30
ATOM     28   N  NAG B   2       7.125  29.372  -4.6470  0.00  0.00     0.000 N
ATOM     30  HD  NAG B   2       7.856  29.045  -4.9770  0.00  0.00     0.000 HD
ATOM     30   C  NAG B   2       8.160  28.727  -4.0940  0.00  0.00     0.000 C
ATOM     31   C  NAG B   2       8.188  28.610  -2.5960  0.00  0.00     0.000 C
ATOM     32   O  NAG B   2       9.049  28.246  -4.7680  0.00  0.00     0.000 OA
ENDBRANCH 18 30
BRANCH 17 33
ATOM     33  O4  GCU B   3       5.265  27.961  -5.3960  0.00  0.00     0.000 O
BRANCH 33 37
ATOM     34  C1  GCU B   3       1.906  26.469  -3.4400  0.00  0.00     0.000 C
ATOM     35  C2  GCU B   3       2.087  26.109  -4.9150  0.00  0.00     0.000 C
ATOM     36  C3  GCU B   3       3.522  26.362  -5.3270  0.00  0.00     0.000 C
ATOM     37  C4  GCU B   3       3.901  27.801  -5.0040  0.00  0.00     0.000 C
ATOM     38  C5  GCU B   3       3.691  28.066  -3.5120  0.00  0.00     0.000 C
ATOM     39  O5  GCU B   3       2.317  27.817  -3.1940  0.00  0.00     0.000 O
ATOM     40   O  GCU B   3       1.755  24.732  -5.1000  0.00  0.00     0.000 O
ATOM     42  HD  GCU B   3       2.051  23.997  -5.4510  0.00  0.00     0.000 HD
ATOM     42   O  GCU B   3       3.712  26.103  -6.7290  0.00  0.00     0.000 O
ATOM     44  HD  GCU B   3       4.008  25.368  -7.0800  0.00  0.00     0.000 HD
BRANCH 38 44
ATOM     44   C  GCU B   3       4.022  29.484  -3.1210  0.00  0.00     0.000 C
ATOM     45   O  GCU B   3       3.361  30.408  -3.6190  0.00  0.00     0.000 OA
ATOM     46   O  GCU B   3       4.943  29.702  -2.3110  0.00  0.00     0.000 OA
ENDBRANCH 38 44
BRANCH 34 47
ATOM     47  O3  NAG B   4       0.614  26.441  -3.1490  0.00  0.00     0.000 O
BRANCH 47 50
ATOM     48  C1  NAG B   4      -2.090  27.434  -5.4860  0.00  0.00     0.000 C
ATOM     49  C2  NAG B   4      -1.133  26.506  -4.7460  0.00  0.00     0.000 C
ATOM     50  C3  NAG B   4      -0.560  27.170  -3.5040  0.00  0.00     0.000 C
ATOM     51  C4  NAG B   4      -0.202  28.647  -3.7030  0.00  0.00     0.000 C
ATOM     52  C5  NAG B   4      -1.421  29.460  -4.1080  0.00  0.00     0.000 C
ATOM     53  O5  NAG B   4      -2.269  28.807  -5.0790  0.00  0.00     0.000 O
BRANCH 49 56
ATOM     54   N  NAG B   4      -2.220  25.683  -4.1870  0.00  0.00     0.000 N
ATOM     56  HD  NAG B   4      -2.963  25.982  -3.8590  0.00  0.00     0.000 HD
ATOM     56   C  NAG B   4      -3.415  23.707  -3.4390  0.00  0.00     0.000 C
ATOM     57   O  NAG B   4      -1.150  23.682  -4.0490  0.00  0.00     0.000 OA
ATOM     58   C  NAG B   4      -2.155  24.364  -3.9140  0.00  0.00     0.000 C
ENDBRANCH 49 56
ATOM     59   O  NAG B   4      -2.044  31.777  -4.6890  0.00  0.00     0.000 O
ATOM     61  HD  NAG B   4      -1.791  30.990  -4.9490  0.00  0.00     0.000 HD
ATOM     61   O  NAG B   4      -2.044  31.777  -4.6890  0.00  0.00     0.000 O
ATOM     63  HD  NAG B   4      -1.791  30.990  -4.9490  0.00  0.00     0.000 HD
ENDBRANCH 47 50
ENDBRANCH 34 47
ENDBRANCH 33 37
ENDBRANCH 17 33
ENDBRANCH 16 19
ENDBRANCH 1 16
TORSDOF 10
ENDMDL
MODEL 33
REMARK VINA RESULT:      -7.5      5.400     11.927
ROOT
ATOM      1  C1  GCU B   1       5.007  30.501  -8.1380  0.00  0.00     0.000 C
ATOM      2  C2  GCU B   1       4.113  29.595  -8.9700  0.00  0.00     0.000 C
ATOM      3  C3  GCU B   1       2.731  29.491  -8.3430  0.00  0.00     0.000 C
ATOM      4  C4  GCU B   1       2.848  29.114  -6.8740  0.00  0.00     0.000 C
ATOM      5  C5  GCU B   1       3.815  30.046  -6.1420  0.00  0.00     0.000 C
ATOM      6  O5  GCU B   1       5.092  30.002  -6.7930  0.00  0.00     0.000 O
ATOM      7   O  GCU B   1       4.032  30.151 -10.2780  0.00  0.00     0.000 O
ATOM      9  HD  GCU B   1       4.188  29.734 -11.0210  0.00  0.00     0.000 HD
ATOM      9   O  GCU B   1       1.938  28.520  -9.0300  0.00  0.00     0.000 O
ATOM     11  HD  GCU B   1       2.094  28.103  -9.7730  0.00  0.00     0.000 HD
ATOM     11   O  GCU B   1       1.555  29.191  -6.2730  0.00  0.00     0.000 O
ATOM     13  HD  GCU B   1       1.711  28.774  -7.0160  0.00  0.00     0.000 HD
ENDROOT
BRANCH 5 13
ATOM     13   C  GCU B   1       3.901  29.657  -4.6860  0.00  0.00     0.000 C
ATOM     14   O  GCU B   1       4.766  28.845  -4.2990  0.00  0.00     0.000 OA
ATOM     15   O  GCU B   1       3.099  30.198  -3.9000  0.00  0.00     0.000 OA
ENDBRANCH 5 13
BRANCH 1 16
ATOM     16  O3  NAG B   2       6.340  30.481  -8.0620  0.00  0.00     0.000 O
BRANCH 16 19
ATOM     17  C1  NAG B   2       9.040  32.933  -9.0230  0.00  0.00     0.000 C
ATOM     18  C2  NAG B   2       7.856  31.996  -9.2280  0.00  0.00     0.000 C
ATOM     19  C3  NAG B   2       7.334  31.501  -7.8800  0.00  0.00     0.000 C
ATOM     20  C4  NAG B   2       8.474  30.912  -7.0510  0.00  0.00     0.000 C
ATOM     21  C5  NAG B   2       9.592  31.935  -6.9110  0.00  0.00     0.000 C
ATOM     22  O5  NAG B   2      10.053  32.303  -8.2230  0.00  0.00     0.000 O
ATOM     23   O  NAG B   2       7.954  30.534  -5.7720  0.00  0.00     0.000 O
ATOM     25  HD  NAG B   2       8.205  29.896  -6.3000  0.00  0.00     0.000 HD
ATOM     25   C  NAG B   2      10.764  31.419  -6.0780  0.00  0.00     0.000 C
ATOM     26   O  NAG B   2      11.537  30.446  -6.7960  0.00  0.00     0.000 O
ATOM     28  HD  NAG B   2      11.789  29.807  -7.3240  0.00  0.00     0.000 HD
BRANCH 18 30
ATOM     28   N  NAG B   2       7.069  32.823 -10.1230  0.00  0.00     0.000 N
ATOM     30  HD  NAG B   2       7.000  32.033 -10.4710  0.00  0.00     0.000 HD
ATOM     30   C  NAG B   2       6.530  32.381 -11.2660  0.00  0.00     0.000 C
ATOM     31   C  NAG B   2       5.777  33.370 -12.1100  0.00  0.00     0.000 C
ATOM     32   O  NAG B   2       6.641  31.224 -11.6220  0.00  0.00     0.000 OA
ENDBRANCH 18 30
BRANCH 17 33
ATOM     33  O4  GCU B   3       9.508  33.335 -10.3270  0.00  0.00     0.000 O
BRANCH 33 37
ATOM     34  C1  GCU B   3      11.792  36.608 -11.5100  0.00  0.00     0.000 C
ATOM     35  C2  GCU B   3      12.444  35.588 -10.5750  0.00  0.00     0.000 C
ATOM     36  C3  GCU B   3      11.652  34.298 -10.6010  0.00  0.00     0.000 C
ATOM     37  C4  GCU B   3      10.196  34.585 -10.2620  0.00  0.00     0.000 C
ATOM     38  C5  GCU B   3       9.630  35.610 -11.2480  0.00  0.00     0.000 C
ATOM     39  O5  GCU B   3      10.417  36.803 -11.1660  0.00  0.00     0.000 O
ATOM     40   O  GCU B   3      13.785  35.354 -11.0090  0.00  0.00     0.000 O
ATOM     42  HD  GCU B   3      14.343  34.718 -11.1970  0.00  0.00     0.000 HD
ATOM     42   O  GCU B   3      12.195  33.339  -9.6770  0.00  0.00     0.000 O
ATOM     44  HD  GCU B   3      12.752  32.703  -9.8660  0.00  0.00     0.000 HD
BRANCH 38 44
ATOM     44   C  GCU B   3       8.193  35.964 -10.9580  0.00  0.00     0.000 C
ATOM     45   O  GCU B   3       7.471  36.331 -11.8980  0.00  0.00     0.000 OA
ATOM     46   O  GCU B   3       7.759  35.880  -9.7940  0.00  0.00     0.000 OA
ENDBRANCH 38 44
BRANCH 34 47
ATOM     47  O3  NAG B   4      12.367  37.788 -11.3220  0.00  0.00     0.000 O
BRANCH 47 50
ATOM     48  C1  NAG B   4      13.242  41.143 -10.0050  0.00  0.00     0.000 C
ATOM     49  C2  NAG B   4      12.707  40.106 -10.9880  0.00  0.00     0.000 C
ATOM     50  C3  NAG B   4      12.421  38.781 -10.3000  0.00  0.00     0.000 C
ATOM     51  C4  NAG B   4      13.476  38.385  -9.2600  0.00  0.00     0.000 C
ATOM     52  C5  NAG B   4      13.586  39.430  -8.1620  0.00  0.00     0.000 C
ATOM     53  O5  NAG B   4      13.549  40.793  -8.6390  0.00  0.00     0.000 O
BRANCH 49 56
ATOM     54   N  NAG B   4      11.356  40.692 -11.0420  0.00  0.00     0.000 N
ATOM     56  HD  NAG B   4      10.880  40.930 -10.3590  0.00  0.00     0.000 HD
ATOM     56   C  NAG B   4       9.267  41.495 -11.9820  0.00  0.00     0.000 C
ATOM     57   O  NAG B   4      10.860  40.306 -13.2260  0.00  0.00     0.000 OA
ATOM     58   C  NAG B   4      10.569  40.769 -12.1340  0.00  0.00     0.000 C
ENDBRANCH 49 56
ATOM     59   O  NAG B   4      14.863  39.879  -6.0970  0.00  0.00     0.000 O
ATOM     61  HD  NAG B   4      14.778  39.982  -6.9530  0.00  0.00     0.000 HD
ATOM     61   O  NAG B   4      14.863  39.879  -6.0970  0.00  0.00     0.000 O
ATOM     63  HD  NAG B   4      14.778  39.982  -6.9530  0.00  0.00     0.000 HD
ENDBRANCH 47 50
ENDBRANCH 34 47
ENDBRANCH 33 37
ENDBRANCH 17 33
ENDBRANCH 16 19
ENDBRANCH 1 16
TORSDOF 10
ENDMDL
MODEL 34
REMARK VINA RESULT:      -7.5      3.898     11.657
ROOT
ATOM      1  C1  GCU B   1       0.850  27.736  -5.7750  0.00  0.00     0.000 C
ATOM      2  C2  GCU B   1       0.282  26.335  -5.9500  0.00  0.00     0.000 C
ATOM      3  C3  GCU B   1      -1.201  26.400  -6.2800  0.00  0.00     0.000 C
ATOM      4  C4  GCU B   1      -1.928  27.273  -5.2680  0.00  0.00     0.000 C
ATOM      5  C5  GCU B   1      -1.243  28.633  -5.1240  0.00  0.00     0.000 C
ATOM      6  O5  GCU B   1       0.126  28.432  -4.7480  0.00  0.00     0.000 O
ATOM      7   O  GCU B   1       1.006  25.703  -7.0000  0.00  0.00     0.000 O
ATOM      9  HD  GCU B   1       1.393  24.929  -6.9600  0.00  0.00     0.000 HD
ATOM      9   O  GCU B   1      -1.773  25.090  -6.2880  0.00  0.00     0.000 O
ATOM     11  HD  GCU B   1      -1.386  24.316  -6.2480  0.00  0.00     0.000 HD
ATOM     11   O  GCU B   1      -3.277  27.454  -5.7000  0.00  0.00     0.000 O
ATOM     13  HD  GCU B   1      -2.889  26.681  -5.6590  0.00  0.00     0.000 HD
ENDROOT
BRANCH 5 13
ATOM     13   C  GCU B   1      -1.992  29.482  -4.1250  0.00  0.00     0.000 C
ATOM     14   O  GCU B   1      -2.334  29.006  -3.0220  0.00  0.00     0.000 OA
ATOM     15   O  GCU B   1      -2.224  30.666  -4.4370  0.00  0.00     0.000 OA
ENDBRANCH 5 13
BRANCH 1 16
ATOM     16  O3  NAG B   2       1.913  28.098  -5.0550  0.00  0.00     0.000 O
BRANCH 16 19
ATOM     17  C1  NAG B   2       5.056  29.960  -5.9940  0.00  0.00     0.000 C
ATOM     18  C2  NAG B   2       3.996  28.869  -6.0660  0.00  0.00     0.000 C
ATOM     19  C3  NAG B   2       2.831  29.200  -5.1350  0.00  0.00     0.000 C
ATOM     20  C4  NAG B   2       3.343  29.495  -3.7260  0.00  0.00     0.000 C
ATOM     21  C5  NAG B   2       4.389  30.599  -3.7780  0.00  0.00     0.000 C
ATOM     22  O5  NAG B   2       5.466  30.180  -4.6350  0.00  0.00     0.000 O
ATOM     23   O  NAG B   2       2.229  29.875  -2.9110  0.00  0.00     0.000 O
ATOM     25  HD  NAG B   2       2.610  29.119  -2.7310  0.00  0.00     0.000 HD
ATOM     25   C  NAG B   2       4.937  30.960  -2.3990  0.00  0.00     0.000 C
ATOM     26   O  NAG B   2       5.815  29.942  -1.8940  0.00  0.00     0.000 O
ATOM     28  HD  NAG B   2       6.196  29.186  -1.7140  0.00  0.00     0.000 HD
BRANCH 18 30
ATOM     28   N  NAG B   2       3.839  28.787  -7.5060  0.00  0.00     0.000 N
ATOM     30  HD  NAG B   2       3.855  27.957  -7.2620  0.00  0.00     0.000 HD
ATOM     30   C  NAG B   2       3.870  27.641  -8.1960  0.00  0.00     0.000 C
ATOM     31   C  NAG B   2       3.738  27.724  -9.6910  0.00  0.00     0.000 C
ATOM     32   O  NAG B   2       4.003  26.566  -7.6470  0.00  0.00     0.000 OA
ENDBRANCH 18 30
BRANCH 17 33
ATOM     33  O4  GCU B   3       6.139  29.573  -6.8630  0.00  0.00     0.000 O
BRANCH 33 37
ATOM     34  C1  GCU B   3       9.147  31.855  -8.6180  0.00  0.00     0.000 C
ATOM     35  C2  GCU B   3       9.045  31.868  -7.0930  0.00  0.00     0.000 C
ATOM     36  C3  GCU B   3       8.212  30.691  -6.6300  0.00  0.00     0.000 C
ATOM     37  C4  GCU B   3       6.859  30.716  -7.3270  0.00  0.00     0.000 C
ATOM     38  C5  GCU B   3       7.061  30.699  -8.8440  0.00  0.00     0.000 C
ATOM     39  O5  GCU B   3       7.845  31.838  -9.2120  0.00  0.00     0.000 O
ATOM     40   O  GCU B   3      10.361  31.790  -6.5400  0.00  0.00     0.000 O
ATOM     42  HD  GCU B   3      10.834  31.358  -5.9570  0.00  0.00     0.000 HD
ATOM     42   O  GCU B   3       8.035  30.712  -5.2030  0.00  0.00     0.000 O
ATOM     44  HD  GCU B   3       8.508  30.280  -4.6200  0.00  0.00     0.000 HD
BRANCH 38 44
ATOM     44   C  GCU B   3       5.759  30.748  -9.6040  0.00  0.00     0.000 C
ATOM     45   O  GCU B   3       4.759  31.217  -9.0390  0.00  0.00     0.000 OA
ATOM     46   O  GCU B   3       5.712  30.325 -10.7750  0.00  0.00     0.000 OA
ENDBRANCH 38 44
BRANCH 34 47
ATOM     47  O3  NAG B   4       9.697  32.992  -9.0190  0.00  0.00     0.000 O
BRANCH 47 50
ATOM     48  C1  NAG B   4      12.057  35.829  -9.3930  0.00  0.00     0.000 C
ATOM     49  C2  NAG B   4      10.838  35.062  -8.8900  0.00  0.00     0.000 C
ATOM     50  C3  NAG B   4      11.002  33.563  -9.0870  0.00  0.00     0.000 C
ATOM     51  C4  NAG B   4      11.656  33.184 -10.4210  0.00  0.00     0.000 C
ATOM     52  C5  NAG B   4      13.042  33.793 -10.5470  0.00  0.00     0.000 C
ATOM     53  O5  NAG B   4      13.130  35.160 -10.0880  0.00  0.00     0.000 O
BRANCH 49 56
ATOM     54   N  NAG B   4      11.192  35.171  -7.4630  0.00  0.00     0.000 N
ATOM     56  HD  NAG B   4      11.951  34.947  -7.1120  0.00  0.00     0.000 HD
ATOM     56   C  NAG B   4      10.934  35.601  -5.0890  0.00  0.00     0.000 C
ATOM     57   O  NAG B   4       9.134  35.582  -6.5910  0.00  0.00     0.000 OA
ATOM     58   C  NAG B   4      10.340  35.442  -6.4550  0.00  0.00     0.000 C
ENDBRANCH 49 56
ATOM     59   O  NAG B   4      14.924  33.901 -12.1420  0.00  0.00     0.000 O
ATOM     61  HD  NAG B   4      14.192  34.248 -11.8340  0.00  0.00     0.000 HD
ATOM     61   O  NAG B   4      14.924  33.901 -12.1420  0.00  0.00     0.000 O
ATOM     63  HD  NAG B   4      14.192  34.248 -11.8340  0.00  0.00     0.000 HD
ENDBRANCH 47 50
ENDBRANCH 34 47
ENDBRANCH 33 37
ENDBRANCH 17 33
ENDBRANCH 16 19
ENDBRANCH 1 16
TORSDOF 10
ENDMDL
MODEL 35
REMARK VINA RESULT:      -7.5      3.743     11.171
ROOT
ATOM      1  C1  GCU B   1       0.721  27.820  -5.9060  0.00  0.00     0.000 C
ATOM      2  C2  GCU B   1       0.122  26.451  -6.1850  0.00  0.00     0.000 C
ATOM      3  C3  GCU B   1      -1.361  26.573  -6.4980  0.00  0.00     0.000 C
ATOM      4  C4  GCU B   1      -2.063  27.379  -5.4160  0.00  0.00     0.000 C
ATOM      5  C5  GCU B   1      -1.348  28.708  -5.1700  0.00  0.00     0.000 C
ATOM      6  O5  GCU B   1       0.019  28.449  -4.8220  0.00  0.00     0.000 O
ATOM      7   O  GCU B   1       0.826  25.887  -7.2870  0.00  0.00     0.000 O
ATOM      9  HD  GCU B   1       1.196  25.105  -7.3110  0.00  0.00     0.000 HD
ATOM      9   O  GCU B   1      -1.962  25.280  -6.6050  0.00  0.00     0.000 O
ATOM     11  HD  GCU B   1      -1.592  24.497  -6.6280  0.00  0.00     0.000 HD
ATOM     11   O  GCU B   1      -3.410  27.622  -5.8210  0.00  0.00     0.000 O
ATOM     13  HD  GCU B   1      -3.039  26.840  -5.8450  0.00  0.00     0.000 HD
ENDROOT
BRANCH 5 13
ATOM     13   C  GCU B   1      -2.073  29.492  -4.1020  0.00  0.00     0.000 C
ATOM     14   O  GCU B   1      -2.415  28.939  -3.0360  0.00  0.00     0.000 OA
ATOM     15   O  GCU B   1      -2.283  30.701  -4.3200  0.00  0.00     0.000 OA
ENDBRANCH 5 13
BRANCH 1 16
ATOM     16  O3  NAG B   2       1.796  28.103  -5.1670  0.00  0.00     0.000 O
BRANCH 16 19
ATOM     17  C1  NAG B   2       5.194  29.475  -6.0620  0.00  0.00     0.000 C
ATOM     18  C2  NAG B   2       4.010  28.517  -6.1060  0.00  0.00     0.000 C
ATOM     19  C3  NAG B   2       2.848  29.073  -5.2850  0.00  0.00     0.000 C
ATOM     20  C4  NAG B   2       3.317  29.439  -3.8770  0.00  0.00     0.000 C
ATOM     21  C5  NAG B   2       4.495  30.399  -3.9600  0.00  0.00     0.000 C
ATOM     22  O5  NAG B   2       5.555  29.774  -4.7040  0.00  0.00     0.000 O
ATOM     23   O  NAG B   2       2.217  30.026  -3.1730  0.00  0.00     0.000 O
ATOM     25  HD  NAG B   2       2.490  29.250  -2.9030  0.00  0.00     0.000 HD
ATOM     25   C  NAG B   2       5.009  30.823  -2.5850  0.00  0.00     0.000 C
ATOM     26   O  NAG B   2       5.724  29.760  -1.9360  0.00  0.00     0.000 O
ATOM     28  HD  NAG B   2       5.997  28.984  -1.6650  0.00  0.00     0.000 HD
BRANCH 18 30
ATOM     28   N  NAG B   2       3.956  28.315  -7.5410  0.00  0.00     0.000 N
ATOM     30  HD  NAG B   2       3.811  27.522  -7.2250  0.00  0.00     0.000 HD
ATOM     30   C  NAG B   2       3.846  27.114  -8.1220  0.00  0.00     0.000 C
ATOM     31   C  NAG B   2       3.849  27.064  -9.6240  0.00  0.00     0.000 C
ATOM     32   O  NAG B   2       3.749  26.094  -7.4700  0.00  0.00     0.000 OA
ENDBRANCH 18 30
BRANCH 17 33
ATOM     33  O4  GCU B   3       6.265  28.879  -6.8210  0.00  0.00     0.000 O
BRANCH 33 37
ATOM     34  C1  GCU B   3       9.626  30.573  -8.6000  0.00  0.00     0.000 C
ATOM     35  C2  GCU B   3       9.576  30.533  -7.0720  0.00  0.00     0.000 C
ATOM     36  C3  GCU B   3       8.531  29.532  -6.6250  0.00  0.00     0.000 C
ATOM     37  C4  GCU B   3       7.193  29.870  -7.2660  0.00  0.00     0.000 C
ATOM     38  C5  GCU B   3       7.340  29.885  -8.7890  0.00  0.00     0.000 C
ATOM     39  O5  GCU B   3       8.332  30.854  -9.1410  0.00  0.00     0.000 O
ATOM     40   O  GCU B   3      10.863  30.158  -6.5760  0.00  0.00     0.000 O
ATOM     42  HD  GCU B   3      11.254  29.610  -6.0310  0.00  0.00     0.000 HD
ATOM     42   O  GCU B   3       8.405  29.520  -5.1920  0.00  0.00     0.000 O
ATOM     44  HD  GCU B   3       8.796  28.971  -4.6470  0.00  0.00     0.000 HD
BRANCH 38 44
ATOM     44   C  GCU B   3       6.054  30.239  -9.4940  0.00  0.00     0.000 C
ATOM     45   O  GCU B   3       5.847  29.768 -10.6230  0.00  0.00     0.000 OA
ATOM     46   O  GCU B   3       5.229  30.988  -8.9360  0.00  0.00     0.000 OA
ENDBRANCH 38 44
BRANCH 34 47
ATOM     47  O3  NAG B   4      10.388  31.591  -8.9750  0.00  0.00     0.000 O
BRANCH 47 50
ATOM     48  C1  NAG B   4       9.187  34.940  -7.9280  0.00  0.00     0.000 C
ATOM     49  C2  NAG B   4       9.804  33.552  -7.7860  0.00  0.00     0.000 C
ATOM     50  C3  NAG B   4      10.256  33.003  -9.1290  0.00  0.00     0.000 C
ATOM     51  C4  NAG B   4       9.286  33.302 -10.2770  0.00  0.00     0.000 C
ATOM     52  C5  NAG B   4       9.095  34.798 -10.4620  0.00  0.00     0.000 C
ATOM     53  O5  NAG B   4       8.965  35.533  -9.2240  0.00  0.00     0.000 O
BRANCH 49 56
ATOM     54   N  NAG B   4      11.149  33.927  -7.3160  0.00  0.00     0.000 N
ATOM     56  HD  NAG B   4      11.779  34.264  -7.8050  0.00  0.00     0.000 HD
ATOM     56   C  NAG B   4      13.034  34.194  -5.8110  0.00  0.00     0.000 C
ATOM     57   O  NAG B   4      11.124  32.948  -5.2650  0.00  0.00     0.000 OA
ATOM     58   C  NAG B   4      11.681  33.627  -6.1140  0.00  0.00     0.000 C
ENDBRANCH 49 56
ATOM     59   O  NAG B   4       7.842  36.386 -11.8770  0.00  0.00     0.000 O
ATOM     61  HD  NAG B   4       7.888  35.919 -11.1490  0.00  0.00     0.000 HD
ATOM     61   O  NAG B   4       7.842  36.386 -11.8770  0.00  0.00     0.000 O
ATOM     63  HD  NAG B   4       7.888  35.919 -11.1490  0.00  0.00     0.000 HD
ENDBRANCH 47 50
ENDBRANCH 34 47
ENDBRANCH 33 37
ENDBRANCH 17 33
ENDBRANCH 16 19
ENDBRANCH 1 16
TORSDOF 10
ENDMDL
MODEL 36
REMARK VINA RESULT:      -7.5      4.815      7.130
ROOT
ATOM      1  C1  GCU B   1       6.452  31.374  -9.2020  0.00  0.00     0.000 C
ATOM      2  C2  GCU B   1       7.431  31.754 -10.3030  0.00  0.00     0.000 C
ATOM      3  C3  GCU B   1       6.977  33.026 -11.0020  0.00  0.00     0.000 C
ATOM      4  C4  GCU B   1       5.527  32.895 -11.4410  0.00  0.00     0.000 C
ATOM      5  C5  GCU B   1       4.638  32.450 -10.2780  0.00  0.00     0.000 C
ATOM      6  O5  GCU B   1       5.136  31.212  -9.7530  0.00  0.00     0.000 O
ATOM      7   O  GCU B   1       8.709  31.938  -9.7010  0.00  0.00     0.000 O
ATOM      9  HD  GCU B   1       9.449  31.563  -9.9500  0.00  0.00     0.000 HD
ATOM      9   O  GCU B   1       7.803  33.299 -12.1370  0.00  0.00     0.000 O
ATOM     11  HD  GCU B   1       8.543  32.925 -12.3860  0.00  0.00     0.000 HD
ATOM     11   O  GCU B   1       5.079  34.157 -11.9370  0.00  0.00     0.000 O
ATOM     13  HD  GCU B   1       5.819  33.783 -12.1860  0.00  0.00     0.000 HD
ENDROOT
BRANCH 5 13
ATOM     13   C  GCU B   1       3.204  32.343 -10.7390  0.00  0.00     0.000 C
ATOM     14   O  GCU B   1       2.692  31.224 -10.9520  0.00  0.00     0.000 OA
ATOM     15   O  GCU B   1       2.561  33.402 -10.8670  0.00  0.00     0.000 OA
ENDBRANCH 5 13
BRANCH 1 16
ATOM     16  O3  NAG B   2       6.222  30.158  -8.7030  0.00  0.00     0.000 O
BRANCH 16 19
ATOM     17  C1  NAG B   2       5.579  28.657  -5.3030  0.00  0.00     0.000 C
ATOM     18  C2  NAG B   2       6.372  29.343  -6.4070  0.00  0.00     0.000 C
ATOM     19  C3  NAG B   2       5.459  29.678  -7.5850  0.00  0.00     0.000 C
ATOM     20  C4  NAG B   2       4.691  28.434  -8.0330  0.00  0.00     0.000 C
ATOM     21  C5  NAG B   2       3.937  27.840  -6.8520  0.00  0.00     0.000 C
ATOM     22  O5  NAG B   2       4.880  27.512  -5.8160  0.00  0.00     0.000 O
ATOM     23   O  NAG B   2       3.794  28.812  -9.0840  0.00  0.00     0.000 O
ATOM     25  HD  NAG B   2       4.457  28.298  -9.2970  0.00  0.00     0.000 HD
ATOM     25   C  NAG B   2       3.131  26.599  -7.2300  0.00  0.00     0.000 C
ATOM     26   O  NAG B   2       3.980  25.463  -7.4550  0.00  0.00     0.000 O
ATOM     28  HD  NAG B   2       4.644  24.949  -7.6680  0.00  0.00     0.000 HD
BRANCH 18 30
ATOM     28   N  NAG B   2       7.152  30.065  -5.4200  0.00  0.00     0.000 N
ATOM     30  HD  NAG B   2       7.603  30.180  -6.1510  0.00  0.00     0.000 HD
ATOM     30   C  NAG B   2       8.346  30.617  -5.6710  0.00  0.00     0.000 C
ATOM     31   C  NAG B   2       9.054  31.294  -4.5310  0.00  0.00     0.000 C
ATOM     32   O  NAG B   2       8.851  30.576  -6.7750  0.00  0.00     0.000 OA
ENDBRANCH 18 30
BRANCH 17 33
ATOM     33  O4  GCU B   3       6.499  28.336  -4.2400  0.00  0.00     0.000 O
BRANCH 33 37
ATOM     34  C1  GCU B   3       5.823  26.961  -0.3690  0.00  0.00     0.000 C
ATOM     35  C2  GCU B   3       5.818  25.931  -1.5000  0.00  0.00     0.000 C
ATOM     36  C3  GCU B   3       6.486  26.519  -2.7240  0.00  0.00     0.000 C
ATOM     37  C4  GCU B   3       5.808  27.829  -3.0970  0.00  0.00     0.000 C
ATOM     38  C5  GCU B   3       5.864  28.794  -1.9110  0.00  0.00     0.000 C
ATOM     39  O5  GCU B   3       5.211  28.182  -0.7950  0.00  0.00     0.000 O
ATOM     40   O  GCU B   3       6.520  24.764  -1.0660  0.00  0.00     0.000 O
ATOM     42  HD  GCU B   3       7.143  24.211  -1.3040  0.00  0.00     0.000 HD
ATOM     42   O  GCU B   3       6.435  25.602  -3.8320  0.00  0.00     0.000 O
ATOM     44  HD  GCU B   3       7.058  25.050  -4.0710  0.00  0.00     0.000 HD
BRANCH 38 44
ATOM     44   C  GCU B   3       5.187  30.110  -2.1990  0.00  0.00     0.000 C
ATOM     45   O  GCU B   3       5.887  31.077  -2.5350  0.00  0.00     0.000 OA
ATOM     46   O  GCU B   3       3.949  30.203  -2.0980  0.00  0.00     0.000 OA
ENDBRANCH 38 44
BRANCH 34 47
ATOM     47  O3  NAG B   4       5.060  26.515   0.6180  0.00  0.00     0.000 O
BRANCH 47 50
ATOM     48  C1  NAG B   4       1.590  25.580   1.5330  0.00  0.00     0.000 C
ATOM     49  C2  NAG B   4       2.713  26.394   0.9000  0.00  0.00     0.000 C
ATOM     50  C3  NAG B   4       3.993  25.583   0.7850  0.00  0.00     0.000 C
ATOM     51  C4  NAG B   4       4.275  24.698   2.0050  0.00  0.00     0.000 C
ATOM     52  C5  NAG B   4       3.150  23.703   2.2360  0.00  0.00     0.000 C
ATOM     53  O5  NAG B   4       1.827  24.259   2.0640  0.00  0.00     0.000 O
BRANCH 49 56
ATOM     54   N  NAG B   4       2.153  26.892  -0.3690  0.00  0.00     0.000 N
ATOM     56  HD  NAG B   4       1.729  27.640  -0.4760  0.00  0.00     0.000 HD
ATOM     56   C  NAG B   4       1.521  26.924  -2.7120  0.00  0.00     0.000 C
ATOM     57   O  NAG B   4       2.328  25.008  -1.6280  0.00  0.00     0.000 OA
ATOM     58   C  NAG B   4       2.031  26.188  -1.5120  0.00  0.00     0.000 C
ENDBRANCH 49 56
ATOM     59   O  NAG B   4       2.507  21.901   3.7960  0.00  0.00     0.000 O
ATOM     61  HD  NAG B   4       2.471  22.737   3.5740  0.00  0.00     0.000 HD
ATOM     61   O  NAG B   4       2.507  21.901   3.7960  0.00  0.00     0.000 O
ATOM     63  HD  NAG B   4       2.471  22.737   3.5740  0.00  0.00     0.000 HD
ENDBRANCH 47 50
ENDBRANCH 34 47
ENDBRANCH 33 37
ENDBRANCH 17 33
ENDBRANCH 16 19
ENDBRANCH 1 16
TORSDOF 10
ENDMDL
MODEL 37
REMARK VINA RESULT:      -7.4      4.095      6.263
ROOT
ATOM      1  C1  GCU B   1       8.291  32.019  -8.2570  0.00  0.00     0.000 C
ATOM      2  C2  GCU B   1       9.809  31.912  -8.2740  0.00  0.00     0.000 C
ATOM      3  C3  GCU B   1      10.440  33.295  -8.2990  0.00  0.00     0.000 C
ATOM      4  C4  GCU B   1       9.837  34.128  -9.4200  0.00  0.00     0.000 C
ATOM      5  C5  GCU B   1       8.309  34.121  -9.3490  0.00  0.00     0.000 C
ATOM      6  O5  GCU B   1       7.842  32.766  -9.3990  0.00  0.00     0.000 O
ATOM      7   O  GCU B   1      10.204  31.198  -7.1070  0.00  0.00     0.000 O
ATOM      9  HD  GCU B   1      10.720  30.502  -7.0840  0.00  0.00     0.000 HD
ATOM      9   O  GCU B   1      11.855  33.200  -8.4750  0.00  0.00     0.000 O
ATOM     11  HD  GCU B   1      12.371  32.505  -8.4520  0.00  0.00     0.000 HD
ATOM     11   O  GCU B   1      10.320  35.467  -9.3120  0.00  0.00     0.000 O
ATOM     13  HD  GCU B   1      10.835  34.771  -9.2890  0.00  0.00     0.000 HD
ENDROOT
BRANCH 5 13
ATOM     13   C  GCU B   1       7.739  34.965 -10.4640  0.00  0.00     0.000 C
ATOM     14   O  GCU B   1       7.202  34.425 -11.4540  0.00  0.00     0.000 OA
ATOM     15   O  GCU B   1       7.804  36.203 -10.3380  0.00  0.00     0.000 OA
ENDBRANCH 5 13
BRANCH 1 16
ATOM     16  O3  NAG B   2       7.407  31.120  -8.6940  0.00  0.00     0.000 O
BRANCH 16 19
ATOM     17  C1  NAG B   2       4.755  29.037  -7.0050  0.00  0.00     0.000 C
ATOM     18  C2  NAG B   2       6.156  29.553  -7.3020  0.00  0.00     0.000 C
ATOM     19  C3  NAG B   2       6.091  30.739  -8.2630  0.00  0.00     0.000 C
ATOM     20  C4  NAG B   2       5.272  30.377  -9.5010  0.00  0.00     0.000 C
ATOM     21  C5  NAG B   2       3.896  29.881  -9.0820  0.00  0.00     0.000 C
ATOM     22  O5  NAG B   2       4.055  28.737  -8.2230  0.00  0.00     0.000 O
ATOM     23   O  NAG B   2       5.173  31.539 -10.3330  0.00  0.00     0.000 O
ATOM     25  HD  NAG B   2       5.645  30.877 -10.6330  0.00  0.00     0.000 HD
ATOM     25   C  NAG B   2       3.013  29.514 -10.2730  0.00  0.00     0.000 C
ATOM     26   O  NAG B   2       3.435  28.287 -10.8890  0.00  0.00     0.000 O
ATOM     28  HD  NAG B   2       3.906  27.626 -11.1890  0.00  0.00     0.000 HD
BRANCH 18 30
ATOM     28   N  NAG B   2       7.025  28.718  -6.4950  0.00  0.00     0.000 N
ATOM     30  HD  NAG B   2       7.108  29.499  -6.1310  0.00  0.00     0.000 HD
ATOM     30   C  NAG B   2       7.827  29.187  -5.5320  0.00  0.00     0.000 C
ATOM     31   C  NAG B   2       8.702  28.200  -4.8110  0.00  0.00     0.000 C
ATOM     32   O  NAG B   2       7.858  30.366  -5.2420  0.00  0.00     0.000 OA
ENDBRANCH 18 30
BRANCH 17 33
ATOM     33  O4  GCU B   3       4.886  27.901  -6.1260  0.00  0.00     0.000 O
BRANCH 33 37
ATOM     34  C1  GCU B   3       2.310  26.365  -3.2390  0.00  0.00     0.000 C
ATOM     35  C2  GCU B   3       1.950  26.133  -4.7060  0.00  0.00     0.000 C
ATOM     36  C3  GCU B   3       3.171  26.368  -5.5710  0.00  0.00     0.000 C
ATOM     37  C4  GCU B   3       3.731  27.757  -5.2980  0.00  0.00     0.000 C
ATOM     38  C5  GCU B   3       4.063  27.895  -3.8110  0.00  0.00     0.000 C
ATOM     39  O5  GCU B   3       2.868  27.669  -3.0550  0.00  0.00     0.000 O
ATOM     40   O  GCU B   3       1.485  24.790  -4.8630  0.00  0.00     0.000 O
ATOM     42  HD  GCU B   3       1.594  24.080  -5.3460  0.00  0.00     0.000 HD
ATOM     42   O  GCU B   3       2.851  26.229  -6.9670  0.00  0.00     0.000 O
ATOM     44  HD  GCU B   3       2.960  25.519  -7.4500  0.00  0.00     0.000 HD
BRANCH 38 44
ATOM     44   C  GCU B   3       4.601  29.259  -3.4590  0.00  0.00     0.000 C
ATOM     45   O  GCU B   3       5.673  29.332  -2.8390  0.00  0.00     0.000 OA
ATOM     46   O  GCU B   3       3.969  30.278  -3.7960  0.00  0.00     0.000 OA
ENDBRANCH 38 44
BRANCH 34 47
ATOM     47  O3  NAG B   4       1.197  26.359  -2.5200  0.00  0.00     0.000 O
BRANCH 47 50
ATOM     48  C1  NAG B   4      -2.452  27.015  -2.6320  0.00  0.00     0.000 C
ATOM     49  C2  NAG B   4      -1.161  26.260  -2.3340  0.00  0.00     0.000 C
ATOM     50  C3  NAG B   4       0.045  27.185  -2.3580  0.00  0.00     0.000 C
ATOM     51  C4  NAG B   4       0.002  28.226  -3.4830  0.00  0.00     0.000 C
ATOM     52  C5  NAG B   4      -1.225  29.114  -3.3650  0.00  0.00     0.000 C
ATOM     53  O5  NAG B   4      -2.436  28.405  -3.0200  0.00  0.00     0.000 O
BRANCH 49 56
ATOM     54   N  NAG B   4      -1.410  26.170  -0.8840  0.00  0.00     0.000 N
ATOM     56  HD  NAG B   4      -1.643  26.827  -0.3700  0.00  0.00     0.000 HD
ATOM     56   C  NAG B   4      -1.556  25.204   1.3370  0.00  0.00     0.000 C
ATOM     57   O  NAG B   4      -0.570  24.097  -0.4800  0.00  0.00     0.000 OA
ATOM     58   C  NAG B   4      -1.128  25.114  -0.0950  0.00  0.00     0.000 C
ENDBRANCH 49 56
ATOM     59   O  NAG B   4      -2.315  31.001  -4.5260  0.00  0.00     0.000 O
ATOM     61  HD  NAG B   4      -2.237  30.146  -4.4130  0.00  0.00     0.000 HD
ATOM     61   O  NAG B   4      -2.315  31.001  -4.5260  0.00  0.00     0.000 O
ATOM     63  HD  NAG B   4      -2.237  30.146  -4.4130  0.00  0.00     0.000 HD
ENDBRANCH 47 50
ENDBRANCH 34 47
ENDBRANCH 33 37
ENDBRANCH 17 33
ENDBRANCH 16 19
ENDBRANCH 1 16
TORSDOF 10
ENDMDL
MODEL 38
REMARK VINA RESULT:      -7.3      4.200      6.815
ROOT
ATOM      1  C1  GCU B   1       7.119  31.605 -11.0990  0.00  0.00     0.000 C
ATOM      2  C2  GCU B   1       7.312  31.837 -12.5890  0.00  0.00     0.000 C
ATOM      3  C3  GCU B   1       8.496  32.759 -12.8350  0.00  0.00     0.000 C
ATOM      4  C4  GCU B   1       8.364  34.020 -11.9940  0.00  0.00     0.000 C
ATOM      5  C5  GCU B   1       8.112  33.677 -10.5250  0.00  0.00     0.000 C
ATOM      6  O5  GCU B   1       6.937  32.862 -10.4270  0.00  0.00     0.000 O
ATOM      7   O  GCU B   1       7.524  30.569 -13.2010  0.00  0.00     0.000 O
ATOM      9  HD  GCU B   1       7.092  30.251 -13.8810  0.00  0.00     0.000 HD
ATOM      9   O  GCU B   1       8.585  33.108 -14.2190  0.00  0.00     0.000 O
ATOM     11  HD  GCU B   1       8.153  32.790 -14.8990  0.00  0.00     0.000 HD
ATOM     11   O  GCU B   1       9.565  34.782 -12.1140  0.00  0.00     0.000 O
ATOM     13  HD  GCU B   1       9.133  34.464 -12.7930  0.00  0.00     0.000 HD
ENDROOT
BRANCH 5 13
ATOM     13   C  GCU B   1       7.999  34.945  -9.7130  0.00  0.00     0.000 C
ATOM     14   O  GCU B   1       7.600  36.001 -10.2450  0.00  0.00     0.000 OA
ATOM     15   O  GCU B   1       8.291  34.880  -8.5040  0.00  0.00     0.000 OA
ENDBRANCH 5 13
BRANCH 1 16
ATOM     16  O3  NAG B   2       5.989  31.281 -10.4650  0.00  0.00     0.000 O
BRANCH 16 19
ATOM     17  C1  NAG B   2       6.111  29.493  -7.1460  0.00  0.00     0.000 C
ATOM     18  C2  NAG B   2       6.579  29.912  -8.5340  0.00  0.00     0.000 C
ATOM     19  C3  NAG B   2       5.671  31.006  -9.0920  0.00  0.00     0.000 C
ATOM     20  C4  NAG B   2       4.208  30.571  -9.0210  0.00  0.00     0.000 C
ATOM     21  C5  NAG B   2       3.855  30.183  -7.5930  0.00  0.00     0.000 C
ATOM     22  O5  NAG B   2       4.724  29.117  -7.1710  0.00  0.00     0.000 O
ATOM     23   O  NAG B   2       3.392  31.655  -9.4810  0.00  0.00     0.000 O
ATOM     25  HD  NAG B   2       3.425  30.946  -9.9780  0.00  0.00     0.000 HD
ATOM     25   C  NAG B   2       2.397  29.751  -7.4420  0.00  0.00     0.000 C
ATOM     26   O  NAG B   2       2.166  28.454  -8.0130  0.00  0.00     0.000 O
ATOM     28  HD  NAG B   2       2.199  27.746  -8.5110  0.00  0.00     0.000 HD
BRANCH 18 30
ATOM     28   N  NAG B   2       7.742  29.134  -8.9160  0.00  0.00     0.000 N
ATOM     30  HD  NAG B   2       8.083  29.893  -8.6760  0.00  0.00     0.000 HD
ATOM     30   C  NAG B   2       8.984  29.630  -8.9780  0.00  0.00     0.000 C
ATOM     31   C  NAG B   2      10.081  28.709  -9.4350  0.00  0.00     0.000 C
ATOM     32   O  NAG B   2       9.230  30.782  -8.6800  0.00  0.00     0.000 OA
ENDBRANCH 18 30
BRANCH 17 33
ATOM     33  O4  GCU B   3       6.982  28.438  -6.6910  0.00  0.00     0.000 O
BRANCH 33 37
ATOM     34  C1  GCU B   3       7.678  26.919  -2.8790  0.00  0.00     0.000 C
ATOM     35  C2  GCU B   3       6.359  26.552  -3.5590  0.00  0.00     0.000 C
ATOM     36  C3  GCU B   3       6.463  26.819  -5.0450  0.00  0.00     0.000 C
ATOM     37  C4  GCU B   3       6.882  28.264  -5.2770  0.00  0.00     0.000 C
ATOM     38  C5  GCU B   3       8.208  28.536  -4.5640  0.00  0.00     0.000 C
ATOM     39  O5  GCU B   3       8.038  28.273  -3.1680  0.00  0.00     0.000 O
ATOM     40   O  GCU B   3       6.085  25.170  -3.3230  0.00  0.00     0.000 O
ATOM     42  HD  GCU B   3       5.864  24.437  -3.7280  0.00  0.00     0.000 HD
ATOM     42   O  GCU B   3       5.214  26.554  -5.7080  0.00  0.00     0.000 O
ATOM     44  HD  GCU B   3       4.993  25.821  -6.1130  0.00  0.00     0.000 HD
BRANCH 38 44
ATOM     44   C  GCU B   3       8.676  29.960  -4.7290  0.00  0.00     0.000 C
ATOM     45   O  GCU B   3       9.634  30.187  -5.4830  0.00  0.00     0.000 OA
ATOM     46   O  GCU B   3       8.096  30.876  -4.1140  0.00  0.00     0.000 OA
ENDBRANCH 38 44
BRANCH 34 47
ATOM     47  O3  NAG B   4       7.508  26.878  -1.5650  0.00  0.00     0.000 O
BRANCH 47 50
ATOM     48  C1  NAG B   4       5.943  28.699   1.2620  0.00  0.00     0.000 C
ATOM     49  C2  NAG B   4       6.696  28.505  -0.0500  0.00  0.00     0.000 C
ATOM     50  C3  NAG B   4       6.456  27.122  -0.6330  0.00  0.00     0.000 C
ATOM     51  C4  NAG B   4       6.436  26.005   0.4170  0.00  0.00     0.000 C
ATOM     52  C5  NAG B   4       5.344  26.238   1.4480  0.00  0.00     0.000 C
ATOM     53  O5  NAG B   4       5.227  27.611   1.8830  0.00  0.00     0.000 O
BRANCH 49 56
ATOM     54   N  NAG B   4       6.280  29.641  -0.8910  0.00  0.00     0.000 N
ATOM     56  HD  NAG B   4       6.666  30.416  -0.9210  0.00  0.00     0.000 HD
ATOM     56   C  NAG B   4       4.958  30.938  -2.4600  0.00  0.00     0.000 C
ATOM     57   O  NAG B   4       4.250  28.884  -1.5760  0.00  0.00     0.000 OA
ATOM     58   C  NAG B   4       5.132  29.729  -1.5930  0.00  0.00     0.000 C
ENDBRANCH 49 56
ATOM     59   O  NAG B   4       4.418  25.205   3.4910  0.00  0.00     0.000 O
ATOM     61  HD  NAG B   4       4.967  25.769   3.1290  0.00  0.00     0.000 HD
ATOM     61   O  NAG B   4       4.418  25.205   3.4910  0.00  0.00     0.000 O
ATOM     63  HD  NAG B   4       4.967  25.769   3.1290  0.00  0.00     0.000 HD
ENDBRANCH 47 50
ENDBRANCH 34 47
ENDBRANCH 33 37
ENDBRANCH 17 33
ENDBRANCH 16 19
ENDBRANCH 1 16
TORSDOF 10
ENDMDL
MODEL 39
REMARK VINA RESULT:      -7.3      8.831     12.806
ROOT
ATOM      1  C1  GCU B   1       5.519  26.955   0.7600  0.00  0.00     0.000 C
ATOM      2  C2  GCU B   1       6.493  28.056   1.1490  0.00  0.00     0.000 C
ATOM      3  C3  GCU B   1       7.841  27.464   1.5310  0.00  0.00     0.000 C
ATOM      4  C4  GCU B   1       7.658  26.365   2.5660  0.00  0.00     0.000 C
ATOM      5  C5  GCU B   1       6.615  25.344   2.1070  0.00  0.00     0.000 C
ATOM      6  O5  GCU B   1       5.379  26.021   1.8430  0.00  0.00     0.000 O
ATOM      7   O  GCU B   1       6.624  28.931   0.0330  0.00  0.00     0.000 O
ATOM      9  HD  GCU B   1       6.526  29.792   0.0440  0.00  0.00     0.000 HD
ATOM      9   O  GCU B   1       8.708  28.476   2.0480  0.00  0.00     0.000 O
ATOM     11  HD  GCU B   1       8.610  29.337   2.0590  0.00  0.00     0.000 HD
ATOM     11   O  GCU B   1       8.911  25.715   2.7760  0.00  0.00     0.000 O
ATOM     13  HD  GCU B   1       8.813  26.575   2.7880  0.00  0.00     0.000 HD
ENDROOT
BRANCH 5 13
ATOM     13   C  GCU B   1       6.465  24.260   3.1470  0.00  0.00     0.000 C
ATOM     14   O  GCU B   1       5.957  23.161   2.8440  0.00  0.00     0.000 OA
ATOM     15   O  GCU B   1       6.891  24.501   4.2930  0.00  0.00     0.000 OA
ENDBRANCH 5 13
BRANCH 1 16
ATOM     16  O3  NAG B   2       4.186  26.988   0.8240  0.00  0.00     0.000 O
BRANCH 16 19
ATOM     17  C1  NAG B   2       1.402  25.895  -1.4740  0.00  0.00     0.000 C
ATOM     18  C2  NAG B   2       2.623  26.687  -1.0260  0.00  0.00     0.000 C
ATOM     19  C3  NAG B   2       3.151  26.141   0.3000  0.00  0.00     0.000 C
ATOM     20  C4  NAG B   2       2.026  26.071   1.3320  0.00  0.00     0.000 C
ATOM     21  C5  NAG B   2       0.868  25.255   0.7770  0.00  0.00     0.000 C
ATOM     22  O5  NAG B   2       0.406  25.869  -0.4390  0.00  0.00     0.000 O
ATOM     23   O  NAG B   2       2.549  25.483   2.5290  0.00  0.00     0.000 O
ATOM     25  HD  NAG B   2       2.328  26.320   2.5640  0.00  0.00     0.000 HD
ATOM     25   C  NAG B   2      -0.291  25.128   1.7640  0.00  0.00     0.000 C
ATOM     26   O  NAG B   2      -1.019  26.359   1.8900  0.00  0.00     0.000 O
ATOM     28  HD  NAG B   2      -1.240  27.196   1.9250  0.00  0.00     0.000 HD
BRANCH 18 30
ATOM     28   N  NAG B   2       2.875  27.698  -2.0350  0.00  0.00     0.000 N
ATOM     30  HD  NAG B   2       3.512  27.126  -2.1650  0.00  0.00     0.000 HD
ATOM     30   C  NAG B   2       3.953  27.708  -2.8280  0.00  0.00     0.000 C
ATOM     31   C  NAG B   2       4.096  28.850  -3.7960  0.00  0.00     0.000 C
ATOM     32   O  NAG B   2       4.795  26.834  -2.7760  0.00  0.00     0.000 OA
ENDBRANCH 18 30
BRANCH 17 33
ATOM     33  O4  GCU B   3       0.932  26.479  -2.7060  0.00  0.00     0.000 O
BRANCH 33 37
ATOM     34  C1  GCU B   3      -1.299  24.813  -5.8020  0.00  0.00     0.000 C
ATOM     35  C2  GCU B   3      -2.061  25.490  -4.6620  0.00  0.00     0.000 C
ATOM     36  C3  GCU B   3      -1.120  26.383  -3.8820  0.00  0.00     0.000 C
ATOM     37  C4  GCU B   3       0.080  25.574  -3.4110  0.00  0.00     0.000 C
ATOM     38  C5  GCU B   3       0.778  24.939  -4.6150  0.00  0.00     0.000 C
ATOM     39  O5  GCU B   3      -0.162  24.105  -5.2990  0.00  0.00     0.000 O
ATOM     40   O  GCU B   3      -3.131  26.261  -5.2130  0.00  0.00     0.000 O
ATOM     42  HD  GCU B   3      -3.491  27.048  -5.1890  0.00  0.00     0.000 HD
ATOM     42   O  GCU B   3      -1.787  26.981  -2.7560  0.00  0.00     0.000 O
ATOM     44  HD  GCU B   3      -2.147  27.769  -2.7320  0.00  0.00     0.000 HD
BRANCH 38 44
ATOM     44   C  GCU B   3       1.966  24.098  -4.2220  0.00  0.00     0.000 C
ATOM     45   O  GCU B   3       3.105  24.549  -4.4190  0.00  0.00     0.000 OA
ATOM     46   O  GCU B   3       1.787  22.977  -3.7070  0.00  0.00     0.000 OA
ENDBRANCH 38 44
BRANCH 34 47
ATOM     47  O3  NAG B   4      -2.075  23.885  -6.3430  0.00  0.00     0.000 O
BRANCH 47 50
ATOM     48  C1  NAG B   4      -2.598  20.384  -7.4480  0.00  0.00     0.000 C
ATOM     49  C2  NAG B   4      -1.925  21.749  -7.3510  0.00  0.00     0.000 C
ATOM     50  C3  NAG B   4      -2.385  22.511  -6.1180  0.00  0.00     0.000 C
ATOM     51  C4  NAG B   4      -3.883  22.368  -5.8270  0.00  0.00     0.000 C
ATOM     52  C5  NAG B   4      -4.264  20.913  -5.6050  0.00  0.00     0.000 C
ATOM     53  O5  NAG B   4      -3.638  19.993  -6.5260  0.00  0.00     0.000 O
BRANCH 49 56
ATOM     54   N  NAG B   4      -0.636  21.235  -6.8550  0.00  0.00     0.000 N
ATOM     56  HD  NAG B   4      -0.527  20.730  -6.1600  0.00  0.00     0.000 HD
ATOM     56   C  NAG B   4       1.762  20.896  -6.6990  0.00  0.00     0.000 C
ATOM     57   O  NAG B   4       0.783  22.505  -8.0960  0.00  0.00     0.000 OA
ATOM     58   C  NAG B   4       0.585  21.622  -7.2740  0.00  0.00     0.000 C
ENDBRANCH 49 56
ATOM     59   O  NAG B   4      -6.250  19.530  -5.1170  0.00  0.00     0.000 O
ATOM     61  HD  NAG B   4      -5.716  19.880  -5.7020  0.00  0.00     0.000 HD
ATOM     61   O  NAG B   4      -6.250  19.530  -5.1170  0.00  0.00     0.000 O
ATOM     63  HD  NAG B   4      -5.716  19.880  -5.7020  0.00  0.00     0.000 HD
ENDBRANCH 47 50
ENDBRANCH 34 47
ENDBRANCH 33 37
ENDBRANCH 17 33
ENDBRANCH 16 19
ENDBRANCH 1 16
TORSDOF 10
ENDMDL
MODEL 40
REMARK VINA RESULT:      -7.3      5.576      8.284
ROOT
ATOM      1  C1  GCU B   1       6.334  30.865  -8.8300  0.00  0.00     0.000 C
ATOM      2  C2  GCU B   1       7.491  30.571  -9.7720  0.00  0.00     0.000 C
ATOM      3  C3  GCU B   1       7.705  31.733 -10.7300  0.00  0.00     0.000 C
ATOM      4  C4  GCU B   1       6.395  32.102 -11.4090  0.00  0.00     0.000 C
ATOM      5  C5  GCU B   1       5.284  32.316 -10.3800  0.00  0.00     0.000 C
ATOM      6  O5  GCU B   1       5.142  31.129  -9.5880  0.00  0.00     0.000 O
ATOM      7   O  GCU B   1       8.652  30.354  -8.9750  0.00  0.00     0.000 O
ATOM      9  HD  GCU B   1       9.181  29.670  -9.0200  0.00  0.00     0.000 HD
ATOM      9   O  GCU B   1       8.684  31.398 -11.7170  0.00  0.00     0.000 O
ATOM     11  HD  GCU B   1       9.213  30.714 -11.7620  0.00  0.00     0.000 HD
ATOM     11   O  GCU B   1       6.589  33.296 -12.1670  0.00  0.00     0.000 O
ATOM     13  HD  GCU B   1       7.118  32.612 -12.2120  0.00  0.00     0.000 HD
ENDROOT
BRANCH 5 13
ATOM     13   C  GCU B   1       4.001  32.694 -11.0810  0.00  0.00     0.000 C
ATOM     14   O  GCU B   1       3.024  31.918 -11.0710  0.00  0.00     0.000 OA
ATOM     15   O  GCU B   1       3.957  33.810 -11.6350  0.00  0.00     0.000 OA
ENDBRANCH 5 13
BRANCH 1 16
ATOM     16  O3  NAG B   2       5.551  29.984  -8.2030  0.00  0.00     0.000 O
BRANCH 16 19
ATOM     17  C1  NAG B   2       4.723  28.731  -4.7430  0.00  0.00     0.000 C
ATOM     18  C2  NAG B   2       5.522  28.869  -6.0330  0.00  0.00     0.000 C
ATOM     19  C3  NAG B   2       4.923  29.966  -6.9120  0.00  0.00     0.000 C
ATOM     20  C4  NAG B   2       3.427  29.728  -7.1140  0.00  0.00     0.000 C
ATOM     21  C5  NAG B   2       2.736  29.611  -5.7630  0.00  0.00     0.000 C
ATOM     22  O5  NAG B   2       3.330  28.526  -5.0290  0.00  0.00     0.000 O
ATOM     23   O  NAG B   2       2.896  30.818  -7.8760  0.00  0.00     0.000 O
ATOM     25  HD  NAG B   2       2.921  30.043  -8.2610  0.00  0.00     0.000 HD
ATOM     25   C  NAG B   2       1.230  29.387  -5.8880  0.00  0.00     0.000 C
ATOM     26   O  NAG B   2       0.926  28.055  -6.3300  0.00  0.00     0.000 O
ATOM     28  HD  NAG B   2       0.951  27.280  -6.7150  0.00  0.00     0.000 HD
BRANCH 18 30
ATOM     28   N  NAG B   2       6.597  27.935  -5.7570  0.00  0.00     0.000 N
ATOM     30  HD  NAG B   2       7.015  28.677  -5.9160  0.00  0.00     0.000 HD
ATOM     30   C  NAG B   2       7.896  28.232  -5.8910  0.00  0.00     0.000 C
ATOM     31   C  NAG B   2       8.892  27.142  -5.6110  0.00  0.00     0.000 C
ATOM     32   O  NAG B   2       8.269  29.338  -6.2280  0.00  0.00     0.000 OA
ENDBRANCH 18 30
BRANCH 17 33
ATOM     33  O4  GCU B   3       5.313  27.661  -3.9770  0.00  0.00     0.000 O
BRANCH 33 37
ATOM     34  C1  GCU B   3       4.479  26.254  -0.1490  0.00  0.00     0.000 C
ATOM     35  C2  GCU B   3       3.461  25.958  -1.2510  0.00  0.00     0.000 C
ATOM     36  C3  GCU B   3       4.109  26.154  -2.6060  0.00  0.00     0.000 C
ATOM     37  C4  GCU B   3       4.703  27.553  -2.6900  0.00  0.00     0.000 C
ATOM     38  C5  GCU B   3       5.707  27.756  -1.5540  0.00  0.00     0.000 C
ATOM     39  O5  GCU B   3       5.029  27.565  -0.3080  0.00  0.00     0.000 O
ATOM     40   O  GCU B   3       3.006  24.610  -1.1120  0.00  0.00     0.000 O
ATOM     42  HD  GCU B   3       2.883  23.879  -1.5600  0.00  0.00     0.000 HD
ATOM     42   O  GCU B   3       3.160  25.954  -3.6680  0.00  0.00     0.000 O
ATOM     44  HD  GCU B   3       3.037  25.223  -4.1160  0.00  0.00     0.000 HD
BRANCH 38 44
ATOM     44   C  GCU B   3       6.320  29.134  -1.5580  0.00  0.00     0.000 C
ATOM     45   O  GCU B   3       5.744  30.042  -0.9390  0.00  0.00     0.000 OA
ATOM     46   O  GCU B   3       7.385  29.335  -2.1730  0.00  0.00     0.000 OA
ENDBRANCH 38 44
BRANCH 34 47
ATOM     47  O3  NAG B   4       3.849  26.281   1.0170  0.00  0.00     0.000 O
BRANCH 47 50
ATOM     48  C1  NAG B   4       4.098  22.999   2.7270  0.00  0.00     0.000 C
ATOM     49  C2  NAG B   4       4.553  24.207   1.9150  0.00  0.00     0.000 C
ATOM     50  C3  NAG B   4       3.625  25.394   2.1120  0.00  0.00     0.000 C
ATOM     51  C4  NAG B   4       2.140  25.014   2.1630  0.00  0.00     0.000 C
ATOM     52  C5  NAG B   4       1.858  24.048   3.3020  0.00  0.00     0.000 C
ATOM     53  O5  NAG B   4       2.852  23.011   3.4550  0.00  0.00     0.000 O
BRANCH 49 56
ATOM     54   N  NAG B   4       5.635  24.620   2.8270  0.00  0.00     0.000 N
ATOM     56  HD  NAG B   4       5.538  24.837   3.6600  0.00  0.00     0.000 HD
ATOM     56   C  NAG B   4       7.862  25.222   3.5790  0.00  0.00     0.000 C
ATOM     57   O  NAG B   4       7.306  24.935   1.3190  0.00  0.00     0.000 OA
ATOM     58   C  NAG B   4       6.900  24.918   2.4720  0.00  0.00     0.000 C
ENDBRANCH 49 56
ATOM     59   O  NAG B   4      -0.022  22.799   4.3020  0.00  0.00     0.000 O
ATOM     61  HD  NAG B   4       0.641  22.820   3.7450  0.00  0.00     0.000 HD
ATOM     61   O  NAG B   4      -0.022  22.799   4.3020  0.00  0.00     0.000 O
ATOM     63  HD  NAG B   4       0.641  22.820   3.7450  0.00  0.00     0.000 HD
ENDBRANCH 47 50
ENDBRANCH 34 47
ENDBRANCH 33 37
ENDBRANCH 17 33
ENDBRANCH 16 19
ENDBRANCH 1 16
TORSDOF 10
ENDMDL
MODEL 41
REMARK VINA RESULT:      -7.3      3.986     11.269
ROOT
ATOM      1  C1  GCU B   1       0.960  27.734  -6.6730  0.00  0.00     0.000 C
ATOM      2  C2  GCU B   1       0.307  26.499  -7.2750  0.00  0.00     0.000 C
ATOM      3  C3  GCU B   1      -1.203  26.559  -7.1030  0.00  0.00     0.000 C
ATOM      4  C4  GCU B   1      -1.556  26.836  -5.6500  0.00  0.00     0.000 C
ATOM      5  C5  GCU B   1      -0.801  28.058  -5.1240  0.00  0.00     0.000 C
ATOM      6  O5  GCU B   1       0.607  27.846  -5.2850  0.00  0.00     0.000 O
ATOM      7   O  GCU B   1       0.656  26.454  -8.6550  0.00  0.00     0.000 O
ATOM      9  HD  GCU B   1       1.005  25.780  -9.0720  0.00  0.00     0.000 HD
ATOM      9   O  GCU B   1      -1.807  25.332  -7.5220  0.00  0.00     0.000 O
ATOM     11  HD  GCU B   1      -1.458  24.658  -7.9390  0.00  0.00     0.000 HD
ATOM     11   O  GCU B   1      -2.963  27.056  -5.5500  0.00  0.00     0.000 O
ATOM     13  HD  GCU B   1      -2.615  26.382  -5.9670  0.00  0.00     0.000 HD
ENDROOT
BRANCH 5 13
ATOM     13   C  GCU B   1      -1.181  28.317  -3.6860  0.00  0.00     0.000 C
ATOM     14   O  GCU B   1      -1.567  27.380  -2.9570  0.00  0.00     0.000 OA
ATOM     15   O  GCU B   1      -1.065  29.483  -3.2620  0.00  0.00     0.000 OA
ENDBRANCH 5 13
BRANCH 1 16
ATOM     16  O3  NAG B   2       2.205  27.849  -6.2050  0.00  0.00     0.000 O
BRANCH 16 19
ATOM     17  C1  NAG B   2       5.435  29.684  -6.8570  0.00  0.00     0.000 C
ATOM     18  C2  NAG B   2       4.357  28.626  -7.0530  0.00  0.00     0.000 C
ATOM     19  C3  NAG B   2       3.149  28.930  -6.1680  0.00  0.00     0.000 C
ATOM     20  C4  NAG B   2       3.588  29.128  -4.7180  0.00  0.00     0.000 C
ATOM     21  C5  NAG B   2       4.660  30.207  -4.6460  0.00  0.00     0.000 C
ATOM     22  O5  NAG B   2       5.773  29.812  -5.4670  0.00  0.00     0.000 O
ATOM     23   O  NAG B   2       2.439  29.487  -3.9430  0.00  0.00     0.000 O
ATOM     25  HD  NAG B   2       2.793  28.711  -3.7890  0.00  0.00     0.000 HD
ATOM     25   C  NAG B   2       5.137  30.471  -3.2190  0.00  0.00     0.000 C
ATOM     26   O  NAG B   2       5.963  29.404  -2.7300  0.00  0.00     0.000 O
ATOM     28  HD  NAG B   2       6.317  28.628  -2.5760  0.00  0.00     0.000 HD
BRANCH 18 30
ATOM     28   N  NAG B   2       4.747  28.507  -8.4450  0.00  0.00     0.000 N
ATOM     30  HD  NAG B   2       4.153  27.884  -8.3520  0.00  0.00     0.000 HD
ATOM     30   C  NAG B   2       4.325  27.530  -9.2570  0.00  0.00     0.000 C
ATOM     31   C  NAG B   2       4.854  27.517 -10.6640  0.00  0.00     0.000 C
ATOM     32   O  NAG B   2       3.544  26.678  -8.8830  0.00  0.00     0.000 OA
ENDBRANCH 18 30
BRANCH 17 33
ATOM     33  O4  GCU B   3       6.557  29.322  -7.6870  0.00  0.00     0.000 O
BRANCH 33 37
ATOM     34  C1  GCU B   3      10.035  31.402  -8.6430  0.00  0.00     0.000 C
ATOM     35  C2  GCU B   3       9.891  30.878  -7.2140  0.00  0.00     0.000 C
ATOM     36  C3  GCU B   3       8.813  29.816  -7.1690  0.00  0.00     0.000 C
ATOM     37  C4  GCU B   3       7.518  30.378  -7.7400  0.00  0.00     0.000 C
ATOM     38  C5  GCU B   3       7.758  30.873  -9.1680  0.00  0.00     0.000 C
ATOM     39  O5  GCU B   3       8.778  31.876  -9.1370  0.00  0.00     0.000 O
ATOM     40   O  GCU B   3      11.142  30.330  -6.7940  0.00  0.00     0.000 O
ATOM     42  HD  GCU B   3      11.494  29.626  -6.4320  0.00  0.00     0.000 HD
ATOM     42   O  GCU B   3       8.600  29.351  -5.8240  0.00  0.00     0.000 O
ATOM     44  HD  GCU B   3       8.952  28.648  -5.4620  0.00  0.00     0.000 HD
BRANCH 38 44
ATOM     44   C  GCU B   3       6.521  31.468  -9.7920  0.00  0.00     0.000 C
ATOM     45   O  GCU B   3       6.391  32.702  -9.7910  0.00  0.00     0.000 OA
ATOM     46   O  GCU B   3       5.662  30.720 -10.2960  0.00  0.00     0.000 OA
ENDBRANCH 38 44
BRANCH 34 47
ATOM     47  O3  NAG B   4      10.827  32.465  -8.6310  0.00  0.00     0.000 O
BRANCH 47 50
ATOM     48  C1  NAG B   4      11.655  36.079  -8.6910  0.00  0.00     0.000 C
ATOM     49  C2  NAG B   4      11.192  34.727  -9.2230  0.00  0.00     0.000 C
ATOM     50  C3  NAG B   4      10.806  33.786  -8.0940  0.00  0.00     0.000 C
ATOM     51  C4  NAG B   4      11.743  33.858  -6.8820  0.00  0.00     0.000 C
ATOM     52  C5  NAG B   4      11.772  35.257  -6.2910  0.00  0.00     0.000 C
ATOM     53  O5  NAG B   4      11.818  36.313  -7.2760  0.00  0.00     0.000 O
BRANCH 49 56
ATOM     54   N  NAG B   4      10.125  35.053 -10.1860  0.00  0.00     0.000 N
ATOM     56  HD  NAG B   4      10.238  35.221 -11.0280  0.00  0.00     0.000 HD
ATOM     56   C  NAG B   4       7.903  35.544 -11.0310  0.00  0.00     0.000 C
ATOM     57   O  NAG B   4       8.406  35.412  -8.7440  0.00  0.00     0.000 OA
ATOM     58   C  NAG B   4       8.843  35.336  -9.8820  0.00  0.00     0.000 C
ENDBRANCH 49 56
ATOM     59   O  NAG B   4      12.852  36.518  -4.4640  0.00  0.00     0.000 O
ATOM     61  HD  NAG B   4      12.853  36.267  -5.2920  0.00  0.00     0.000 HD
ATOM     61   O  NAG B   4      12.852  36.518  -4.4640  0.00  0.00     0.000 O
ATOM     63  HD  NAG B   4      12.853  36.267  -5.2920  0.00  0.00     0.000 HD
ENDBRANCH 47 50
ENDBRANCH 34 47
ENDBRANCH 33 37
ENDBRANCH 17 33
ENDBRANCH 16 19
ENDBRANCH 1 16
TORSDOF 10
ENDMDL
MODEL 42
REMARK VINA RESULT:      -7.3      6.097     12.050
ROOT
ATOM      1  C1  GCU B   1       2.789  29.050  -5.4890  0.00  0.00     0.000 C
ATOM      2  C2  GCU B   1       1.503  29.572  -4.8670  0.00  0.00     0.000 C
ATOM      3  C3  GCU B   1       0.448  28.477  -4.8300  0.00  0.00     0.000 C
ATOM      4  C4  GCU B   1       0.294  27.849  -6.2070  0.00  0.00     0.000 C
ATOM      5  C5  GCU B   1       1.649  27.415  -6.7680  0.00  0.00     0.000 C
ATOM      6  O5  GCU B   1       2.525  28.550  -6.8090  0.00  0.00     0.000 O
ATOM      7   O  GCU B   1       1.810  30.021  -3.5510  0.00  0.00     0.000 O
ATOM      9  HD  GCU B   1       1.619  30.798  -3.2190  0.00  0.00     0.000 HD
ATOM      9   O  GCU B   1      -0.809  29.002  -4.3950  0.00  0.00     0.000 O
ATOM     11  HD  GCU B   1      -0.999  29.779  -4.0630  0.00  0.00     0.000 HD
ATOM     11   O  GCU B   1      -0.571  26.718  -6.1040  0.00  0.00     0.000 O
ATOM     13  HD  GCU B   1      -0.762  27.495  -5.7720  0.00  0.00     0.000 HD
ENDROOT
BRANCH 5 13
ATOM     13   C  GCU B   1       1.464  26.784  -8.1270  0.00  0.00     0.000 C
ATOM     14   O  GCU B   1       0.785  25.744  -8.2530  0.00  0.00     0.000 OA
ATOM     15   O  GCU B   1       1.988  27.357  -9.1020  0.00  0.00     0.000 OA
ENDBRANCH 5 13
BRANCH 1 16
ATOM     16  O3  NAG B   2       3.734  29.756  -6.1150  0.00  0.00     0.000 O
BRANCH 16 19
ATOM     17  C1  NAG B   2       7.413  30.074  -5.3480  0.00  0.00     0.000 C
ATOM     18  C2  NAG B   2       5.915  30.092  -5.0740  0.00  0.00     0.000 C
ATOM     19  C3  NAG B   2       5.147  29.575  -6.2890  0.00  0.00     0.000 C
ATOM     20  C4  NAG B   2       5.572  30.331  -7.5480  0.00  0.00     0.000 C
ATOM     21  C5  NAG B   2       7.081  30.240  -7.7200  0.00  0.00     0.000 C
ATOM     22  O5  NAG B   2       7.717  30.793  -6.5540  0.00  0.00     0.000 O
ATOM     23   O  NAG B   2       4.886  29.762  -8.6690  0.00  0.00     0.000 O
ATOM     25  HD  NAG B   2       4.666  30.567  -8.4390  0.00  0.00     0.000 HD
ATOM     25   C  NAG B   2       7.577  30.962  -8.9710  0.00  0.00     0.000 C
ATOM     26   O  NAG B   2       7.527  32.389  -8.8150  0.00  0.00     0.000 O
ATOM     28  HD  NAG B   2       7.307  33.194  -8.5840  0.00  0.00     0.000 HD
BRANCH 18 30
ATOM     28   N  NAG B   2       5.968  29.451  -3.7740  0.00  0.00     0.000 N
ATOM     30  HD  NAG B   2       5.338  30.037  -3.6790  0.00  0.00     0.000 HD
ATOM     30   C  NAG B   2       5.259  29.855  -2.7130  0.00  0.00     0.000 C
ATOM     31   C  NAG B   2       5.457  29.115  -1.4200  0.00  0.00     0.000 C
ATOM     32   O  NAG B   2       4.483  30.787  -2.7790  0.00  0.00     0.000 OA
ENDBRANCH 18 30
BRANCH 17 33
ATOM     33  O4  GCU B   3       8.076  30.605  -4.1830  0.00  0.00     0.000 O
BRANCH 33 37
ATOM     34  C1  GCU B   3      12.051  30.353  -2.9710  0.00  0.00     0.000 C
ATOM     35  C2  GCU B   3      11.671  31.485  -3.9260  0.00  0.00     0.000 C
ATOM     36  C3  GCU B   3      10.169  31.676  -3.9130  0.00  0.00     0.000 C
ATOM     37  C4  GCU B   3       9.482  30.357  -4.2350  0.00  0.00     0.000 C
ATOM     38  C5  GCU B   3       9.920  29.290  -3.2300  0.00  0.00     0.000 C
ATOM     39  O5  GCU B   3      11.343  29.154  -3.3000  0.00  0.00     0.000 O
ATOM     40   O  GCU B   3      12.326  32.684  -3.5070  0.00  0.00     0.000 O
ATOM     42  HD  GCU B   3      12.178  33.519  -3.3330  0.00  0.00     0.000 HD
ATOM     42   O  GCU B   3       9.767  32.687  -4.8550  0.00  0.00     0.000 O
ATOM     44  HD  GCU B   3       9.620  33.522  -4.6810  0.00  0.00     0.000 HD
BRANCH 38 44
ATOM     44   C  GCU B   3       9.297  27.943  -3.5020  0.00  0.00     0.000 C
ATOM     45   O  GCU B   3       8.296  27.610  -2.8510  0.00  0.00     0.000 OA
ATOM     46   O  GCU B   3       9.792  27.198  -4.3700  0.00  0.00     0.000 OA
ENDBRANCH 38 44
BRANCH 34 47
ATOM     47  O3  NAG B   4      13.332  30.059  -3.1460  0.00  0.00     0.000 O
BRANCH 47 50
ATOM     48  C1  NAG B   4      17.034  30.123  -2.9340  0.00  0.00     0.000 C
ATOM     49  C2  NAG B   4      15.649  30.348  -3.5320  0.00  0.00     0.000 C
ATOM     50  C3  NAG B   4      14.566  30.288  -2.4670  0.00  0.00     0.000 C
ATOM     51  C4  NAG B   4      14.785  29.186  -1.4240  0.00  0.00     0.000 C
ATOM     52  C5  NAG B   4      16.103  29.375  -0.6920  0.00  0.00     0.000 C
ATOM     53  O5  NAG B   4      17.202  29.760  -1.5470  0.00  0.00     0.000 O
BRANCH 49 56
ATOM     54   N  NAG B   4      15.837  31.802  -3.6790  0.00  0.00     0.000 N
ATOM     56  HD  NAG B   4      16.169  32.332  -3.0790  0.00  0.00     0.000 HD
ATOM     56   C  NAG B   4      15.743  34.012  -4.6770  0.00  0.00     0.000 C
ATOM     57   O  NAG B   4      14.626  32.154  -5.5700  0.00  0.00     0.000 OA
ATOM     58   C  NAG B   4      15.347  32.568  -4.6740  0.00  0.00     0.000 C
ENDBRANCH 49 56
ATOM     59   O  NAG B   4      17.464  28.300   1.0650  0.00  0.00     0.000 O
ATOM     61  HD  NAG B   4      17.279  28.393   0.2240  0.00  0.00     0.000 HD
ATOM     61   O  NAG B   4      17.464  28.300   1.0650  0.00  0.00     0.000 O
ATOM     63  HD  NAG B   4      17.279  28.393   0.2240  0.00  0.00     0.000 HD
ENDBRANCH 47 50
ENDBRANCH 34 47
ENDBRANCH 33 37
ENDBRANCH 17 33
ENDBRANCH 16 19
ENDBRANCH 1 16
TORSDOF 10
ENDMDL
MODEL 43
REMARK VINA RESULT:      -7.2      4.005     12.102
ROOT
ATOM      1  C1  GCU B   1       4.684  30.405  -6.9530  0.00  0.00     0.000 C
ATOM      2  C2  GCU B   1       3.420  29.563  -7.0350  0.00  0.00     0.000 C
ATOM      3  C3  GCU B   1       2.550  29.790  -5.8090  0.00  0.00     0.000 C
ATOM      4  C4  GCU B   1       3.370  29.606  -4.5410  0.00  0.00     0.000 C
ATOM      5  C5  GCU B   1       4.647  30.448  -4.5860  0.00  0.00     0.000 C
ATOM      6  O5  GCU B   1       5.404  30.091  -5.7500  0.00  0.00     0.000 O
ATOM      7   O  GCU B   1       2.727  29.937  -8.2220  0.00  0.00     0.000 O
ATOM      9  HD  GCU B   1       2.448  29.399  -8.8410  0.00  0.00     0.000 HD
ATOM      9   O  GCU B   1       1.442  28.886  -5.8030  0.00  0.00     0.000 O
ATOM     11  HD  GCU B   1       1.162  28.349  -6.4220  0.00  0.00     0.000 HD
ATOM     11   O  GCU B   1       2.576  29.991  -3.4180  0.00  0.00     0.000 O
ATOM     13  HD  GCU B   1       2.297  29.454  -4.0370  0.00  0.00     0.000 HD
ENDROOT
BRANCH 5 13
ATOM     13   C  GCU B   1       5.432  30.257  -3.3100  0.00  0.00     0.000 C
ATOM     14   O  GCU B   1       5.210  30.980  -2.3180  0.00  0.00     0.000 OA
ATOM     15   O  GCU B   1       6.277  29.341  -3.2890  0.00  0.00     0.000 OA
ENDBRANCH 5 13
BRANCH 1 16
ATOM     16  O3  NAG B   2       5.861  30.163  -7.5340  0.00  0.00     0.000 O
BRANCH 16 19
ATOM     17  C1  NAG B   2       8.002  32.169  -9.9050  0.00  0.00     0.000 C
ATOM     18  C2  NAG B   2       6.760  31.440  -9.4090  0.00  0.00     0.000 C
ATOM     19  C3  NAG B   2       6.945  31.006  -7.9570  0.00  0.00     0.000 C
ATOM     20  C4  NAG B   2       8.247  30.221  -7.7970  0.00  0.00     0.000 C
ATOM     21  C5  NAG B   2       9.414  31.047  -8.3200  0.00  0.00     0.000 C
ATOM     22  O5  NAG B   2       9.176  31.365  -9.7030  0.00  0.00     0.000 O
ATOM     23   O  NAG B   2       8.416  29.904  -6.4110  0.00  0.00     0.000 O
ATOM     25  HD  NAG B   2       8.258  29.245  -6.9510  0.00  0.00     0.000 HD
ATOM     25   C  NAG B   2      10.755  30.330  -8.1780  0.00  0.00     0.000 C
ATOM     26   O  NAG B   2      10.888  29.261  -9.1270  0.00  0.00     0.000 O
ATOM     28  HD  NAG B   2      10.730  28.602  -9.6670  0.00  0.00     0.000 HD
BRANCH 18 30
ATOM     28   N  NAG B   2       5.857  32.395 -10.0240  0.00  0.00     0.000 N
ATOM     30  HD  NAG B   2       5.379  31.674  -9.9750  0.00  0.00     0.000 HD
ATOM     30   C  NAG B   2       4.644  32.079 -10.4940  0.00  0.00     0.000 C
ATOM     31   C  NAG B   2       3.842  33.171 -11.1450  0.00  0.00     0.000 C
ATOM     32   O  NAG B   2       4.196  30.953 -10.4060  0.00  0.00     0.000 OA
ENDBRANCH 18 30
BRANCH 17 33
ATOM     33  O4  GCU B   3       7.780  32.518 -11.2860  0.00  0.00     0.000 O
BRANCH 33 37
ATOM     34  C1  GCU B   3       9.399  35.677 -13.4630  0.00  0.00     0.000 C
ATOM     35  C2  GCU B   3       9.947  34.274 -13.7320  0.00  0.00     0.000 C
ATOM     36  C3  GCU B   3       8.981  33.241 -13.1940  0.00  0.00     0.000 C
ATOM     37  C4  GCU B   3       8.710  33.512 -11.7210  0.00  0.00     0.000 C
ATOM     38  C5  GCU B   3       8.165  34.931 -11.5500  0.00  0.00     0.000 C
ATOM     39  O5  GCU B   3       9.127  35.854 -12.0700  0.00  0.00     0.000 O
ATOM     40   O  GCU B   3      10.117  34.106 -15.1410  0.00  0.00     0.000 O
ATOM     42  HD  GCU B   3       9.936  33.565 -15.7930  0.00  0.00     0.000 HD
ATOM     42   O  GCU B   3       9.499  31.909 -13.3650  0.00  0.00     0.000 O
ATOM     44  HD  GCU B   3       9.318  31.368 -14.0160  0.00  0.00     0.000 HD
BRANCH 38 44
ATOM     44   C  GCU B   3       7.896  35.282 -10.1080  0.00  0.00     0.000 C
ATOM     45   O  GCU B   3       8.858  35.558  -9.3750  0.00  0.00     0.000 OA
ATOM     46   O  GCU B   3       6.725  35.291  -9.6830  0.00  0.00     0.000 OA
ENDBRANCH 38 44
BRANCH 34 47
ATOM     47  O3  NAG B   4      10.340  36.565 -13.7490  0.00  0.00     0.000 O
BRANCH 47 50
ATOM     48  C1  NAG B   4      10.760  40.216 -13.2480  0.00  0.00     0.000 C
ATOM     49  C2  NAG B   4      11.047  38.726 -13.0900  0.00  0.00     0.000 C
ATOM     50  C3  NAG B   4      10.409  37.915 -14.2060  0.00  0.00     0.000 C
ATOM     51  C4  NAG B   4       9.004  38.393 -14.5930  0.00  0.00     0.000 C
ATOM     52  C5  NAG B   4       9.025  39.838 -15.0630  0.00  0.00     0.000 C
ATOM     53  O5  NAG B   4       9.868  40.704 -14.2710  0.00  0.00     0.000 O
BRANCH 49 56
ATOM     54   N  NAG B   4      12.509  38.573 -12.9890  0.00  0.00     0.000 N
ATOM     56  HD  NAG B   4      12.956  38.468 -12.2550  0.00  0.00     0.000 HD
ATOM     56   C  NAG B   4      14.832  38.464 -13.6830  0.00  0.00     0.000 C
ATOM     57   O  NAG B   4      13.101  39.161 -15.1040  0.00  0.00     0.000 OA
ATOM     58   C  NAG B   4      13.397  38.771 -13.9840  0.00  0.00     0.000 C
ENDBRANCH 49 56
ATOM     59   O  NAG B   4       7.482  41.590 -15.8670  0.00  0.00     0.000 O
ATOM     61  HD  NAG B   4       7.900  41.216 -15.2070  0.00  0.00     0.000 HD
ATOM     61   O  NAG B   4       7.482  41.590 -15.8670  0.00  0.00     0.000 O
ATOM     63  HD  NAG B   4       7.900  41.216 -15.2070  0.00  0.00     0.000 HD
ENDBRANCH 47 50
ENDBRANCH 34 47
ENDBRANCH 33 37
ENDBRANCH 17 33
ENDBRANCH 16 19
ENDBRANCH 1 16
TORSDOF 10
ENDMDL
MODEL 44
REMARK VINA RESULT:      -7.2      4.959      7.366
ROOT
ATOM      1  C1  GCU B   1       6.391  31.207  -9.3320  0.00  0.00     0.000 C
ATOM      2  C2  GCU B   1       7.347  31.502 -10.4770  0.00  0.00     0.000 C
ATOM      3  C3  GCU B   1       6.961  32.800 -11.1700  0.00  0.00     0.000 C
ATOM      4  C4  GCU B   1       5.487  32.778 -11.5450  0.00  0.00     0.000 C
ATOM      5  C5  GCU B   1       4.619  32.412 -10.3400  0.00  0.00     0.000 C
ATOM      6  O5  GCU B   1       5.043  31.143  -9.8240  0.00  0.00     0.000 O
ATOM      7   O  GCU B   1       8.660  31.591  -9.9330  0.00  0.00     0.000 O
ATOM      9  HD  GCU B   1       9.358  31.160 -10.2090  0.00  0.00     0.000 HD
ATOM      9   O  GCU B   1       7.756  33.001 -12.3420  0.00  0.00     0.000 O
ATOM     11  HD  GCU B   1       8.453  32.570 -12.6180  0.00  0.00     0.000 HD
ATOM     11   O  GCU B   1       5.116  34.068 -12.0340  0.00  0.00     0.000 O
ATOM     13  HD  GCU B   1       5.814  33.636 -12.3100  0.00  0.00     0.000 HD
ENDROOT
BRANCH 5 13
ATOM     13   C  GCU B   1       3.162  32.412 -10.7380  0.00  0.00     0.000 C
ATOM     14   O  GCU B   1       2.511  33.476 -10.7500  0.00  0.00     0.000 OA
ATOM     15   O  GCU B   1       2.660  31.322 -11.0740  0.00  0.00     0.000 OA
ENDBRANCH 5 13
BRANCH 1 16
ATOM     16  O3  NAG B   2       6.090  30.015  -8.8100  0.00  0.00     0.000 O
BRANCH 16 19
ATOM     17  C1  NAG B   2       5.695  28.774  -5.2700  0.00  0.00     0.000 C
ATOM     18  C2  NAG B   2       6.399  29.392  -6.4710  0.00  0.00     0.000 C
ATOM     19  C3  NAG B   2       5.409  29.605  -7.6150  0.00  0.00     0.000 C
ATOM     20  C4  NAG B   2       4.658  28.308  -7.9170  0.00  0.00     0.000 C
ATOM     21  C5  NAG B   2       3.994  27.789  -6.6500  0.00  0.00     0.000 C
ATOM     22  O5  NAG B   2       5.005  27.572  -5.6500  0.00  0.00     0.000 O
ATOM     23   O  NAG B   2       3.690  28.575  -8.9380  0.00  0.00     0.000 O
ATOM     25  HD  NAG B   2       4.357  28.064  -9.1500  0.00  0.00     0.000 HD
ATOM     25   C  NAG B   2       3.209  26.499  -6.8800  0.00  0.00     0.000 C
ATOM     26   O  NAG B   2       4.081  25.374  -7.0670  0.00  0.00     0.000 O
ATOM     28  HD  NAG B   2       4.748  24.863  -7.2790  0.00  0.00     0.000 HD
BRANCH 18 30
ATOM     28   N  NAG B   2       7.251  30.147  -5.5730  0.00  0.00     0.000 N
ATOM     30  HD  NAG B   2       7.600  30.300  -6.3510  0.00  0.00     0.000 HD
ATOM     30   C  NAG B   2       8.369  30.776  -5.9570  0.00  0.00     0.000 C
ATOM     31   C  NAG B   2       9.171  31.480  -4.8990  0.00  0.00     0.000 C
ATOM     32   O  NAG B   2       8.735  30.782  -7.1160  0.00  0.00     0.000 OA
ENDBRANCH 18 30
BRANCH 17 33
ATOM     33  O4  GCU B   3       6.685  28.565  -4.2440  0.00  0.00     0.000 O
BRANCH 33 37
ATOM     34  C1  GCU B   3       6.305  27.146  -0.3480  0.00  0.00     0.000 C
ATOM     35  C2  GCU B   3       6.452  26.115  -1.4680  0.00  0.00     0.000 C
ATOM     36  C3  GCU B   3       6.995  26.790  -2.7100  0.00  0.00     0.000 C
ATOM     37  C4  GCU B   3       6.105  27.966  -3.0840  0.00  0.00     0.000 C
ATOM     38  C5  GCU B   3       6.019  28.941  -1.9090  0.00  0.00     0.000 C
ATOM     39  O5  GCU B   3       5.493  28.244  -0.7750  0.00  0.00     0.000 O
ATOM     40   O  GCU B   3       7.343  25.085  -1.0350  0.00  0.00     0.000 O
ATOM     42  HD  GCU B   3       8.044  24.640  -1.2790  0.00  0.00     0.000 HD
ATOM     42   O  GCU B   3       7.079  25.863  -3.8080  0.00  0.00     0.000 O
ATOM     44  HD  GCU B   3       7.780  25.418  -4.0510  0.00  0.00     0.000 HD
BRANCH 38 44
ATOM     44   C  GCU B   3       5.130  30.125  -2.1980  0.00  0.00     0.000 C
ATOM     45   O  GCU B   3       5.658  31.229  -2.4000  0.00  0.00     0.000 OA
ATOM     46   O  GCU B   3       3.894  29.975  -2.2310  0.00  0.00     0.000 OA
ENDBRANCH 38 44
BRANCH 34 47
ATOM     47  O3  NAG B   4       5.641  26.593   0.6570  0.00  0.00     0.000 O
BRANCH 47 50
ATOM     48  C1  NAG B   4       3.077  23.915   0.5560  0.00  0.00     0.000 C
ATOM     49  C2  NAG B   4       4.441  24.557   0.7870  0.00  0.00     0.000 C
ATOM     50  C3  NAG B   4       4.335  26.069   0.8930  0.00  0.00     0.000 C
ATOM     51  C4  NAG B   4       3.349  26.690  -0.1030  0.00  0.00     0.000 C
ATOM     52  C5  NAG B   4       1.946  26.141   0.0960  0.00  0.00     0.000 C
ATOM     53  O5  NAG B   4       1.899  24.717   0.3340  0.00  0.00     0.000 O
BRANCH 49 56
ATOM     54   N  NAG B   4       4.580  24.309   2.2330  0.00  0.00     0.000 N
ATOM     56  HD  NAG B   4       4.151  24.723   2.8600  0.00  0.00     0.000 HD
ATOM     56   C  NAG B   4       5.423  23.359   4.3010  0.00  0.00     0.000 C
ATOM     57   O  NAG B   4       6.443  23.006   2.2190  0.00  0.00     0.000 OA
ATOM     58   C  NAG B   4       5.529  23.552   2.8190  0.00  0.00     0.000 C
ENDBRANCH 49 56
ATOM     59   O  NAG B   4      -0.323  26.353  -0.8550  0.00  0.00     0.000 O
ATOM     61  HD  NAG B   4       0.440  25.943  -0.8410  0.00  0.00     0.000 HD
ATOM     61   O  NAG B   4      -0.323  26.353  -0.8550  0.00  0.00     0.000 O
ATOM     63  HD  NAG B   4       0.440  25.943  -0.8410  0.00  0.00     0.000 HD
ENDBRANCH 47 50
ENDBRANCH 34 47
ENDBRANCH 33 37
ENDBRANCH 17 33
ENDBRANCH 16 19
ENDBRANCH 1 16
TORSDOF 10
ENDMDL
MODEL 45
REMARK VINA RESULT:      -7.2      4.989      7.206
ROOT
ATOM      1  C1  GCU B   1       6.782  31.476  -9.3510  0.00  0.00     0.000 C
ATOM      2  C2  GCU B   1       8.097  31.831 -10.0270  0.00  0.00     0.000 C
ATOM      3  C3  GCU B   1       8.089  33.284 -10.4760  0.00  0.00     0.000 C
ATOM      4  C4  GCU B   1       6.840  33.574 -11.2940  0.00  0.00     0.000 C
ATOM      5  C5  GCU B   1       5.580  33.125 -10.5520  0.00  0.00     0.000 C
ATOM      6  O5  GCU B   1       5.688  31.729 -10.2460  0.00  0.00     0.000 O
ATOM      7   O  GCU B   1       9.143  31.599  -9.0890  0.00  0.00     0.000 O
ATOM      9  HD  GCU B   1       9.854  31.122  -9.2240  0.00  0.00     0.000 HD
ATOM      9   O  GCU B   1       9.254  33.578 -11.2510  0.00  0.00     0.000 O
ATOM     11  HD  GCU B   1       9.965  33.102 -11.3860  0.00  0.00     0.000 HD
ATOM     11   O  GCU B   1       6.774  34.977 -11.5540  0.00  0.00     0.000 O
ATOM     13  HD  GCU B   1       7.485  34.500 -11.6890  0.00  0.00     0.000 HD
ENDROOT
BRANCH 5 13
ATOM     13   C  GCU B   1       4.357  33.438 -11.3810  0.00  0.00     0.000 C
ATOM     14   O  GCU B   1       4.475  33.781 -12.5750  0.00  0.00     0.000 OA
ATOM     15   O  GCU B   1       3.245  33.312 -10.8320  0.00  0.00     0.000 OA
ENDBRANCH 5 13
BRANCH 1 16
ATOM     16  O3  NAG B   2       6.218  30.270  -9.2510  0.00  0.00     0.000 O
BRANCH 16 19
ATOM     17  C1  NAG B   2       4.937  28.359  -6.2620  0.00  0.00     0.000 C
ATOM     18  C2  NAG B   2       5.941  29.126  -7.1140  0.00  0.00     0.000 C
ATOM     19  C3  NAG B   2       5.254  29.703  -8.3510  0.00  0.00     0.000 C
ATOM     20  C4  NAG B   2       4.494  28.607  -9.0970  0.00  0.00     0.000 C
ATOM     21  C5  NAG B   2       3.522  27.917  -8.1510  0.00  0.00     0.000 C
ATOM     22  O5  NAG B   2       4.261  27.364  -7.0470  0.00  0.00     0.000 O
ATOM     23   O  NAG B   2       3.805  29.208 -10.2000  0.00  0.00     0.000 O
ATOM     25  HD  NAG B   2       4.461  28.674 -10.3870  0.00  0.00     0.000 HD
ATOM     25   C  NAG B   2       2.713  26.817  -8.8340  0.00  0.00     0.000 C
ATOM     26   O  NAG B   2       3.515  25.656  -9.1020  0.00  0.00     0.000 O
ATOM     28  HD  NAG B   2       4.171  25.123  -9.2890  0.00  0.00     0.000 HD
BRANCH 18 30
ATOM     28   N  NAG B   2       6.541  29.813  -5.9870  0.00  0.00     0.000 N
ATOM     30  HD  NAG B   2       7.194  29.753  -6.5520  0.00  0.00     0.000 HD
ATOM     30   C  NAG B   2       7.844  30.106  -5.8990  0.00  0.00     0.000 C
ATOM     31   C  NAG B   2       8.324  30.782  -4.6450  0.00  0.00     0.000 C
ATOM     32   O  NAG B   2       8.623  29.837  -6.7920  0.00  0.00     0.000 OA
ENDBRANCH 18 30
BRANCH 17 33
ATOM     33  O4  GCU B   3       5.651  27.811  -5.1360  0.00  0.00     0.000 O
BRANCH 33 37
ATOM     34  C1  GCU B   3       4.261  26.430  -1.4630  0.00  0.00     0.000 C
ATOM     35  C2  GCU B   3       4.323  25.431  -2.6190  0.00  0.00     0.000 C
ATOM     36  C3  GCU B   3       5.225  25.972  -3.7080  0.00  0.00     0.000 C
ATOM     37  C4  GCU B   3       4.747  27.355  -4.1280  0.00  0.00     0.000 C
ATOM     38  C5  GCU B   3       4.720  28.282  -2.9110  0.00  0.00     0.000 C
ATOM     39  O5  GCU B   3       3.847  27.717  -1.9270  0.00  0.00     0.000 O
ATOM     40   O  GCU B   3       4.829  24.187  -2.1310  0.00  0.00     0.000 O
ATOM     42  HD  GCU B   3       5.422  23.577  -2.2950  0.00  0.00     0.000 HD
ATOM     42   O  GCU B   3       5.249  25.091  -4.8450  0.00  0.00     0.000 O
ATOM     44  HD  GCU B   3       5.842  24.481  -5.0090  0.00  0.00     0.000 HD
BRANCH 38 44
ATOM     44   C  GCU B   3       4.231  29.668  -3.2460  0.00  0.00     0.000 C
ATOM     45   O  GCU B   3       5.055  30.594  -3.2890  0.00  0.00     0.000 OA
ATOM     46   O  GCU B   3       3.021  29.858  -3.4740  0.00  0.00     0.000 OA
ENDBRANCH 38 44
BRANCH 34 47
ATOM     47  O3  NAG B   4       3.316  26.045  -0.6160  0.00  0.00     0.000 O
BRANCH 47 50
ATOM     48  C1  NAG B   4       3.781  24.158   2.5420  0.00  0.00     0.000 C
ATOM     49  C2  NAG B   4       4.149  24.766   1.1930  0.00  0.00     0.000 C
ATOM     50  C3  NAG B   4       3.175  25.862   0.7910  0.00  0.00     0.000 C
ATOM     51  C4  NAG B   4       1.713  25.540   1.1200  0.00  0.00     0.000 C
ATOM     52  C5  NAG B   4       1.520  25.312   2.6100  0.00  0.00     0.000 C
ATOM     53  O5  NAG B   4       2.566  24.529   3.2260  0.00  0.00     0.000 O
BRANCH 49 56
ATOM     54   N  NAG B   4       5.552  25.150   1.4270  0.00  0.00     0.000 N
ATOM     56  HD  NAG B   4       6.223  24.605   1.4780  0.00  0.00     0.000 HD
ATOM     56   C  NAG B   4       7.472  26.563   1.8840  0.00  0.00     0.000 C
ATOM     57   O  NAG B   4       5.257  27.319   2.0370  0.00  0.00     0.000 OA
ATOM     58   C  NAG B   4       5.989  26.371   1.7950  0.00  0.00     0.000 C
ENDBRANCH 49 56
ATOM     59   O  NAG B   4      -0.260  24.743   4.2230  0.00  0.00     0.000 O
ATOM     61  HD  NAG B   4       0.379  24.480   3.7000  0.00  0.00     0.000 HD
ATOM     61   O  NAG B   4      -0.260  24.743   4.2230  0.00  0.00     0.000 O
ATOM     63  HD  NAG B   4       0.379  24.480   3.7000  0.00  0.00     0.000 HD
ENDBRANCH 47 50
ENDBRANCH 34 47
ENDBRANCH 33 37
ENDBRANCH 17 33
ENDBRANCH 16 19
ENDBRANCH 1 16
TORSDOF 10
ENDMDL
MODEL 46
REMARK VINA RESULT:      -7.2      3.941      6.547
ROOT
ATOM      1  C1  GCU B   1       5.777  30.300  -8.9990  0.00  0.00     0.000 C
ATOM      2  C2  GCU B   1       7.190  30.608  -9.4690  0.00  0.00     0.000 C
ATOM      3  C3  GCU B   1       7.345  32.095  -9.7480  0.00  0.00     0.000 C
ATOM      4  C4  GCU B   1       6.236  32.576 -10.6710  0.00  0.00     0.000 C
ATOM      5  C5  GCU B   1       4.862  32.163 -10.1410  0.00  0.00     0.000 C
ATOM      6  O5  GCU B   1       4.827  30.738  -9.9850  0.00  0.00     0.000 O
ATOM      7   O  GCU B   1       8.087  30.191  -8.4450  0.00  0.00     0.000 O
ATOM      9  HD  GCU B   1       8.772  29.671  -8.5470  0.00  0.00     0.000 HD
ATOM      9   O  GCU B   1       8.619  32.367 -10.3390  0.00  0.00     0.000 O
ATOM     11  HD  GCU B   1       9.304  31.847 -10.4410  0.00  0.00     0.000 HD
ATOM     11   O  GCU B   1       6.307  33.998 -10.7760  0.00  0.00     0.000 O
ATOM     13  HD  GCU B   1       6.992  33.478 -10.8780  0.00  0.00     0.000 HD
ENDROOT
BRANCH 5 13
ATOM     13   C  GCU B   1       3.782  32.664 -11.0690  0.00  0.00     0.000 C
ATOM     14   O  GCU B   1       2.592  32.696 -10.6930  0.00  0.00     0.000 OA
ATOM     15   O  GCU B   1       4.133  33.064 -12.1960  0.00  0.00     0.000 OA
ENDBRANCH 5 13
BRANCH 1 16
ATOM     16  O3  NAG B   2       5.118  29.144  -9.1060  0.00  0.00     0.000 O
BRANCH 16 19
ATOM     17  C1  NAG B   2       3.080  27.444  -6.4250  0.00  0.00     0.000 C
ATOM     18  C2  NAG B   2       4.267  28.182  -7.0310  0.00  0.00     0.000 C
ATOM     19  C3  NAG B   2       3.950  28.611  -8.4630  0.00  0.00     0.000 C
ATOM     20  C4  NAG B   2       3.461  27.415  -9.2800  0.00  0.00     0.000 C
ATOM     21  C5  NAG B   2       2.276  26.763  -8.5830  0.00  0.00     0.000 C
ATOM     22  O5  NAG B   2       2.681  26.349  -7.2660  0.00  0.00     0.000 O
ATOM     23   O  NAG B   2       3.104  27.879 -10.5870  0.00  0.00     0.000 O
ATOM     25  HD  NAG B   2       3.798  27.365 -10.5270  0.00  0.00     0.000 HD
ATOM     25   C  NAG B   2       1.723  25.567  -9.3530  0.00  0.00     0.000 C
ATOM     26   O  NAG B   2       2.595  24.430  -9.2650  0.00  0.00     0.000 O
ATOM     28  HD  NAG B   2       3.290  23.916  -9.2050  0.00  0.00     0.000 HD
BRANCH 18 30
ATOM     28   N  NAG B   2       5.307  28.234  -6.0210  0.00  0.00     0.000 N
ATOM     30  HD  NAG B   2       5.010  29.047  -6.0410  0.00  0.00     0.000 HD
ATOM     30   C  NAG B   2       5.719  29.363  -5.4310  0.00  0.00     0.000 C
ATOM     31   C  NAG B   2       6.839  29.260  -4.4340  0.00  0.00     0.000 C
ATOM     32   O  NAG B   2       5.216  30.439  -5.6860  0.00  0.00     0.000 OA
ENDBRANCH 18 30
BRANCH 17 33
ATOM     33  O4  GCU B   3       3.454  27.036  -5.0940  0.00  0.00     0.000 O
BRANCH 33 37
ATOM     34  C1  GCU B   3       1.101  26.231  -1.7550  0.00  0.00     0.000 C
ATOM     35  C2  GCU B   3       1.410  25.071  -2.7020  0.00  0.00     0.000 C
ATOM     36  C3  GCU B   3       2.586  25.435  -3.5830  0.00  0.00     0.000 C
ATOM     37  C4  GCU B   3       2.300  26.744  -4.3030  0.00  0.00     0.000 C
ATOM     38  C5  GCU B   3       2.007  27.842  -3.2790  0.00  0.00     0.000 C
ATOM     39  O5  GCU B   3       0.883  27.439  -2.4890  0.00  0.00     0.000 O
ATOM     40   O  GCU B   3       1.712  23.908  -1.9280  0.00  0.00     0.000 O
ATOM     42  HD  GCU B   3       2.297  23.275  -1.8440  0.00  0.00     0.000 HD
ATOM     42   O  GCU B   3       2.860  24.394  -4.5380  0.00  0.00     0.000 O
ATOM     44  HD  GCU B   3       3.444  23.760  -4.4540  0.00  0.00     0.000 HD
BRANCH 38 44
ATOM     44   C  GCU B   3       1.688  29.168  -3.9220  0.00  0.00     0.000 C
ATOM     45   O  GCU B   3       0.562  29.333  -4.4150  0.00  0.00     0.000 OA
ATOM     46   O  GCU B   3       2.550  30.067  -3.9440  0.00  0.00     0.000 OA
ENDBRANCH 38 44
BRANCH 34 47
ATOM     47  O3  NAG B   4      -0.047  25.986  -1.1400  0.00  0.00     0.000 O
BRANCH 47 50
ATOM     48  C1  NAG B   4      -3.744  25.700  -1.2020  0.00  0.00     0.000 C
ATOM     49  C2  NAG B   4      -2.374  26.346  -1.3790  0.00  0.00     0.000 C
ATOM     50  C3  NAG B   4      -1.268  25.305  -1.4230  0.00  0.00     0.000 C
ATOM     51  C4  NAG B   4      -1.457  24.160  -0.4210  0.00  0.00     0.000 C
ATOM     52  C5  NAG B   4      -2.761  23.419  -0.6700  0.00  0.00     0.000 C
ATOM     53  O5  NAG B   4      -3.881  24.282  -0.9690  0.00  0.00     0.000 O
BRANCH 49 56
ATOM     54   N  NAG B   4      -2.360  26.600  -2.8300  0.00  0.00     0.000 N
ATOM     56  HD  NAG B   4      -2.157  26.022  -3.4430  0.00  0.00     0.000 HD
ATOM     56   C  NAG B   4      -2.520  27.822  -4.9210  0.00  0.00     0.000 C
ATOM     57   O  NAG B   4      -2.525  28.867  -2.8220  0.00  0.00     0.000 OA
ATOM     58   C  NAG B   4      -2.461  27.806  -3.4250  0.00  0.00     0.000 C
ENDBRANCH 49 56
ATOM     59   O  NAG B   4      -4.076  21.541   0.2450  0.00  0.00     0.000 O
ATOM     61  HD  NAG B   4      -3.909  22.391   0.2290  0.00  0.00     0.000 HD
ATOM     61   O  NAG B   4      -4.076  21.541   0.2450  0.00  0.00     0.000 O
ATOM     63  HD  NAG B   4      -3.909  22.391   0.2290  0.00  0.00     0.000 HD
ENDBRANCH 47 50
ENDBRANCH 34 47
ENDBRANCH 33 37
ENDBRANCH 17 33
ENDBRANCH 16 19
ENDBRANCH 1 16
TORSDOF 10
ENDMDL
MODEL 47
REMARK VINA RESULT:      -7.2      9.429     13.063
ROOT
ATOM      1  C1  GCU B   1       5.107  26.806   1.1880  0.00  0.00     0.000 C
ATOM      2  C2  GCU B   1       5.972  28.021   1.4870  0.00  0.00     0.000 C
ATOM      3  C3  GCU B   1       7.438  27.623   1.5640  0.00  0.00     0.000 C
ATOM      4  C4  GCU B   1       7.616  26.451   2.5160  0.00  0.00     0.000 C
ATOM      5  C5  GCU B   1       6.659  25.309   2.1660  0.00  0.00     0.000 C
ATOM      6  O5  GCU B   1       5.312  25.800   2.1920  0.00  0.00     0.000 O
ATOM      7   O  GCU B   1       5.760  28.970   0.4470  0.00  0.00     0.000 O
ATOM      9  HD  GCU B   1       5.545  29.802   0.5510  0.00  0.00     0.000 HD
ATOM      9   O  GCU B   1       8.237  28.726   2.0000  0.00  0.00     0.000 O
ATOM     11  HD  GCU B   1       8.022  29.558   2.1040  0.00  0.00     0.000 HD
ATOM     11   O  GCU B   1       8.965  25.992   2.4360  0.00  0.00     0.000 O
ATOM     13  HD  GCU B   1       8.751  26.824   2.5400  0.00  0.00     0.000 HD
ENDROOT
BRANCH 5 13
ATOM     13   C  GCU B   1       6.867  24.155   3.1170  0.00  0.00     0.000 C
ATOM     14   O  GCU B   1       6.796  22.978   2.7070  0.00  0.00     0.000 OA
ATOM     15   O  GCU B   1       7.137  24.430   4.3030  0.00  0.00     0.000 OA
ENDBRANCH 5 13
BRANCH 1 16
ATOM     16  O3  NAG B   2       3.820  26.628   1.4960  0.00  0.00     0.000 O
BRANCH 16 19
ATOM     17  C1  NAG B   2       0.949  25.700  -0.7670  0.00  0.00     0.000 C
ATOM     18  C2  NAG B   2       2.177  26.471  -0.3010  0.00  0.00     0.000 C
ATOM     19  C3  NAG B   2       2.776  25.814   0.9410  0.00  0.00     0.000 C
ATOM     20  C4  NAG B   2       1.702  25.624   2.0120  0.00  0.00     0.000 C
ATOM     21  C5  NAG B   2       0.531  24.840   1.4350  0.00  0.00     0.000 C
ATOM     22  O5  NAG B   2       0.003  25.557   0.3050  0.00  0.00     0.000 O
ATOM     23   O  NAG B   2       2.289  24.937   3.1230  0.00  0.00     0.000 O
ATOM     25  HD  NAG B   2       2.056  25.762   3.2470  0.00  0.00     0.000 HD
ATOM     25   C  NAG B   2      -0.577  24.597   2.4570  0.00  0.00     0.000 C
ATOM     26   O  NAG B   2      -1.318  25.796   2.7310  0.00  0.00     0.000 O
ATOM     28  HD  NAG B   2      -1.550  26.621   2.8550  0.00  0.00     0.000 HD
BRANCH 18 30
ATOM     28   N  NAG B   2       2.712  26.617  -1.6420  0.00  0.00     0.000 N
ATOM     30  HD  NAG B   2       3.032  27.306  -1.2260  0.00  0.00     0.000 HD
ATOM     30   C  NAG B   2       3.405  27.685  -2.0570  0.00  0.00     0.000 C
ATOM     31   C  NAG B   2       3.855  27.709  -3.4900  0.00  0.00     0.000 C
ATOM     32   O  NAG B   2       3.665  28.609  -1.3120  0.00  0.00     0.000 OA
ENDBRANCH 18 30
BRANCH 17 33
ATOM     33  O4  GCU B   3       0.413  26.388  -1.9150  0.00  0.00     0.000 O
BRANCH 33 37
ATOM     34  C1  GCU B   3      -2.642  25.347  -4.5460  0.00  0.00     0.000 C
ATOM     35  C2  GCU B   3      -3.040  25.814  -3.1450  0.00  0.00     0.000 C
ATOM     36  C3  GCU B   3      -1.875  26.537  -2.5020  0.00  0.00     0.000 C
ATOM     37  C4  GCU B   3      -0.647  25.639  -2.5140  0.00  0.00     0.000 C
ATOM     38  C5  GCU B   3      -0.325  25.226  -3.9510  0.00  0.00     0.000 C
ATOM     39  O5  GCU B   3      -1.460  24.544  -4.4940  0.00  0.00     0.000 O
ATOM     40   O  GCU B   3      -4.166  26.687  -3.2500  0.00  0.00     0.000 O
ATOM     42  HD  GCU B   3      -4.459  27.461  -2.9950  0.00  0.00     0.000 HD
ATOM     42   O  GCU B   3      -2.190  26.927  -1.1530  0.00  0.00     0.000 O
ATOM     44  HD  GCU B   3      -2.482  27.701  -0.8980  0.00  0.00     0.000 HD
BRANCH 38 44
ATOM     44   C  GCU B   3       0.871  24.311  -4.0400  0.00  0.00     0.000 C
ATOM     45   O  GCU B   3       1.842  24.667  -4.7250  0.00  0.00     0.000 OA
ATOM     46   O  GCU B   3       0.865  23.226  -3.4280  0.00  0.00     0.000 OA
ENDBRANCH 38 44
BRANCH 34 47
ATOM     47  O3  NAG B   4      -3.588  24.545  -5.0130  0.00  0.00     0.000 O
BRANCH 47 50
ATOM     48  C1  NAG B   4      -2.794  20.975  -4.3920  0.00  0.00     0.000 C
ATOM     49  C2  NAG B   4      -3.069  22.439  -4.0640  0.00  0.00     0.000 C
ATOM     50  C3  NAG B   4      -3.776  23.144  -5.2100  0.00  0.00     0.000 C
ATOM     51  C4  NAG B   4      -3.251  22.750  -6.5960  0.00  0.00     0.000 C
ATOM     52  C5  NAG B   4      -3.409  21.258  -6.8400  0.00  0.00     0.000 C
ATOM     53  O5  NAG B   4      -3.070  20.435  -5.7020  0.00  0.00     0.000 O
BRANCH 49 56
ATOM     54   N  NAG B   4      -4.280  22.361  -3.2290  0.00  0.00     0.000 N
ATOM     56  HD  NAG B   4      -5.096  22.366  -3.5190  0.00  0.00     0.000 HD
ATOM     56   C  NAG B   4      -5.656  22.262  -1.2320  0.00  0.00     0.000 C
ATOM     57   O  NAG B   4      -3.353  22.704  -1.1820  0.00  0.00     0.000 OA
ATOM     58   C  NAG B   4      -4.324  22.469  -1.8860  0.00  0.00     0.000 C
ENDBRANCH 49 56
ATOM     59   O  NAG B   4      -2.940  19.564  -8.5740  0.00  0.00     0.000 O
ATOM     61  HD  NAG B   4      -2.686  19.985  -7.8610  0.00  0.00     0.000 HD
ATOM     61   O  NAG B   4      -2.940  19.564  -8.5740  0.00  0.00     0.000 O
ATOM     63  HD  NAG B   4      -2.686  19.985  -7.8610  0.00  0.00     0.000 HD
ENDBRANCH 47 50
ENDBRANCH 34 47
ENDBRANCH 33 37
ENDBRANCH 17 33
ENDBRANCH 16 19
ENDBRANCH 1 16
TORSDOF 10
ENDMDL
MODEL 48
REMARK VINA RESULT:      -7.2      2.268     11.614
ROOT
ATOM      1  C1  GCU B   1      -0.444  26.345  -5.3320  0.00  0.00     0.000 C
ATOM      2  C2  GCU B   1      -0.974  24.921  -5.2700  0.00  0.00     0.000 C
ATOM      3  C3  GCU B   1      -2.495  24.920  -5.2780  0.00  0.00     0.000 C
ATOM      4  C4  GCU B   1      -3.027  25.857  -4.2060  0.00  0.00     0.000 C
ATOM      5  C5  GCU B   1      -2.387  27.241  -4.3180  0.00  0.00     0.000 C
ATOM      6  O5  GCU B   1      -0.962  27.108  -4.2310  0.00  0.00     0.000 O
ATOM      7   O  GCU B   1      -0.463  24.219  -6.3990  0.00  0.00     0.000 O
ATOM      9  HD  GCU B   1      -0.043  23.462  -6.3820  0.00  0.00     0.000 HD
ATOM      9   O  GCU B   1      -2.999  23.599  -5.0610  0.00  0.00     0.000 O
ATOM     11  HD  GCU B   1      -2.579  22.842  -5.0440  0.00  0.00     0.000 HD
ATOM     11   O  GCU B   1      -4.444  25.966  -4.3500  0.00  0.00     0.000 O
ATOM     13  HD  GCU B   1      -4.024  25.209  -4.3330  0.00  0.00     0.000 HD
ENDROOT
BRANCH 5 13
ATOM     13   C  GCU B   1      -2.944  28.153  -3.2510  0.00  0.00     0.000 C
ATOM     14   O  GCU B   1      -3.801  27.734  -2.4460  0.00  0.00     0.000 OA
ATOM     15   O  GCU B   1      -2.494  29.314  -3.1960  0.00  0.00     0.000 OA
ENDBRANCH 5 13
BRANCH 1 16
ATOM     16  O3  NAG B   2       0.732  26.795  -4.8870  0.00  0.00     0.000 O
BRANCH 16 19
ATOM     17  C1  NAG B   2       3.672  28.358  -6.6580  0.00  0.00     0.000 C
ATOM     18  C2  NAG B   2       2.619  27.302  -6.3480  0.00  0.00     0.000 C
ATOM     19  C3  NAG B   2       1.619  27.836  -5.3240  0.00  0.00     0.000 C
ATOM     20  C4  NAG B   2       2.352  28.381  -4.0980  0.00  0.00     0.000 C
ATOM     21  C5  NAG B   2       3.371  29.427  -4.5290  0.00  0.00     0.000 C
ATOM     22  O5  NAG B   2       4.296  28.823  -5.4500  0.00  0.00     0.000 O
ATOM     23   O  NAG B   2       1.383  28.939  -3.2040  0.00  0.00     0.000 O
ATOM     25  HD  NAG B   2       1.791  28.221  -2.9450  0.00  0.00     0.000 HD
ATOM     25   C  NAG B   2       4.133  30.029  -3.3510  0.00  0.00     0.000 C
ATOM     26   O  NAG B   2       5.086  29.103  -2.8060  0.00  0.00     0.000 O
ATOM     28  HD  NAG B   2       5.495  28.385  -2.5470  0.00  0.00     0.000 HD
BRANCH 18 30
ATOM     28   N  NAG B   2       2.278  26.953  -7.7140  0.00  0.00     0.000 N
ATOM     30  HD  NAG B   2       2.277  26.188  -7.3080  0.00  0.00     0.000 HD
ATOM     30   C  NAG B   2       2.156  25.694  -8.1540  0.00  0.00     0.000 C
ATOM     31   C  NAG B   2       1.842  25.493  -9.6100  0.00  0.00     0.000 C
ATOM     32   O  NAG B   2       2.295  24.741  -7.4140  0.00  0.00     0.000 OA
ENDBRANCH 18 30
BRANCH 17 33
ATOM     33  O4  GCU B   3       4.602  27.784  -7.5980  0.00  0.00     0.000 O
BRANCH 33 37
ATOM     34  C1  GCU B   3       7.442  29.573 -10.0620  0.00  0.00     0.000 C
ATOM     35  C2  GCU B   3       7.829  29.310  -8.6070  0.00  0.00     0.000 C
ATOM     36  C3  GCU B   3       6.876  28.301  -8.0020  0.00  0.00     0.000 C
ATOM     37  C4  GCU B   3       5.444  28.788  -8.1680  0.00  0.00     0.000 C
ATOM     38  C5  GCU B   3       5.147  29.020  -9.6510  0.00  0.00     0.000 C
ATOM     39  O5  GCU B   3       6.075  29.986 -10.1550  0.00  0.00     0.000 O
ATOM     40   O  GCU B   3       9.168  28.811  -8.5670  0.00  0.00     0.000 O
ATOM     42  HD  GCU B   3       9.651  28.173  -8.2370  0.00  0.00     0.000 HD
ATOM     42   O  GCU B   3       7.167  28.084  -6.6090  0.00  0.00     0.000 O
ATOM     44  HD  GCU B   3       7.650  27.446  -6.2800  0.00  0.00     0.000 HD
BRANCH 38 44
ATOM     44   C  GCU B   3       3.748  29.530  -9.8920  0.00  0.00     0.000 C
ATOM     45   O  GCU B   3       2.967  28.829 -10.5530  0.00  0.00     0.000 OA
ATOM     46   O  GCU B   3       3.403  30.632  -9.4250  0.00  0.00     0.000 OA
ENDBRANCH 38 44
BRANCH 34 47
ATOM     47  O3  NAG B   4       8.147  30.600 -10.5140  0.00  0.00     0.000 O
BRANCH 47 50
ATOM     48  C1  NAG B   4       7.092  32.313 -13.6300  0.00  0.00     0.000 C
ATOM     49  C2  NAG B   4       7.131  31.988 -12.1400  0.00  0.00     0.000 C
ATOM     50  C3  NAG B   4       8.397  31.235 -11.7660  0.00  0.00     0.000 C
ATOM     51  C4  NAG B   4       8.815  30.180 -12.7970  0.00  0.00     0.000 C
ATOM     52  C5  NAG B   4       9.069  30.809 -14.1570  0.00  0.00     0.000 C
ATOM     53  O5  NAG B   4       8.099  31.810 -14.5340  0.00  0.00     0.000 O
BRANCH 49 56
ATOM     54   N  NAG B   4       7.581  33.225 -11.4780  0.00  0.00     0.000 N
ATOM     56  HD  NAG B   4       8.385  33.384 -11.1970  0.00  0.00     0.000 HD
ATOM     56   C  NAG B   4       7.467  35.430 -10.4710  0.00  0.00     0.000 C
ATOM     57   O  NAG B   4       5.566  34.190 -11.0620  0.00  0.00     0.000 OA
ATOM     58   C  NAG B   4       6.788  34.216 -11.0270  0.00  0.00     0.000 C
ENDBRANCH 49 56
ATOM     59   O  NAG B   4       9.725  30.164 -16.4480  0.00  0.00     0.000 O
ATOM     61  HD  NAG B   4       9.096  30.321 -15.8740  0.00  0.00     0.000 HD
ATOM     61   O  NAG B   4       9.725  30.164 -16.4480  0.00  0.00     0.000 O
ATOM     63  HD  NAG B   4       9.096  30.321 -15.8740  0.00  0.00     0.000 HD
ENDBRANCH 47 50
ENDBRANCH 34 47
ENDBRANCH 33 37
ENDBRANCH 17 33
ENDBRANCH 16 19
ENDBRANCH 1 16
TORSDOF 10
ENDMDL
MODEL 49
REMARK VINA RESULT:      -7.2      5.384     11.691
ROOT
ATOM      1  C1  GCU B   1       2.771  29.013  -5.4830  0.00  0.00     0.000 C
ATOM      2  C2  GCU B   1       1.489  29.541  -4.8580  0.00  0.00     0.000 C
ATOM      3  C3  GCU B   1       0.423  28.456  -4.8330  0.00  0.00     0.000 C
ATOM      4  C4  GCU B   1       0.265  27.844  -6.2160  0.00  0.00     0.000 C
ATOM      5  C5  GCU B   1       1.617  27.402  -6.7800  0.00  0.00     0.000 C
ATOM      6  O5  GCU B   1       2.504  28.527  -6.8090  0.00  0.00     0.000 O
ATOM      7   O  GCU B   1       1.799  29.974  -3.5370  0.00  0.00     0.000 O
ATOM      9  HD  GCU B   1       1.616  30.750  -3.1980  0.00  0.00     0.000 HD
ATOM      9   O  GCU B   1      -0.829  28.990  -4.3940  0.00  0.00     0.000 O
ATOM     11  HD  GCU B   1      -1.011  29.765  -4.0550  0.00  0.00     0.000 HD
ATOM     11   O  GCU B   1      -0.612  26.720  -6.1250  0.00  0.00     0.000 O
ATOM     13  HD  GCU B   1      -0.794  27.495  -5.7860  0.00  0.00     0.000 HD
ENDROOT
BRANCH 5 13
ATOM     13   C  GCU B   1       1.427  26.786  -8.1450  0.00  0.00     0.000 C
ATOM     14   O  GCU B   1       0.709  25.774  -8.2870  0.00  0.00     0.000 OA
ATOM     15   O  GCU B   1       1.988  27.342  -9.1090  0.00  0.00     0.000 OA
ENDBRANCH 5 13
BRANCH 1 16
ATOM     16  O3  NAG B   2       3.724  29.715  -6.1010  0.00  0.00     0.000 O
BRANCH 16 19
ATOM     17  C1  NAG B   2       7.398  30.077  -5.3320  0.00  0.00     0.000 C
ATOM     18  C2  NAG B   2       5.899  30.102  -5.0660  0.00  0.00     0.000 C
ATOM     19  C3  NAG B   2       5.139  29.530  -6.2610  0.00  0.00     0.000 C
ATOM     20  C4  NAG B   2       5.567  30.232  -7.5490  0.00  0.00     0.000 C
ATOM     21  C5  NAG B   2       7.077  30.138  -7.7100  0.00  0.00     0.000 C
ATOM     22  O5  NAG B   2       7.706  30.743  -6.5670  0.00  0.00     0.000 O
ATOM     23   O  NAG B   2       4.889  29.612  -8.6480  0.00  0.00     0.000 O
ATOM     25  HD  NAG B   2       4.665  30.426  -8.4540  0.00  0.00     0.000 HD
ATOM     25   C  NAG B   2       7.577  30.806  -8.9890  0.00  0.00     0.000 C
ATOM     26   O  NAG B   2       7.523  32.238  -8.8960  0.00  0.00     0.000 O
ATOM     28  HD  NAG B   2       7.299  33.052  -8.7020  0.00  0.00     0.000 HD
BRANCH 18 30
ATOM     28   N  NAG B   2       5.954  29.524  -3.7370  0.00  0.00     0.000 N
ATOM     30  HD  NAG B   2       5.314  30.104  -3.6730  0.00  0.00     0.000 HD
ATOM     30   C  NAG B   2       5.232  29.968  -2.7000  0.00  0.00     0.000 C
ATOM     31   C  NAG B   2       5.433  29.292  -1.3720  0.00  0.00     0.000 C
ATOM     32   O  NAG B   2       4.443  30.884  -2.8130  0.00  0.00     0.000 OA
ENDBRANCH 18 30
BRANCH 17 33
ATOM     33  O4  GCU B   3       8.054  30.660  -4.1880  0.00  0.00     0.000 O
BRANCH 33 37
ATOM     34  C1  GCU B   3      12.008  30.403  -2.9100  0.00  0.00     0.000 C
ATOM     35  C2  GCU B   3      11.653  31.513  -3.9000  0.00  0.00     0.000 C
ATOM     36  C3  GCU B   3      10.153  31.719  -3.9140  0.00  0.00     0.000 C
ATOM     37  C4  GCU B   3       9.458  30.398  -4.2120  0.00  0.00     0.000 C
ATOM     38  C5  GCU B   3       9.871  29.353  -3.1730  0.00  0.00     0.000 C
ATOM     39  O5  GCU B   3      11.293  29.202  -3.2180  0.00  0.00     0.000 O
ATOM     40   O  GCU B   3      12.313  32.716  -3.5030  0.00  0.00     0.000 O
ATOM     42  HD  GCU B   3      12.172  33.557  -3.3520  0.00  0.00     0.000 HD
ATOM     42   O  GCU B   3       9.775  32.708  -4.8890  0.00  0.00     0.000 O
ATOM     44  HD  GCU B   3       9.634  33.549  -4.7380  0.00  0.00     0.000 HD
BRANCH 38 44
ATOM     44   C  GCU B   3       9.239  28.006  -3.4190  0.00  0.00     0.000 C
ATOM     45   O  GCU B   3       8.261  27.674  -2.7320  0.00  0.00     0.000 OA
ATOM     46   O  GCU B   3       9.703  27.258  -4.3020  0.00  0.00     0.000 OA
ENDBRANCH 38 44
BRANCH 34 47
ATOM     47  O3  NAG B   4      13.288  30.092  -3.0580  0.00  0.00     0.000 O
BRANCH 47 50
ATOM     48  C1  NAG B   4      16.040  27.640  -3.4700  0.00  0.00     0.000 C
ATOM     49  C2  NAG B   4      14.851  28.331  -2.8110  0.00  0.00     0.000 C
ATOM     50  C3  NAG B   4      14.065  29.163  -3.8120  0.00  0.00     0.000 C
ATOM     51  C4  NAG B   4      14.947  29.927  -4.8080  0.00  0.00     0.000 C
ATOM     52  C5  NAG B   4      15.813  28.976  -5.6180  0.00  0.00     0.000 C
ATOM     53  O5  NAG B   4      16.396  27.905  -4.8430  0.00  0.00     0.000 O
BRANCH 49 56
ATOM     54   N  NAG B   4      13.996  27.133  -2.7670  0.00  0.00     0.000 N
ATOM     56  HD  NAG B   4      13.786  26.636  -3.4450  0.00  0.00     0.000 HD
ATOM     56   C  NAG B   4      12.527  25.426  -1.8610  0.00  0.00     0.000 C
ATOM     57   O  NAG B   4      13.139  27.353  -0.6730  0.00  0.00     0.000 OA
ATOM     58   C  NAG B   4      13.247  26.732  -1.7200  0.00  0.00     0.000 C
ENDBRANCH 49 56
ATOM     59   O  NAG B   4      17.533  29.025  -7.3880  0.00  0.00     0.000 O
ATOM     61  HD  NAG B   4      17.338  29.014  -6.5440  0.00  0.00     0.000 HD
ATOM     61   O  NAG B   4      17.533  29.025  -7.3880  0.00  0.00     0.000 O
ATOM     63  HD  NAG B   4      17.338  29.014  -6.5440  0.00  0.00     0.000 HD
ENDBRANCH 47 50
ENDBRANCH 34 47
ENDBRANCH 33 37
ENDBRANCH 17 33
ENDBRANCH 16 19
ENDBRANCH 1 16
TORSDOF 10
ENDMDL
MODEL 50
REMARK VINA RESULT:      -7.1      2.878     11.798
ROOT
ATOM      1  C1  GCU B   1       0.268  23.999  -5.9380  0.00  0.00     0.000 C
ATOM      2  C2  GCU B   1       0.550  22.658  -5.2770  0.00  0.00     0.000 C
ATOM      3  C3  GCU B   1      -0.404  21.596  -5.8000  0.00  0.00     0.000 C
ATOM      4  C4  GCU B   1      -1.841  22.082  -5.6920  0.00  0.00     0.000 C
ATOM      5  C5  GCU B   1      -2.005  23.462  -6.3310  0.00  0.00     0.000 C
ATOM      6  O5  GCU B   1      -1.098  24.380  -5.7070  0.00  0.00     0.000 O
ATOM      7   O  GCU B   1       1.900  22.309  -5.5650  0.00  0.00     0.000 O
ATOM      9  HD  GCU B   1       2.504  22.083  -4.9870  0.00  0.00     0.000 HD
ATOM      9   O  GCU B   1      -0.250  20.376  -5.0700  0.00  0.00     0.000 O
ATOM     11  HD  GCU B   1       0.354  20.150  -4.4920  0.00  0.00     0.000 HD
ATOM     11   O  GCU B   1      -2.697  21.142  -6.3440  0.00  0.00     0.000 O
ATOM     13  HD  GCU B   1      -2.093  20.916  -5.7660  0.00  0.00     0.000 HD
ENDROOT
BRANCH 5 13
ATOM     13   C  GCU B   1      -3.442  23.912  -6.2220  0.00  0.00     0.000 C
ATOM     14   O  GCU B   1      -4.337  23.330  -6.8700  0.00  0.00     0.000 OA
ATOM     15   O  GCU B   1      -3.691  24.855  -5.4460  0.00  0.00     0.000 OA
ENDBRANCH 5 13
BRANCH 1 16
ATOM     16  O3  NAG B   2       0.525  25.215  -5.4520  0.00  0.00     0.000 O
BRANCH 16 19
ATOM     17  C1  NAG B   2       2.588  27.912  -7.0940  0.00  0.00     0.000 C
ATOM     18  C2  NAG B   2       2.231  26.508  -6.6230  0.00  0.00     0.000 C
ATOM     19  C3  NAG B   2       0.810  26.482  -6.0640  0.00  0.00     0.000 C
ATOM     20  C4  NAG B   2       0.633  27.572  -5.0070  0.00  0.00     0.000 C
ATOM     21  C5  NAG B   2       1.014  28.924  -5.5910  0.00  0.00     0.000 C
ATOM     22  O5  NAG B   2       2.378  28.869  -6.0440  0.00  0.00     0.000 O
ATOM     23   O  NAG B   2      -0.730  27.560  -4.5700  0.00  0.00     0.000 O
ATOM     25  HD  NAG B   2      -0.131  27.309  -3.9980  0.00  0.00     0.000 HD
ATOM     25   C  NAG B   2       0.847  30.067  -4.5920  0.00  0.00     0.000 C
ATOM     26   O  NAG B   2       1.869  30.045  -3.5840  0.00  0.00     0.000 O
ATOM     28  HD  NAG B   2       2.469  29.793  -3.0120  0.00  0.00     0.000 HD
BRANCH 18 30
ATOM     28   N  NAG B   2       3.347  25.602  -6.8180  0.00  0.00     0.000 N
ATOM     30  HD  NAG B   2       2.834  25.432  -7.4940  0.00  0.00     0.000 HD
ATOM     30   C  NAG B   2       3.391  24.668  -7.7760  0.00  0.00     0.000 C
ATOM     31   C  NAG B   2       4.598  23.773  -7.8230  0.00  0.00     0.000 C
ATOM     32   O  NAG B   2       2.492  24.535  -8.5820  0.00  0.00     0.000 OA
ENDBRANCH 18 30
BRANCH 17 33
ATOM     33  O4  GCU B   3       3.948  27.878  -7.5740  0.00  0.00     0.000 O
BRANCH 33 37
ATOM     34  C1  GCU B   3       6.318  30.855  -9.2620  0.00  0.00     0.000 C
ATOM     35  C2  GCU B   3       6.209  30.814  -7.7370  0.00  0.00     0.000 C
ATOM     36  C3  GCU B   3       5.686  29.461  -7.3030  0.00  0.00     0.000 C
ATOM     37  C4  GCU B   3       4.370  29.171  -8.0110  0.00  0.00     0.000 C
ATOM     38  C5  GCU B   3       4.577  29.231  -9.5260  0.00  0.00     0.000 C
ATOM     39  O5  GCU B   3       5.063  30.534  -9.8680  0.00  0.00     0.000 O
ATOM     40   O  GCU B   3       7.502  31.048  -7.1740  0.00  0.00     0.000 O
ATOM     42  HD  GCU B   3       8.064  30.733  -6.5950  0.00  0.00     0.000 HD
ATOM     42   O  GCU B   3       5.502  29.411  -5.8770  0.00  0.00     0.000 O
ATOM     44  HD  GCU B   3       6.063  29.096  -5.2980  0.00  0.00     0.000 HD
BRANCH 38 44
ATOM     44   C  GCU B   3       3.306  28.978 -10.2970  0.00  0.00     0.000 C
ATOM     45   O  GCU B   3       3.342  28.198 -11.2610  0.00  0.00     0.000 OA
ATOM     46   O  GCU B   3       2.252  29.547  -9.9550  0.00  0.00     0.000 OA
ENDBRANCH 38 44
BRANCH 34 47
ATOM     47  O3  NAG B   4       6.577  32.100  -9.6380  0.00  0.00     0.000 O
BRANCH 47 50
ATOM     48  C1  NAG B   4       9.172  33.183 -12.0560  0.00  0.00     0.000 C
ATOM     49  C2  NAG B   4       8.411  32.242 -11.1280  0.00  0.00     0.000 C
ATOM     50  C3  NAG B   4       7.020  32.772 -10.8160  0.00  0.00     0.000 C
ATOM     51  C4  NAG B   4       6.974  34.287 -10.5850  0.00  0.00     0.000 C
ATOM     52  C5  NAG B   4       7.463  35.045 -11.8080  0.00  0.00     0.000 C
ATOM     53  O5  NAG B   4       8.630  34.467 -12.4330  0.00  0.00     0.000 O
BRANCH 49 56
ATOM     54   N  NAG B   4       7.979  31.238 -12.1160  0.00  0.00     0.000 N
ATOM     56  HD  NAG B   4       7.365  31.351 -12.7160  0.00  0.00     0.000 HD
ATOM     56   C  NAG B   4       7.843  29.112 -13.2800  0.00  0.00     0.000 C
ATOM     57   O  NAG B   4       9.002  29.398 -11.2610  0.00  0.00     0.000 OA
ATOM     58   C  NAG B   4       8.321  29.934 -12.1220  0.00  0.00     0.000 C
ENDBRANCH 49 56
ATOM     59   O  NAG B   4       7.843  37.362 -12.5720  0.00  0.00     0.000 O
ATOM     61  HD  NAG B   4       8.155  36.642 -12.2050  0.00  0.00     0.000 HD
ATOM     61   O  NAG B   4       7.843  37.362 -12.5720  0.00  0.00     0.000 O
ATOM     63  HD  NAG B   4       8.155  36.642 -12.2050  0.00  0.00     0.000 HD
ENDBRANCH 47 50
ENDBRANCH 34 47
ENDBRANCH 33 37
ENDBRANCH 17 33
ENDBRANCH 16 19
ENDBRANCH 1 16
TORSDOF 10
ENDMDL
MODEL 51
REMARK VINA RESULT:      -7.1      5.015     11.783
ROOT
ATOM      1  C1  GCU B   1       5.248  30.757  -8.3570  0.00  0.00     0.000 C
ATOM      2  C2  GCU B   1       4.260  29.925  -9.1600  0.00  0.00     0.000 C
ATOM      3  C3  GCU B   1       2.912  29.875  -8.4590  0.00  0.00     0.000 C
ATOM      4  C4  GCU B   1       3.089  29.449  -7.0100  0.00  0.00     0.000 C
ATOM      5  C5  GCU B   1       4.145  30.307  -6.3100  0.00  0.00     0.000 C
ATOM      6  O5  GCU B   1       5.379  30.215  -7.0330  0.00  0.00     0.000 O
ATOM      7   O  GCU B   1       4.138  30.522 -10.4470  0.00  0.00     0.000 O
ATOM      9  HD  GCU B   1       4.230  30.120 -11.2080  0.00  0.00     0.000 HD
ATOM      9   O  GCU B   1       2.031  28.967  -9.1250  0.00  0.00     0.000 O
ATOM     11  HD  GCU B   1       2.123  28.565  -9.8860  0.00  0.00     0.000 HD
ATOM     11   O  GCU B   1       1.837  29.577  -6.3350  0.00  0.00     0.000 O
ATOM     13  HD  GCU B   1       1.929  29.174  -7.0960  0.00  0.00     0.000 HD
ENDROOT
BRANCH 5 13
ATOM     13   C  GCU B   1       4.289  29.872  -4.8710  0.00  0.00     0.000 C
ATOM     14   O  GCU B   1       3.398  30.139  -4.0380  0.00  0.00     0.000 OA
ATOM     15   O  GCU B   1       5.307  29.221  -4.5680  0.00  0.00     0.000 OA
ENDBRANCH 5 13
BRANCH 1 16
ATOM     16  O3  NAG B   2       6.579  30.665  -8.3580  0.00  0.00     0.000 O
BRANCH 16 19
ATOM     17  C1  NAG B   2       9.249  32.984  -9.6710  0.00  0.00     0.000 C
ATOM     18  C2  NAG B   2       8.006  32.105  -9.7160  0.00  0.00     0.000 C
ATOM     19  C3  NAG B   2       7.636  31.636  -8.3100  0.00  0.00     0.000 C
ATOM     20  C4  NAG B   2       8.843  30.992  -7.6290  0.00  0.00     0.000 C
ATOM     21  C5  NAG B   2      10.018  31.960  -7.6390  0.00  0.00     0.000 C
ATOM     22  O5  NAG B   2      10.325  32.305  -9.0020  0.00  0.00     0.000 O
ATOM     23   O  NAG B   2       8.472  30.641  -6.2920  0.00  0.00     0.000 O
ATOM     25  HD  NAG B   2       8.623  29.991  -6.8430  0.00  0.00     0.000 HD
ATOM     25   C  NAG B   2      11.260  31.388  -6.9590  0.00  0.00     0.000 C
ATOM     26   O  NAG B   2      11.888  30.378  -7.7630  0.00  0.00     0.000 O
ATOM     28  HD  NAG B   2      12.039  29.728  -8.3150  0.00  0.00     0.000 HD
BRANCH 18 30
ATOM     28   N  NAG B   2       7.049  32.926 -10.4340  0.00  0.00     0.000 N
ATOM     30  HD  NAG B   2       7.031  32.177 -10.8680  0.00  0.00     0.000 HD
ATOM     30   C  NAG B   2       6.451  32.552 -11.5720  0.00  0.00     0.000 C
ATOM     31   C  NAG B   2       5.516  33.533 -12.2230  0.00  0.00     0.000 C
ATOM     32   O  NAG B   2       6.649  31.463 -12.0720  0.00  0.00     0.000 OA
ENDBRANCH 18 30
BRANCH 17 33
ATOM     33  O4  GCU B   3       9.566  33.362 -11.0250  0.00  0.00     0.000 O
BRANCH 33 37
ATOM     34  C1  GCU B   3      11.686  36.613 -12.5310  0.00  0.00     0.000 C
ATOM     35  C2  GCU B   3      12.470  35.549 -11.7610  0.00  0.00     0.000 C
ATOM     36  C3  GCU B   3      11.649  34.280 -11.6710  0.00  0.00     0.000 C
ATOM     37  C4  GCU B   3      10.291  34.592 -11.0590  0.00  0.00     0.000 C
ATOM     38  C5  GCU B   3       9.582  35.660 -11.8950  0.00  0.00     0.000 C
ATOM     39  O5  GCU B   3      10.405  36.830 -11.9310  0.00  0.00     0.000 O
ATOM     40   O  GCU B   3      13.700  35.296 -12.4430  0.00  0.00     0.000 O
ATOM     42  HD  GCU B   3      14.193  34.653 -12.7490  0.00  0.00     0.000 HD
ATOM     42   O  GCU B   3      12.326  33.280 -10.8900  0.00  0.00     0.000 O
ATOM     44  HD  GCU B   3      12.820  32.637 -11.1960  0.00  0.00     0.000 HD
BRANCH 38 44
ATOM     44   C  GCU B   3       8.235  36.040 -11.3330  0.00  0.00     0.000 C
ATOM     45   O  GCU B   3       8.061  35.964 -10.1070  0.00  0.00     0.000 OA
ATOM     46   O  GCU B   3       7.332  36.423 -12.1000  0.00  0.00     0.000 OA
ENDBRANCH 38 44
BRANCH 34 47
ATOM     47  O3  NAG B   4      12.321  37.772 -12.4240  0.00  0.00     0.000 O
BRANCH 47 50
ATOM     48  C1  NAG B   4      11.792  39.407  -9.1370  0.00  0.00     0.000 C
ATOM     49  C2  NAG B   4      12.262  38.348 -10.1290  0.00  0.00     0.000 C
ATOM     50  C3  NAG B   4      12.318  38.896 -11.5450  0.00  0.00     0.000 C
ATOM     51  C4  NAG B   4      11.143  39.815 -11.8980  0.00  0.00     0.000 C
ATOM     52  C5  NAG B   4      11.085  41.017 -10.9700  0.00  0.00     0.000 C
ATOM     53  O5  NAG B   4      11.337  40.702  -9.5820  0.00  0.00     0.000 O
BRANCH 49 56
ATOM     54   N  NAG B   4      13.730  38.302 -10.0130  0.00  0.00     0.000 N
ATOM     56  HD  NAG B   4      14.292  38.651 -10.5720  0.00  0.00     0.000 HD
ATOM     56   C  NAG B   4      15.920  37.736  -9.1330  0.00  0.00     0.000 C
ATOM     57   O  NAG B   4      13.935  36.760  -8.3560  0.00  0.00     0.000 OA
ATOM     58   C  NAG B   4      14.434  37.553  -9.1410  0.00  0.00     0.000 C
ENDBRANCH 49 56
ATOM     59   O  NAG B   4       9.721  43.035 -10.5670  0.00  0.00     0.000 O
ATOM     61  HD  NAG B   4       9.886  42.203 -10.3880  0.00  0.00     0.000 HD
ATOM     61   O  NAG B   4       9.721  43.035 -10.5670  0.00  0.00     0.000 O
ATOM     63  HD  NAG B   4       9.886  42.203 -10.3880  0.00  0.00     0.000 HD
ENDBRANCH 47 50
ENDBRANCH 34 47
ENDBRANCH 33 37
ENDBRANCH 17 33
ENDBRANCH 16 19
ENDBRANCH 1 16
TORSDOF 10
ENDMDL
MODEL 52
REMARK VINA RESULT:      -7.1      4.686      6.962
ROOT
ATOM      1  C1  GCU B   1       8.391  31.853  -9.5950  0.00  0.00     0.000 C
ATOM      2  C2  GCU B   1       9.636  31.551 -10.4150  0.00  0.00     0.000 C
ATOM      3  C3  GCU B   1      10.450  32.818 -10.6320  0.00  0.00     0.000 C
ATOM      4  C4  GCU B   1       9.563  33.924 -11.1830  0.00  0.00     0.000 C
ATOM      5  C5  GCU B   1       8.312  34.105 -10.3220  0.00  0.00     0.000 C
ATOM      6  O5  GCU B   1       7.605  32.860 -10.2520  0.00  0.00     0.000 O
ATOM      7   O  GCU B   1      10.397  30.579  -9.7060  0.00  0.00     0.000 O
ATOM      9  HD  GCU B   1      10.693  29.830 -10.0250  0.00  0.00     0.000 HD
ATOM      9   O  GCU B   1      11.533  32.573 -11.5330  0.00  0.00     0.000 O
ATOM     11  HD  GCU B   1      11.830  31.824 -11.8510  0.00  0.00     0.000 HD
ATOM     11   O  GCU B   1      10.309  35.141 -11.2130  0.00  0.00     0.000 O
ATOM     13  HD  GCU B   1      10.606  34.393 -11.5320  0.00  0.00     0.000 HD
ENDROOT
BRANCH 5 13
ATOM     13   C  GCU B   1       7.459  35.218 -10.8840  0.00  0.00     0.000 C
ATOM     14   O  GCU B   1       7.763  36.411 -10.6790  0.00  0.00     0.000 OA
ATOM     15   O  GCU B   1       6.472  34.893 -11.5720  0.00  0.00     0.000 OA
ENDBRANCH 5 13
BRANCH 1 16
ATOM     16  O3  NAG B   2       7.239  31.179  -9.5890  0.00  0.00     0.000 O
BRANCH 16 19
ATOM     17  C1  NAG B   2       5.591  29.536  -6.6210  0.00  0.00     0.000 C
ATOM     18  C2  NAG B   2       6.724  29.920  -7.5640  0.00  0.00     0.000 C
ATOM     19  C3  NAG B   2       6.238  30.945  -8.5860  0.00  0.00     0.000 C
ATOM     20  C4  NAG B   2       4.974  30.443  -9.2840  0.00  0.00     0.000 C
ATOM     21  C5  NAG B   2       3.916  30.096  -8.2470  0.00  0.00     0.000 C
ATOM     22  O5  NAG B   2       4.443  29.092  -7.3620  0.00  0.00     0.000 O
ATOM     23   O  NAG B   2       4.513  31.466 -10.1740  0.00  0.00     0.000 O
ATOM     25  HD  NAG B   2       4.821  30.740 -10.5320  0.00  0.00     0.000 HD
ATOM     25   C  NAG B   2       2.615  29.600  -8.8750  0.00  0.00     0.000 C
ATOM     26   O  NAG B   2       2.753  28.271  -9.4020  0.00  0.00     0.000 O
ATOM     28  HD  NAG B   2       3.061  27.546  -9.7600  0.00  0.00     0.000 HD
BRANCH 18 30
ATOM     28   N  NAG B   2       7.754  30.237  -6.5930  0.00  0.00     0.000 N
ATOM     30  HD  NAG B   2       8.177  29.764  -7.1820  0.00  0.00     0.000 HD
ATOM     30   C  NAG B   2       8.996  29.738  -6.6320  0.00  0.00     0.000 C
ATOM     31   C  NAG B   2       9.938  30.126  -5.5270  0.00  0.00     0.000 C
ATOM     32   O  NAG B   2       9.359  28.994  -7.5210  0.00  0.00     0.000 OA
ENDBRANCH 18 30
BRANCH 17 33
ATOM     33  O4  GCU B   3       6.101  28.544  -5.7070  0.00  0.00     0.000 O
BRANCH 33 37
ATOM     34  C1  GCU B   3       4.585  27.110  -2.1050  0.00  0.00     0.000 C
ATOM     35  C2  GCU B   3       3.967  26.577  -3.3980  0.00  0.00     0.000 C
ATOM     36  C3  GCU B   3       4.895  26.862  -4.5590  0.00  0.00     0.000 C
ATOM     37  C4  GCU B   3       5.209  28.351  -4.6080  0.00  0.00     0.000 C
ATOM     38  C5  GCU B   3       5.824  28.791  -3.2780  0.00  0.00     0.000 C
ATOM     39  O5  GCU B   3       4.895  28.501  -2.2290  0.00  0.00     0.000 O
ATOM     40   O  GCU B   3       3.759  25.169  -3.2660  0.00  0.00     0.000 O
ATOM     42  HD  GCU B   3       3.900  24.415  -3.6680  0.00  0.00     0.000 HD
ATOM     42   O  GCU B   3       4.311  26.438  -5.8050  0.00  0.00     0.000 O
ATOM     44  HD  GCU B   3       4.453  25.685  -6.2070  0.00  0.00     0.000 HD
BRANCH 38 44
ATOM     44   C  GCU B   3       6.140  30.265  -3.2430  0.00  0.00     0.000 C
ATOM     45   O  GCU B   3       7.272  30.638  -3.5870  0.00  0.00     0.000 OA
ATOM     46   O  GCU B   3       5.267  31.076  -2.8770  0.00  0.00     0.000 OA
ENDBRANCH 38 44
BRANCH 34 47
ATOM     47  O3  NAG B   4       3.680  27.040  -1.1390  0.00  0.00     0.000 O
BRANCH 47 50
ATOM     48  C1  NAG B   4       5.208  25.848   2.0240  0.00  0.00     0.000 C
ATOM     49  C2  NAG B   4       5.095  26.617   0.7120  0.00  0.00     0.000 C
ATOM     50  C3  NAG B   4       3.650  26.728   0.2530  0.00  0.00     0.000 C
ATOM     51  C4  NAG B   4       2.834  25.448   0.4700  0.00  0.00     0.000 C
ATOM     52  C5  NAG B   4       2.795  25.062   1.9390  0.00  0.00     0.000 C
ATOM     53  O5  NAG B   4       4.060  25.211   2.6210  0.00  0.00     0.000 O
BRANCH 49 56
ATOM     54   N  NAG B   4       5.193  28.067   0.9570  0.00  0.00     0.000 N
ATOM     56  HD  NAG B   4       4.603  28.659   0.7300  0.00  0.00     0.000 HD
ATOM     56   C  NAG B   4       6.133  30.190   1.6640  0.00  0.00     0.000 C
ATOM     57   O  NAG B   4       7.373  28.201   1.5850  0.00  0.00     0.000 OA
ATOM     58   C  NAG B   4       6.287  28.725   1.3890  0.00  0.00     0.000 C
ENDBRANCH 49 56
ATOM     59   O  NAG B   4       1.875  23.307   3.4120  0.00  0.00     0.000 O
ATOM     61  HD  NAG B   4       2.533  23.603   2.9340  0.00  0.00     0.000 HD
ATOM     61   O  NAG B   4       1.875  23.307   3.4120  0.00  0.00     0.000 O
ATOM     63  HD  NAG B   4       2.533  23.603   2.9340  0.00  0.00     0.000 HD
ENDBRANCH 47 50
ENDBRANCH 34 47
ENDBRANCH 33 37
ENDBRANCH 17 33
ENDBRANCH 16 19
ENDBRANCH 1 16
TORSDOF 10
ENDMDL
MODEL 53
REMARK VINA RESULT:      -7.1      4.815     11.757
ROOT
ATOM      1  C1  GCU B   1       7.156  29.712  -7.8310  0.00  0.00     0.000 C
ATOM      2  C2  GCU B   1       6.317  28.449  -7.9510  0.00  0.00     0.000 C
ATOM      3  C3  GCU B   1       5.315  28.365  -6.8110  0.00  0.00     0.000 C
ATOM      4  C4  GCU B   1       6.021  28.549  -5.4760  0.00  0.00     0.000 C
ATOM      5  C5  GCU B   1       6.883  29.812  -5.4800  0.00  0.00     0.000 C
ATOM      6  O5  GCU B   1       7.824  29.735  -6.5590  0.00  0.00     0.000 O
ATOM      7   O  GCU B   1       5.649  28.491  -9.2080  0.00  0.00     0.000 O
ATOM      9  HD  GCU B   1       5.652  27.869  -9.8100  0.00  0.00     0.000 HD
ATOM      9   O  GCU B   1       4.635  27.107  -6.8290  0.00  0.00     0.000 O
ATOM     11  HD  GCU B   1       4.638  26.485  -7.4300  0.00  0.00     0.000 HD
ATOM     11   O  GCU B   1       5.039  28.638  -4.4430  0.00  0.00     0.000 O
ATOM     13  HD  GCU B   1       5.042  28.015  -5.0450  0.00  0.00     0.000 HD
ENDROOT
BRANCH 5 13
ATOM     13   C  GCU B   1       7.560  29.977  -4.1400  0.00  0.00     0.000 C
ATOM     14   O  GCU B   1       6.925  30.425  -3.1640  0.00  0.00     0.000 OA
ATOM     15   O  GCU B   1       8.752  29.623  -4.0520  0.00  0.00     0.000 OA
ENDBRANCH 5 13
BRANCH 1 16
ATOM     16  O3  NAG B   2       8.386  29.919  -8.3050  0.00  0.00     0.000 O
BRANCH 16 19
ATOM     17  C1  NAG B   2       9.498  32.816 -10.4490  0.00  0.00     0.000 C
ATOM     18  C2  NAG B   2       8.596  31.683  -9.9780  0.00  0.00     0.000 C
ATOM     19  C3  NAG B   2       9.118  31.101  -8.6660  0.00  0.00     0.000 C
ATOM     20  C4  NAG B   2      10.593  30.723  -8.8010  0.00  0.00     0.000 C
ATOM     21  C5  NAG B   2      11.393  31.929  -9.2720  0.00  0.00     0.000 C
ATOM     22  O5  NAG B   2      10.864  32.376 -10.5330  0.00  0.00     0.000 O
ATOM     23   O  NAG B   2      11.058  30.256  -7.5300  0.00  0.00     0.000 O
ATOM     25  HD  NAG B   2      11.003  29.674  -8.1680  0.00  0.00     0.000 HD
ATOM     25   C  NAG B   2      12.884  31.629  -9.4150  0.00  0.00     0.000 C
ATOM     26   O  NAG B   2      13.153  30.811 -10.5640  0.00  0.00     0.000 O
ATOM     28  HD  NAG B   2      13.098  30.228 -11.2020  0.00  0.00     0.000 HD
BRANCH 18 30
ATOM     28   N  NAG B   2       7.325  32.369 -10.1140  0.00  0.00     0.000 N
ATOM     30  HD  NAG B   2       7.149  31.569 -10.3940  0.00  0.00     0.000 HD
ATOM     30   C  NAG B   2       6.243  31.828 -10.6870  0.00  0.00     0.000 C
ATOM     31   C  NAG B   2       5.011  32.682 -10.7950  0.00  0.00     0.000 C
ATOM     32   O  NAG B   2       6.244  30.689 -11.1110  0.00  0.00     0.000 OA
ENDBRANCH 18 30
BRANCH 17 33
ATOM     33  O4  GCU B   3       8.975  33.297 -11.7040  0.00  0.00     0.000 O
BRANCH 33 37
ATOM     34  C1  GCU B   3       9.151  37.121 -13.3410  0.00  0.00     0.000 C
ATOM     35  C2  GCU B   3      10.140  36.079 -13.8640  0.00  0.00     0.000 C
ATOM     36  C3  GCU B   3       9.662  34.692 -13.4880  0.00  0.00     0.000 C
ATOM     37  C4  GCU B   3       9.444  34.617 -11.9830  0.00  0.00     0.000 C
ATOM     38  C5  GCU B   3       8.442  35.691 -11.5540  0.00  0.00     0.000 C
ATOM     39  O5  GCU B   3       8.958  36.972 -11.9310  0.00  0.00     0.000 O
ATOM     40   O  GCU B   3      10.233  36.201 -15.2850  0.00  0.00     0.000 O
ATOM     42  HD  GCU B   3      10.201  35.737 -16.0160  0.00  0.00     0.000 HD
ATOM     42   O  GCU B   3      10.606  33.689 -13.9020  0.00  0.00     0.000 O
ATOM     44  HD  GCU B   3      10.574  33.225 -14.6330  0.00  0.00     0.000 HD
BRANCH 38 44
ATOM     44   C  GCU B   3       8.195  35.695 -10.0660  0.00  0.00     0.000 C
ATOM     45   O  GCU B   3       7.090  35.316  -9.6480  0.00  0.00     0.000 OA
ATOM     46   O  GCU B   3       9.095  36.070  -9.2910  0.00  0.00     0.000 OA
ENDBRANCH 38 44
BRANCH 34 47
ATOM     47  O3  NAG B   4       9.681  38.327 -13.4930  0.00  0.00     0.000 O
BRANCH 47 50
ATOM     48  C1  NAG B   4       7.842  41.540 -13.7120  0.00  0.00     0.000 C
ATOM     49  C2  NAG B   4       8.662  40.422 -13.0770  0.00  0.00     0.000 C
ATOM     50  C3  NAG B   4       9.333  39.555 -14.1290  0.00  0.00     0.000 C
ATOM     51  C4  NAG B   4       8.448  39.266 -15.3470  0.00  0.00     0.000 C
ATOM     52  C5  NAG B   4       8.031  40.551 -16.0430  0.00  0.00     0.000 C
ATOM     53  O5  NAG B   4       7.657  41.615 -15.1410  0.00  0.00     0.000 O
BRANCH 49 56
ATOM     54   N  NAG B   4       9.752  41.329 -12.6750  0.00  0.00     0.000 N
ATOM     56  HD  NAG B   4      10.082  41.968 -13.1580  0.00  0.00     0.000 HD
ATOM     56   C  NAG B   4      11.526  42.285 -11.3220  0.00  0.00     0.000 C
ATOM     57   O  NAG B   4      10.484  40.245 -10.8160  0.00  0.00     0.000 OA
ATOM     58   C  NAG B   4      10.540  41.189 -11.5900  0.00  0.00     0.000 C
ENDBRANCH 49 56
ATOM     59   O  NAG B   4       6.682  41.311 -17.9660  0.00  0.00     0.000 O
ATOM     61  HD  NAG B   4       6.731  41.129 -17.1210  0.00  0.00     0.000 HD
ATOM     61   O  NAG B   4       6.682  41.311 -17.9660  0.00  0.00     0.000 O
ATOM     63  HD  NAG B   4       6.731  41.129 -17.1210  0.00  0.00     0.000 HD
ENDBRANCH 47 50
ENDBRANCH 34 47
ENDBRANCH 33 37
ENDBRANCH 17 33
ENDBRANCH 16 19
ENDBRANCH 1 16
TORSDOF 10
ENDMDL
MODEL 54
REMARK VINA RESULT:      -7.0      5.504      8.421
ROOT
ATOM      1  C1  GCU B   1       7.813  28.948  -5.7620  0.00  0.00     0.000 C
ATOM      2  C2  GCU B   1       9.048  29.669  -6.2780  0.00  0.00     0.000 C
ATOM      3  C3  GCU B   1      10.062  28.670  -6.8130  0.00  0.00     0.000 C
ATOM      4  C4  GCU B   1      10.329  27.587  -5.7790  0.00  0.00     0.000 C
ATOM      5  C5  GCU B   1       9.021  26.969  -5.2800  0.00  0.00     0.000 C
ATOM      6  O5  GCU B   1       8.186  28.005  -4.7450  0.00  0.00     0.000 O
ATOM      7   O  GCU B   1       8.631  30.563  -7.3050  0.00  0.00     0.000 O
ATOM      9  HD  GCU B   1       8.811  31.408  -7.3510  0.00  0.00     0.000 HD
ATOM      9   O  GCU B   1      11.287  29.326  -7.1520  0.00  0.00     0.000 O
ATOM     11  HD  GCU B   1      11.467  30.172  -7.1980  0.00  0.00     0.000 HD
ATOM     11   O  GCU B   1      11.146  26.576  -6.3690  0.00  0.00     0.000 O
ATOM     13  HD  GCU B   1      11.327  27.422  -6.4150  0.00  0.00     0.000 HD
ENDROOT
BRANCH 5 13
ATOM     13   C  GCU B   1       9.316  25.889  -4.2670  0.00  0.00     0.000 C
ATOM     14   O  GCU B   1       9.269  26.141  -3.0450  0.00  0.00     0.000 OA
ATOM     15   O  GCU B   1       9.576  24.751  -4.7010  0.00  0.00     0.000 OA
ENDBRANCH 5 13
BRANCH 1 16
ATOM     16  O3  NAG B   2       6.953  29.372  -4.8330  0.00  0.00     0.000 O
BRANCH 16 19
ATOM     17  C1  NAG B   2       3.430  28.335  -3.9700  0.00  0.00     0.000 C
ATOM     18  C2  NAG B   2       4.571  28.845  -4.8420  0.00  0.00     0.000 C
ATOM     19  C3  NAG B   2       5.899  28.730  -4.0970  0.00  0.00     0.000 C
ATOM     20  C4  NAG B   2       5.801  29.400  -2.7270  0.00  0.00     0.000 C
ATOM     21  C5  NAG B   2       4.634  28.809  -1.9470  0.00  0.00     0.000 C
ATOM     22  O5  NAG B   2       3.424  29.007  -2.7000  0.00  0.00     0.000 O
ATOM     23   O  NAG B   2       7.040  29.200  -2.0370  0.00  0.00     0.000 O
ATOM     25  HD  NAG B   2       6.849  30.009  -2.2810  0.00  0.00     0.000 HD
ATOM     25   C  NAG B   2       4.484  29.421  -0.5560  0.00  0.00     0.000 C
ATOM     26   O  NAG B   2       3.964  30.758  -0.6180  0.00  0.00     0.000 O
ATOM     28  HD  NAG B   2       3.774  31.567  -0.8620  0.00  0.00     0.000 HD
BRANCH 18 30
ATOM     28   N  NAG B   2       4.169  28.129  -6.0380  0.00  0.00     0.000 N
ATOM     30  HD  NAG B   2       4.507  28.863  -6.3510  0.00  0.00     0.000 HD
ATOM     30   C  NAG B   2       4.226  28.646  -7.2720  0.00  0.00     0.000 C
ATOM     31   C  NAG B   2       3.731  27.796  -8.4080  0.00  0.00     0.000 C
ATOM     32   O  NAG B   2       4.658  29.763  -7.4790  0.00  0.00     0.000 OA
ENDBRANCH 18 30
BRANCH 17 33
ATOM     33  O4  GCU B   3       2.206  28.503  -4.7120  0.00  0.00     0.000 O
BRANCH 33 37
ATOM     34  C1  GCU B   3      -1.683  27.319  -3.8110  0.00  0.00     0.000 C
ATOM     35  C2  GCU B   3      -1.231  28.697  -3.3280  0.00  0.00     0.000 C
ATOM     36  C3  GCU B   3       0.007  29.121  -4.0890  0.00  0.00     0.000 C
ATOM     37  C4  GCU B   3       1.081  28.051  -3.9550  0.00  0.00     0.000 C
ATOM     38  C5  GCU B   3       0.541  26.713  -4.4640  0.00  0.00     0.000 C
ATOM     39  O5  GCU B   3      -0.619  26.369  -3.6990  0.00  0.00     0.000 O
ATOM     40   O  GCU B   3      -2.288  29.634  -3.5440  0.00  0.00     0.000 O
ATOM     42  HD  GCU B   3      -2.454  30.414  -3.8830  0.00  0.00     0.000 HD
ATOM     42   O  GCU B   3       0.504  30.383  -3.6090  0.00  0.00     0.000 O
ATOM     44  HD  GCU B   3       0.338  31.162  -3.9490  0.00  0.00     0.000 HD
BRANCH 38 44
ATOM     44   C  GCU B   3       1.544  25.594  -4.3390  0.00  0.00     0.000 C
ATOM     45   O  GCU B   3       2.020  25.104  -5.3740  0.00  0.00     0.000 OA
ATOM     46   O  GCU B   3       1.878  25.187  -3.2090  0.00  0.00     0.000 OA
ENDBRANCH 38 44
BRANCH 34 47
ATOM     47  O3  NAG B   4      -2.634  26.873  -3.0030  0.00  0.00     0.000 O
BRANCH 47 50
ATOM     48  C1  NAG B   4      -3.638  25.616   0.3390  0.00  0.00     0.000 C
ATOM     49  C2  NAG B   4      -2.841  25.697  -0.9590  0.00  0.00     0.000 C
ATOM     50  C3  NAG B   4      -3.021  27.044  -1.6400  0.00  0.00     0.000 C
ATOM     51  C4  NAG B   4      -4.457  27.578  -1.5820  0.00  0.00     0.000 C
ATOM     52  C5  NAG B   4      -4.923  27.752  -0.1460  0.00  0.00     0.000 C
ATOM     53  O5  NAG B   4      -4.541  26.670   0.7330  0.00  0.00     0.000 O
BRANCH 49 56
ATOM     54   N  NAG B   4      -1.486  26.002  -0.4670  0.00  0.00     0.000 N
ATOM     56  HD  NAG B   4      -1.179  26.791  -0.2860  0.00  0.00     0.000 HD
ATOM     56   C  NAG B   4       0.814  25.638   0.2180  0.00  0.00     0.000 C
ATOM     57   O  NAG B   4      -0.492  23.987  -0.8150  0.00  0.00     0.000 OA
ATOM     58   C  NAG B   4      -0.451  25.139  -0.4090  0.00  0.00     0.000 C
ENDBRANCH 49 56
ATOM     59   O  NAG B   4      -6.913  28.470   1.1250  0.00  0.00     0.000 O
ATOM     61  HD  NAG B   4      -6.455  27.830   0.7650  0.00  0.00     0.000 HD
ATOM     61   O  NAG B   4      -6.913  28.470   1.1250  0.00  0.00     0.000 O
ATOM     63  HD  NAG B   4      -6.455  27.830   0.7650  0.00  0.00     0.000 HD
ENDBRANCH 47 50
ENDBRANCH 34 47
ENDBRANCH 33 37
ENDBRANCH 17 33
ENDBRANCH 16 19
ENDBRANCH 1 16
TORSDOF 10
ENDMDL
MODEL 55
REMARK VINA RESULT:      -7.0      3.647     11.760
ROOT
ATOM      1  C1  GCU B   1      -0.285  25.678  -4.5230  0.00  0.00     0.000 C
ATOM      2  C2  GCU B   1      -1.152  24.433  -4.4230  0.00  0.00     0.000 C
ATOM      3  C3  GCU B   1      -2.599  24.764  -4.7530  0.00  0.00     0.000 C
ATOM      4  C4  GCU B   1      -3.069  25.949  -3.9240  0.00  0.00     0.000 C
ATOM      5  C5  GCU B   1      -2.099  27.125  -4.0460  0.00  0.00     0.000 C
ATOM      6  O5  GCU B   1      -0.790  26.697  -3.6450  0.00  0.00     0.000 O
ATOM      7   O  GCU B   1      -0.634  23.470  -5.3350  0.00  0.00     0.000 O
ATOM      9  HD  GCU B   1      -0.423  22.651  -5.1490  0.00  0.00     0.000 HD
ATOM      9   O  GCU B   1      -3.443  23.636  -4.5070  0.00  0.00     0.000 O
ATOM     11  HD  GCU B   1      -3.232  22.817  -4.3200  0.00  0.00     0.000 HD
ATOM     11   O  GCU B   1      -4.365  26.343  -4.3760  0.00  0.00     0.000 O
ATOM     13  HD  GCU B   1      -4.155  25.524  -4.1900  0.00  0.00     0.000 HD
ENDROOT
BRANCH 5 13
ATOM     13   C  GCU B   1      -2.597  28.290  -3.2250  0.00  0.00     0.000 C
ATOM     14   O  GCU B   1      -3.323  28.096  -2.2280  0.00  0.00     0.000 OA
ATOM     15   O  GCU B   1      -2.233  29.431  -3.5680  0.00  0.00     0.000 OA
ENDBRANCH 5 13
BRANCH 1 16
ATOM     16  O3  NAG B   2       0.864  25.923  -3.8900  0.00  0.00     0.000 O
BRANCH 16 19
ATOM     17  C1  NAG B   2       3.971  27.505  -5.3280  0.00  0.00     0.000 C
ATOM     18  C2  NAG B   2       2.771  26.570  -5.2690  0.00  0.00     0.000 C
ATOM     19  C3  NAG B   2       1.896  26.906  -4.0620  0.00  0.00     0.000 C
ATOM     20  C4  NAG B   2       2.739  26.939  -2.7870  0.00  0.00     0.000 C
ATOM     21  C5  NAG B   2       3.901  27.906  -2.9620  0.00  0.00     0.000 C
ATOM     22  O5  NAG B   2       4.693  27.484  -4.0860  0.00  0.00     0.000 O
ATOM     23   O  NAG B   2       1.895  27.334  -1.6990  0.00  0.00     0.000 O
ATOM     25  HD  NAG B   2       2.189  26.519  -1.6960  0.00  0.00     0.000 HD
ATOM     25   C  NAG B   2       4.780  28.004  -1.7170  0.00  0.00     0.000 C
ATOM     26   O  NAG B   2       5.586  26.828  -1.5430  0.00  0.00     0.000 O
ATOM     28  HD  NAG B   2       5.880  26.013  -1.5400  0.00  0.00     0.000 HD
BRANCH 18 30
ATOM     28   N  NAG B   2       2.430  26.693  -6.6730  0.00  0.00     0.000 N
ATOM     30  HD  NAG B   2       2.204  25.878  -6.4860  0.00  0.00     0.000 HD
ATOM     30   C  NAG B   2       2.008  25.673  -7.4310  0.00  0.00     0.000 C
ATOM     31   C  NAG B   2       1.737  25.950  -8.8830  0.00  0.00     0.000 C
ATOM     32   O  NAG B   2       1.848  24.559  -6.9750  0.00  0.00     0.000 OA
ENDBRANCH 18 30
BRANCH 17 33
ATOM     33  O4  GCU B   3       4.772  27.115  -6.4620  0.00  0.00     0.000 O
BRANCH 33 37
ATOM     34  C1  GCU B   3       7.571  29.273  -8.6610  0.00  0.00     0.000 C
ATOM     35  C2  GCU B   3       8.074  28.488  -7.4490  0.00  0.00     0.000 C
ATOM     36  C3  GCU B   3       7.039  27.458  -7.0480  0.00  0.00     0.000 C
ATOM     37  C4  GCU B   3       5.700  28.143  -6.8130  0.00  0.00     0.000 C
ATOM     38  C5  GCU B   3       5.279  28.898  -8.0750  0.00  0.00     0.000 C
ATOM     39  O5  GCU B   3       6.293  29.857  -8.3920  0.00  0.00     0.000 O
ATOM     40   O  GCU B   3       9.304  27.846  -7.7910  0.00  0.00     0.000 O
ATOM     42  HD  GCU B   3       9.706  27.080  -7.7660  0.00  0.00     0.000 HD
ATOM     42   O  GCU B   3       7.447  26.748  -5.8650  0.00  0.00     0.000 O
ATOM     44  HD  GCU B   3       7.850  25.982  -5.8400  0.00  0.00     0.000 HD
BRANCH 38 44
ATOM     44   C  GCU B   3       3.969  29.625  -7.9080  0.00  0.00     0.000 C
ATOM     45   O  GCU B   3       3.920  30.590  -7.1300  0.00  0.00     0.000 OA
ATOM     46   O  GCU B   3       2.968  29.251  -8.5500  0.00  0.00     0.000 OA
ENDBRANCH 38 44
BRANCH 34 47
ATOM     47  O3  NAG B   4       8.384  30.299  -8.8730  0.00  0.00     0.000 O
BRANCH 47 50
ATOM     48  C1  NAG B   4       9.593  33.747  -9.5080  0.00  0.00     0.000 C
ATOM     49  C2  NAG B   4       9.140  32.327  -9.8310  0.00  0.00     0.000 C
ATOM     50  C3  NAG B   4       8.368  31.712  -8.6750  0.00  0.00     0.000 C
ATOM     51  C4  NAG B   4       8.954  32.040  -7.2970  0.00  0.00     0.000 C
ATOM     52  C5  NAG B   4       8.980  33.539  -7.0520  0.00  0.00     0.000 C
ATOM     53  O5  NAG B   4       9.401  34.316  -8.1950  0.00  0.00     0.000 O
BRANCH 49 56
ATOM     54   N  NAG B   4       8.397  32.412 -11.1000  0.00  0.00     0.000 N
ATOM     56  HD  NAG B   4       8.725  32.265 -11.8880  0.00  0.00     0.000 HD
ATOM     56   C  NAG B   4       6.556  32.815 -12.6300  0.00  0.00     0.000 C
ATOM     57   O  NAG B   4       6.502  33.430 -10.3670  0.00  0.00     0.000 OA
ATOM     58   C  NAG B   4       7.159  32.918 -11.2620  0.00  0.00     0.000 C
ENDBRANCH 49 56
ATOM     59   O  NAG B   4       9.672  35.164  -5.3270  0.00  0.00     0.000 O
ATOM     61  HD  NAG B   4       9.864  34.716  -6.0420  0.00  0.00     0.000 HD
ATOM     61   O  NAG B   4       9.672  35.164  -5.3270  0.00  0.00     0.000 O
ATOM     63  HD  NAG B   4       9.864  34.716  -6.0420  0.00  0.00     0.000 HD
ENDBRANCH 47 50
ENDBRANCH 34 47
ENDBRANCH 33 37
ENDBRANCH 17 33
ENDBRANCH 16 19
ENDBRANCH 1 16
TORSDOF 10
ENDMDL
MODEL 56
REMARK VINA RESULT:      -7.0      4.434      6.477
ROOT
ATOM      1  C1  GCU B   1       8.489  31.817  -7.8550  0.00  0.00     0.000 C
ATOM      2  C2  GCU B   1       9.961  31.471  -8.0160  0.00  0.00     0.000 C
ATOM      3  C3  GCU B   1      10.824  32.703  -7.7970  0.00  0.00     0.000 C
ATOM      4  C4  GCU B   1      10.330  33.852  -8.6630  0.00  0.00     0.000 C
ATOM      5  C5  GCU B   1       8.830  34.078  -8.4720  0.00  0.00     0.000 C
ATOM      6  O5  GCU B   1       8.129  32.863  -8.7720  0.00  0.00     0.000 O
ATOM      7   O  GCU B   1      10.274  30.459  -7.0640  0.00  0.00     0.000 O
ATOM      9  HD  GCU B   1      10.659  29.702  -7.2310  0.00  0.00     0.000 HD
ATOM      9   O  GCU B   1      12.192  32.421  -8.1030  0.00  0.00     0.000 O
ATOM     11  HD  GCU B   1      12.577  31.663  -8.2700  0.00  0.00     0.000 HD
ATOM     11   O  GCU B   1      11.047  35.036  -8.3110  0.00  0.00     0.000 O
ATOM     13  HD  GCU B   1      11.431  34.279  -8.4790  0.00  0.00     0.000 HD
ENDROOT
BRANCH 5 13
ATOM     13   C  GCU B   1       8.371  35.232  -9.3320  0.00  0.00     0.000 C
ATOM     14   O  GCU B   1       9.186  36.095  -9.7180  0.00  0.00     0.000 OA
ATOM     15   O  GCU B   1       7.168  35.263  -9.6560  0.00  0.00     0.000 OA
ENDBRANCH 5 13
BRANCH 1 16
ATOM     16  O3  NAG B   2       7.442  31.194  -8.4010  0.00  0.00     0.000 O
BRANCH 16 19
ATOM     17  C1  NAG B   2       4.560  29.467  -6.6860  0.00  0.00     0.000 C
ATOM     18  C2  NAG B   2       6.013  29.813  -6.9850  0.00  0.00     0.000 C
ATOM     19  C3  NAG B   2       6.089  30.977  -7.9710  0.00  0.00     0.000 C
ATOM     20  C4  NAG B   2       5.239  30.684  -9.2070  0.00  0.00     0.000 C
ATOM     21  C5  NAG B   2       3.813  30.358  -8.7870  0.00  0.00     0.000 C
ATOM     22  O5  NAG B   2       3.836  29.223  -7.9030  0.00  0.00     0.000 O
ATOM     23   O  NAG B   2       5.278  31.830 -10.0640  0.00  0.00     0.000 O
ATOM     25  HD  NAG B   2       5.672  31.113 -10.3470  0.00  0.00     0.000 HD
ATOM     25   C  NAG B   2       2.899  30.068  -9.9760  0.00  0.00     0.000 C
ATOM     26   O  NAG B   2       3.181  28.788 -10.5630  0.00  0.00     0.000 O
ATOM     28  HD  NAG B   2       3.575  28.071 -10.8460  0.00  0.00     0.000 HD
BRANCH 18 30
ATOM     28   N  NAG B   2       6.554  29.964  -5.6480  0.00  0.00     0.000 N
ATOM     30  HD  NAG B   2       7.130  29.448  -6.0370  0.00  0.00     0.000 HD
ATOM     30   C  NAG B   2       7.622  29.296  -5.1950  0.00  0.00     0.000 C
ATOM     31   C  NAG B   2       8.036  29.528  -3.7690  0.00  0.00     0.000 C
ATOM     32   O  NAG B   2       8.242  28.526  -5.9000  0.00  0.00     0.000 OA
ENDBRANCH 18 30
BRANCH 17 33
ATOM     33  O4  GCU B   3       4.556  28.344  -5.7830  0.00  0.00     0.000 O
BRANCH 33 37
ATOM     34  C1  GCU B   3       1.645  26.991  -3.1310  0.00  0.00     0.000 C
ATOM     35  C2  GCU B   3       1.316  26.958  -4.6240  0.00  0.00     0.000 C
ATOM     36  C3  GCU B   3       2.594  27.068  -5.4280  0.00  0.00     0.000 C
ATOM     37  C4  GCU B   3       3.358  28.315  -5.0050  0.00  0.00     0.000 C
ATOM     38  C5  GCU B   3       3.644  28.258  -3.5030  0.00  0.00     0.000 C
ATOM     39  O5  GCU B   3       2.398  28.163  -2.8050  0.00  0.00     0.000 O
ATOM     40   O  GCU B   3       0.648  25.730  -4.9240  0.00  0.00     0.000 O
ATOM     42  HD  GCU B   3       0.662  25.059  -5.4710  0.00  0.00     0.000 HD
ATOM     42   O  GCU B   3       2.316  27.113  -6.8390  0.00  0.00     0.000 O
ATOM     44  HD  GCU B   3       2.330  26.442  -7.3860  0.00  0.00     0.000 HD
BRANCH 38 44
ATOM     44   C  GCU B   3       4.379  29.477  -3.0040  0.00  0.00     0.000 C
ATOM     45   O  GCU B   3       4.183  30.562  -3.5720  0.00  0.00     0.000 OA
ATOM     46   O  GCU B   3       5.160  29.375  -2.0390  0.00  0.00     0.000 OA
ENDBRANCH 38 44
BRANCH 34 47
ATOM     47  O3  NAG B   4       0.516  27.102  -2.4470  0.00  0.00     0.000 O
BRANCH 47 50
ATOM     48  C1  NAG B   4      -3.006  26.567  -1.4120  0.00  0.00     0.000 C
ATOM     49  C2  NAG B   4      -1.833  27.189  -2.1630  0.00  0.00     0.000 C
ATOM     50  C3  NAG B   4      -0.612  26.284  -2.1380  0.00  0.00     0.000 C
ATOM     51  C4  NAG B   4      -0.384  25.591  -0.7890  0.00  0.00     0.000 C
ATOM     52  C5  NAG B   4      -1.574  24.726  -0.4060  0.00  0.00     0.000 C
ATOM     53  O5  NAG B   4      -2.856  25.336  -0.6740  0.00  0.00     0.000 O
BRANCH 49 56
ATOM     54   N  NAG B   4      -2.350  26.876  -3.5060  0.00  0.00     0.000 N
ATOM     56  HD  NAG B   4      -2.596  26.093  -3.7840  0.00  0.00     0.000 HD
ATOM     56   C  NAG B   4      -3.006  27.208  -5.8200  0.00  0.00     0.000 C
ATOM     57   O  NAG B   4      -1.837  28.816  -4.5740  0.00  0.00     0.000 OA
ATOM     58   C  NAG B   4      -2.337  27.701  -4.5730  0.00  0.00     0.000 C
ENDBRANCH 49 56
ATOM     59   O  NAG B   4      -2.330  23.248   1.4210  0.00  0.00     0.000 O
ATOM     61  HD  NAG B   4      -2.310  24.039   1.0670  0.00  0.00     0.000 HD
ATOM     61   O  NAG B   4      -2.330  23.248   1.4210  0.00  0.00     0.000 O
ATOM     63  HD  NAG B   4      -2.310  24.039   1.0670  0.00  0.00     0.000 HD
ENDBRANCH 47 50
ENDBRANCH 34 47
ENDBRANCH 33 37
ENDBRANCH 17 33
ENDBRANCH 16 19
ENDBRANCH 1 16
TORSDOF 10
ENDMDL
MODEL 57
REMARK VINA RESULT:      -7.0     11.862     15.219
ROOT
ATOM      1  C1  GCU B   1      -3.661  20.601  -4.3160  0.00  0.00     0.000 C
ATOM      2  C2  GCU B   1      -4.849  19.947  -5.0060  0.00  0.00     0.000 C
ATOM      3  C3  GCU B   1      -4.403  19.237  -6.2740  0.00  0.00     0.000 C
ATOM      4  C4  GCU B   1      -3.586  20.180  -7.1440  0.00  0.00     0.000 C
ATOM      5  C5  GCU B   1      -2.457  20.830  -6.3420  0.00  0.00     0.000 C
ATOM      6  O5  GCU B   1      -3.017  21.517  -5.2150  0.00  0.00     0.000 O
ATOM      7   O  GCU B   1      -5.428  19.025  -4.0880  0.00  0.00     0.000 O
ATOM      9  HD  GCU B   1      -6.263  18.989  -3.8580  0.00  0.00     0.000 HD
ATOM      9   O  GCU B   1      -5.533  18.759  -7.0080  0.00  0.00     0.000 O
ATOM     11  HD  GCU B   1      -6.367  18.722  -6.7780  0.00  0.00     0.000 HD
ATOM     11   O  GCU B   1      -3.039  19.442  -8.2380  0.00  0.00     0.000 O
ATOM     13  HD  GCU B   1      -3.873  19.405  -8.0080  0.00  0.00     0.000 HD
ENDROOT
BRANCH 5 13
ATOM     13   C  GCU B   1      -1.656  21.748  -7.2340  0.00  0.00     0.000 C
ATOM     14   O  GCU B   1      -0.892  21.277  -8.1020  0.00  0.00     0.000 OA
ATOM     15   O  GCU B   1      -1.813  22.975  -7.0820  0.00  0.00     0.000 OA
ENDBRANCH 5 13
BRANCH 1 16
ATOM     16  O3  NAG B   2      -3.675  21.656  -3.4990  0.00  0.00     0.000 O
BRANCH 16 19
ATOM     17  C1  NAG B   2      -1.143  23.293  -1.2330  0.00  0.00     0.000 C
ATOM     18  C2  NAG B   2      -2.060  22.192  -1.7510  0.00  0.00     0.000 C
ATOM     19  C3  NAG B   2      -2.673  22.600  -3.0890  0.00  0.00     0.000 C
ATOM     20  C4  NAG B   2      -3.332  23.974  -2.9750  0.00  0.00     0.000 C
ATOM     21  C5  NAG B   2      -2.324  24.988  -2.4550  0.00  0.00     0.000 C
ATOM     22  O5  NAG B   2      -1.840  24.548  -1.1740  0.00  0.00     0.000 O
ATOM     23   O  NAG B   2      -3.823  24.347  -4.2680  0.00  0.00     0.000 O
ATOM     25  HD  NAG B   2      -4.412  24.178  -3.6560  0.00  0.00     0.000 HD
ATOM     25   C  NAG B   2      -2.910  26.393  -2.3300  0.00  0.00     0.000 C
ATOM     26   O  NAG B   2      -3.815  26.494  -1.2200  0.00  0.00     0.000 O
ATOM     28  HD  NAG B   2      -4.404  26.325  -0.6080  0.00  0.00     0.000 HD
BRANCH 18 30
ATOM     28   N  NAG B   2      -1.128  21.145  -1.3780  0.00  0.00     0.000 N
ATOM     30  HD  NAG B   2      -1.890  20.734  -1.3950  0.00  0.00     0.000 HD
ATOM     30   C  NAG B   2      -1.498  19.907  -1.0270  0.00  0.00     0.000 C
ATOM     31   C  NAG B   2      -0.416  18.944  -0.6230  0.00  0.00     0.000 C
ATOM     32   O  NAG B   2      -2.663  19.562  -1.0290  0.00  0.00     0.000 OA
ENDBRANCH 18 30
BRANCH 17 33
ATOM     33  O4  GCU B   3      -0.626  22.865   0.0440  0.00  0.00     0.000 O
BRANCH 33 37
ATOM     34  C1  GCU B   3       2.646  24.218   2.2340  0.00  0.00     0.000 C
ATOM     35  C2  GCU B   3       1.309  24.929   2.4430  0.00  0.00     0.000 C
ATOM     36  C3  GCU B   3       0.185  24.061   1.9180  0.00  0.00     0.000 C
ATOM     37  C4  GCU B   3       0.456  23.698   0.4650  0.00  0.00     0.000 C
ATOM     38  C5  GCU B   3       1.808  22.991   0.3540  0.00  0.00     0.000 C
ATOM     39  O5  GCU B   3       2.822  23.867   0.8580  0.00  0.00     0.000 O
ATOM     40   O  GCU B   3       1.130  25.178   3.8390  0.00  0.00     0.000 O
ATOM     42  HD  GCU B   3       0.558  25.087   4.4830  0.00  0.00     0.000 HD
ATOM     42   O  GCU B   3      -1.083  24.730   2.0330  0.00  0.00     0.000 O
ATOM     44  HD  GCU B   3      -1.655  24.639   2.6770  0.00  0.00     0.000 HD
BRANCH 38 44
ATOM     44   C  GCU B   3       2.157  22.622  -1.0660  0.00  0.00     0.000 C
ATOM     45   O  GCU B   3       2.472  23.527  -1.8540  0.00  0.00     0.000 OA
ATOM     46   O  GCU B   3       2.128  21.427  -1.4190  0.00  0.00     0.000 OA
ENDBRANCH 38 44
BRANCH 34 47
ATOM     47  O3  NAG B   4       3.628  25.066   2.5040  0.00  0.00     0.000 O
BRANCH 47 50
ATOM     48  C1  NAG B   4       6.954  24.809   4.1260  0.00  0.00     0.000 C
ATOM     49  C2  NAG B   4       5.504  24.454   3.8110  0.00  0.00     0.000 C
ATOM     50  C3  NAG B   4       5.055  25.062   2.4930  0.00  0.00     0.000 C
ATOM     51  C4  NAG B   4       5.566  26.489   2.2640  0.00  0.00     0.000 C
ATOM     52  C5  NAG B   4       7.085  26.537   2.2690  0.00  0.00     0.000 C
ATOM     53  O5  NAG B   4       7.697  25.730   3.2990  0.00  0.00     0.000 O
BRANCH 49 56
ATOM     54   N  NAG B   4       5.799  23.079   3.3740  0.00  0.00     0.000 N
ATOM     56  HD  NAG B   4       6.389  22.852   2.7820  0.00  0.00     0.000 HD
ATOM     56   C  NAG B   4       5.613  20.665   3.1970  0.00  0.00     0.000 C
ATOM     57   O  NAG B   4       4.030  21.996   4.3040  0.00  0.00     0.000 OA
ATOM     58   C  NAG B   4       5.074  21.981   3.6680  0.00  0.00     0.000 C
ENDBRANCH 49 56
ATOM     59   O  NAG B   4       8.928  28.164   2.0410  0.00  0.00     0.000 O
ATOM     61  HD  NAG B   4       8.386  27.725   2.5550  0.00  0.00     0.000 HD
ATOM     61   O  NAG B   4       8.928  28.164   2.0410  0.00  0.00     0.000 O
ATOM     63  HD  NAG B   4       8.386  27.725   2.5550  0.00  0.00     0.000 HD
ENDBRANCH 47 50
ENDBRANCH 34 47
ENDBRANCH 33 37
ENDBRANCH 17 33
ENDBRANCH 16 19
ENDBRANCH 1 16
TORSDOF 10
ENDMDL
MODEL 58
REMARK VINA RESULT:      -7.0      4.567     12.001
ROOT
ATOM      1  C1  GCU B   1       4.854  28.882  -0.9260  0.00  0.00     0.000 C
ATOM      2  C2  GCU B   1       5.048  29.900   0.1860  0.00  0.00     0.000 C
ATOM      3  C3  GCU B   1       6.268  29.547   1.0230  0.00  0.00     0.000 C
ATOM      4  C4  GCU B   1       6.192  28.098   1.4770  0.00  0.00     0.000 C
ATOM      5  C5  GCU B   1       5.934  27.163   0.2940  0.00  0.00     0.000 C
ATOM      6  O5  GCU B   1       4.727  27.565  -0.3670  0.00  0.00     0.000 O
ATOM      7   O  GCU B   1       5.206  31.179  -0.4200  0.00  0.00     0.000 O
ATOM      9  HD  GCU B   1       4.757  31.894  -0.2280  0.00  0.00     0.000 HD
ATOM      9   O  GCU B   1       6.364  30.407   2.1620  0.00  0.00     0.000 O
ATOM     11  HD  GCU B   1       5.916  31.122   2.3550  0.00  0.00     0.000 HD
ATOM     11   O  GCU B   1       7.423  27.747   2.1110  0.00  0.00     0.000 O
ATOM     13  HD  GCU B   1       6.975  28.463   2.3030  0.00  0.00     0.000 HD
ENDROOT
BRANCH 5 13
ATOM     13   C  GCU B   1       5.878  25.732   0.7720  0.00  0.00     0.000 C
ATOM     14   O  GCU B   1       4.781  25.197   1.0330  0.00  0.00     0.000 OA
ATOM     15   O  GCU B   1       6.956  25.115   0.8640  0.00  0.00     0.000 OA
ENDBRANCH 5 13
BRANCH 1 16
ATOM     16  O3  NAG B   2       3.715  28.559  -1.5440  0.00  0.00     0.000 O
BRANCH 16 19
ATOM     17  C1  NAG B   2       3.723  27.943  -5.2650  0.00  0.00     0.000 C
ATOM     18  C2  NAG B   2       4.189  28.526  -3.9370  0.00  0.00     0.000 C
ATOM     19  C3  NAG B   2       3.417  27.893  -2.7810  0.00  0.00     0.000 C
ATOM     20  C4  NAG B   2       1.912  27.996  -3.0260  0.00  0.00     0.000 C
ATOM     21  C5  NAG B   2       1.566  27.381  -4.3740  0.00  0.00     0.000 C
ATOM     22  O5  NAG B   2       2.299  28.070  -5.4020  0.00  0.00     0.000 O
ATOM     23   O  NAG B   2       1.234  27.323  -1.9590  0.00  0.00     0.000 O
ATOM     25  HD  NAG B   2       1.150  28.184  -2.0000  0.00  0.00     0.000 HD
ATOM     25   C  NAG B   2       0.071  27.433  -4.6800  0.00  0.00     0.000 C
ATOM     26   O  NAG B   2      -0.357  28.765  -5.0070  0.00  0.00     0.000 O
ATOM     28  HD  NAG B   2      -0.441  29.626  -5.0480  0.00  0.00     0.000 HD
BRANCH 18 30
ATOM     28   N  NAG B   2       5.237  29.476  -4.2590  0.00  0.00     0.000 N
ATOM     30  HD  NAG B   2       5.669  28.826  -3.8840  0.00  0.00     0.000 HD
ATOM     30   C  NAG B   2       6.514  29.334  -3.8830  0.00  0.00     0.000 C
ATOM     31   C  NAG B   2       7.475  30.428  -4.2550  0.00  0.00     0.000 C
ATOM     32   O  NAG B   2       6.895  28.362  -3.2620  0.00  0.00     0.000 OA
ENDBRANCH 18 30
BRANCH 17 33
ATOM     33  O4  GCU B   3       4.460  28.604  -6.3140  0.00  0.00     0.000 O
BRANCH 33 37
ATOM     34  C1  GCU B   3       5.810  27.217  -9.9990  0.00  0.00     0.000 C
ATOM     35  C2  GCU B   3       4.305  27.420  -9.8260  0.00  0.00     0.000 C
ATOM     36  C3  GCU B   3       4.048  28.306  -8.6250  0.00  0.00     0.000 C
ATOM     37  C4  GCU B   3       4.723  27.711  -7.3970  0.00  0.00     0.000 C
ATOM     38  C5  GCU B   3       6.221  27.547  -7.6630  0.00  0.00     0.000 C
ATOM     39  O5  GCU B   3       6.392  26.696  -8.8010  0.00  0.00     0.000 O
ATOM     40   O  GCU B   3       3.780  28.027 -11.0080  0.00  0.00     0.000 O
ATOM     42  HD  GCU B   3       3.282  28.682 -11.2790  0.00  0.00     0.000 HD
ATOM     42   O  GCU B   3       2.637  28.460  -8.3880  0.00  0.00     0.000 O
ATOM     44  HD  GCU B   3       2.140  29.116  -8.6580  0.00  0.00     0.000 HD
BRANCH 38 44
ATOM     44   C  GCU B   3       6.956  26.938  -6.4950  0.00  0.00     0.000 C
ATOM     45   O  GCU B   3       8.096  27.349  -6.2310  0.00  0.00     0.000 OA
ATOM     46   O  GCU B   3       6.410  26.044  -5.8200  0.00  0.00     0.000 OA
ENDBRANCH 38 44
BRANCH 34 47
ATOM     47  O3  NAG B   4       6.012  26.282 -10.9170  0.00  0.00     0.000 O
BRANCH 47 50
ATOM     48  C1  NAG B   4       8.937  24.242 -11.9340  0.00  0.00     0.000 C
ATOM     49  C2  NAG B   4       7.556  24.545 -11.3630  0.00  0.00     0.000 C
ATOM     50  C3  NAG B   4       7.048  25.902 -11.8210  0.00  0.00     0.000 C
ATOM     51  C4  NAG B   4       8.127  26.990 -11.8460  0.00  0.00     0.000 C
ATOM     52  C5  NAG B   4       9.267  26.614 -12.7790  0.00  0.00     0.000 C
ATOM     53  O5  NAG B   4       9.669  25.229 -12.6910  0.00  0.00     0.000 O
BRANCH 49 56
ATOM     54   N  NAG B   4       6.618  23.811 -12.2300  0.00  0.00     0.000 N
ATOM     56  HD  NAG B   4       6.170  24.149 -12.8900  0.00  0.00     0.000 HD
ATOM     56   C  NAG B   4       5.280  21.974 -13.0840  0.00  0.00     0.000 C
ATOM     57   O  NAG B   4       6.418  21.888 -11.0350  0.00  0.00     0.000 OA
ATOM     58   C  NAG B   4       6.154  22.563 -12.0200  0.00  0.00     0.000 C
ENDBRANCH 49 56
ATOM     59   O  NAG B   4      11.431  27.496 -13.5740  0.00  0.00     0.000 O
ATOM     61  HD  NAG B   4      10.992  27.006 -13.0100  0.00  0.00     0.000 HD
ATOM     61   O  NAG B   4      11.431  27.496 -13.5740  0.00  0.00     0.000 O
ATOM     63  HD  NAG B   4      10.992  27.006 -13.0100  0.00  0.00     0.000 HD
ENDBRANCH 47 50
ENDBRANCH 34 47
ENDBRANCH 33 37
ENDBRANCH 17 33
ENDBRANCH 16 19
ENDBRANCH 1 16
TORSDOF 10
ENDMDL
MODEL 59
REMARK VINA RESULT:      -7.0      4.325     11.745
ROOT
ATOM      1  C1  GCU B   1       4.871  28.903  -0.9870  0.00  0.00     0.000 C
ATOM      2  C2  GCU B   1       5.050  29.898   0.1500  0.00  0.00     0.000 C
ATOM      3  C3  GCU B   1       6.261  29.529   0.9940  0.00  0.00     0.000 C
ATOM      4  C4  GCU B   1       6.182  28.070   1.4160  0.00  0.00     0.000 C
ATOM      5  C5  GCU B   1       5.939  27.161   0.2090  0.00  0.00     0.000 C
ATOM      6  O5  GCU B   1       4.739  27.574  -0.4570  0.00  0.00     0.000 O
ATOM      7   O  GCU B   1       5.213  31.190  -0.4270  0.00  0.00     0.000 O
ATOM      9  HD  GCU B   1       4.761  31.900  -0.2240  0.00  0.00     0.000 HD
ATOM      9   O  GCU B   1       6.341  30.363   2.1520  0.00  0.00     0.000 O
ATOM     11  HD  GCU B   1       5.890  31.074   2.3540  0.00  0.00     0.000 HD
ATOM     11   O  GCU B   1       7.406  27.707   2.0560  0.00  0.00     0.000 O
ATOM     13  HD  GCU B   1       6.954  28.418   2.2580  0.00  0.00     0.000 HD
ENDROOT
BRANCH 5 13
ATOM     13   C  GCU B   1       5.879  25.719   0.6560  0.00  0.00     0.000 C
ATOM     14   O  GCU B   1       6.240  24.805  -0.1130  0.00  0.00     0.000 OA
ATOM     15   O  GCU B   1       5.487  25.494   1.8170  0.00  0.00     0.000 OA
ENDBRANCH 5 13
BRANCH 1 16
ATOM     16  O3  NAG B   2       3.740  28.593  -1.6240  0.00  0.00     0.000 O
BRANCH 16 19
ATOM     17  C1  NAG B   2       3.756  28.107  -5.3650  0.00  0.00     0.000 C
ATOM     18  C2  NAG B   2       4.209  28.657  -4.0180  0.00  0.00     0.000 C
ATOM     19  C3  NAG B   2       3.458  27.962  -2.8830  0.00  0.00     0.000 C
ATOM     20  C4  NAG B   2       1.950  28.031  -3.1220  0.00  0.00     0.000 C
ATOM     21  C5  NAG B   2       1.618  27.453  -4.4910  0.00  0.00     0.000 C
ATOM     22  O5  NAG B   2       2.328  28.198  -5.4960  0.00  0.00     0.000 O
ATOM     23   O  NAG B   2       1.294  27.302  -2.0790  0.00  0.00     0.000 O
ATOM     25  HD  NAG B   2       1.185  28.161  -2.0890  0.00  0.00     0.000 HD
ATOM     25   C  NAG B   2       0.121  27.474  -4.7930  0.00  0.00     0.000 C
ATOM     26   O  NAG B   2      -0.345  28.803  -5.0720  0.00  0.00     0.000 O
ATOM     28  HD  NAG B   2      -0.454  29.662  -5.0830  0.00  0.00     0.000 HD
BRANCH 18 30
ATOM     28   N  NAG B   2       5.227  29.650  -4.3030  0.00  0.00     0.000 N
ATOM     30  HD  NAG B   2       5.679  28.996  -3.9580  0.00  0.00     0.000 HD
ATOM     30   C  NAG B   2       6.510  29.528  -3.9400  0.00  0.00     0.000 C
ATOM     31   C  NAG B   2       7.437  30.665  -4.2680  0.00  0.00     0.000 C
ATOM     32   O  NAG B   2       6.922  28.542  -3.3630  0.00  0.00     0.000 OA
ENDBRANCH 18 30
BRANCH 17 33
ATOM     33  O4  GCU B   3       4.471  28.825  -6.3910  0.00  0.00     0.000 O
BRANCH 33 37
ATOM     34  C1  GCU B   3       5.847  27.597 -10.1230  0.00  0.00     0.000 C
ATOM     35  C2  GCU B   3       4.335  27.640  -9.9030  0.00  0.00     0.000 C
ATOM     36  C3  GCU B   3       4.023  28.490  -8.6900  0.00  0.00     0.000 C
ATOM     37  C4  GCU B   3       4.794  27.968  -7.4870  0.00  0.00     0.000 C
ATOM     38  C5  GCU B   3       6.292  27.964  -7.7980  0.00  0.00     0.000 C
ATOM     39  O5  GCU B   3       6.517  27.138  -8.9450  0.00  0.00     0.000 O
ATOM     40   O  GCU B   3       3.713  28.190 -11.0660  0.00  0.00     0.000 O
ATOM     42  HD  GCU B   3       3.141  28.790 -11.3180  0.00  0.00     0.000 HD
ATOM     42   O  GCU B   3       2.611  28.494  -8.4100  0.00  0.00     0.000 O
ATOM     44  HD  GCU B   3       2.039  29.093  -8.6610  0.00  0.00     0.000 HD
BRANCH 38 44
ATOM     44   C  GCU B   3       7.122  27.433  -6.6570  0.00  0.00     0.000 C
ATOM     45   O  GCU B   3       8.208  27.979  -6.4080  0.00  0.00     0.000 OA
ATOM     46   O  GCU B   3       6.707  26.467  -5.9880  0.00  0.00     0.000 OA
ENDBRANCH 38 44
BRANCH 34 47
ATOM     47  O3  NAG B   4       6.118  26.691 -11.0520  0.00  0.00     0.000 O
BRANCH 47 50
ATOM     48  C1  NAG B   4       8.335  26.053 -13.9560  0.00  0.00     0.000 C
ATOM     49  C2  NAG B   4       7.444  26.847 -13.0070  0.00  0.00     0.000 C
ATOM     50  C3  NAG B   4       7.276  26.136 -11.6740  0.00  0.00     0.000 C
ATOM     51  C4  NAG B   4       7.108  24.618 -11.8010  0.00  0.00     0.000 C
ATOM     52  C5  NAG B   4       8.310  23.985 -12.4820  0.00  0.00     0.000 C
ATOM     53  O5  NAG B   4       8.806  24.732 -13.6150  0.00  0.00     0.000 O
BRANCH 49 56
ATOM     54   N  NAG B   4       8.484  27.830 -12.6570  0.00  0.00     0.000 N
ATOM     56  HD  NAG B   4       9.289  27.644 -12.3970  0.00  0.00     0.000 HD
ATOM     56   C  NAG B   4       9.518  29.984 -12.2300  0.00  0.00     0.000 C
ATOM     57   O  NAG B   4       7.212  29.712 -12.5590  0.00  0.00     0.000 OA
ATOM     58   C  NAG B   4       8.298  29.155 -12.4910  0.00  0.00     0.000 C
ENDBRANCH 49 56
ATOM     59   O  NAG B   4       9.124  21.772 -13.2140  0.00  0.00     0.000 O
ATOM     61  HD  NAG B   4       8.704  22.507 -13.4010  0.00  0.00     0.000 HD
ATOM     61   O  NAG B   4       9.124  21.772 -13.2140  0.00  0.00     0.000 O
ATOM     63  HD  NAG B   4       8.704  22.507 -13.4010  0.00  0.00     0.000 HD
ENDBRANCH 47 50
ENDBRANCH 34 47
ENDBRANCH 33 37
ENDBRANCH 17 33
ENDBRANCH 16 19
ENDBRANCH 1 16
TORSDOF 10
ENDMDL
MODEL 60
REMARK VINA RESULT:      -7.0      4.644      7.072
ROOT
ATOM      1  C1  GCU B   1       9.242  31.435  -6.3870  0.00  0.00     0.000 C
ATOM      2  C2  GCU B   1      10.746  31.232  -6.4900  0.00  0.00     0.000 C
ATOM      3  C3  GCU B   1      11.484  32.348  -5.7670  0.00  0.00     0.000 C
ATOM      4  C4  GCU B   1      10.979  33.703  -6.2380  0.00  0.00     0.000 C
ATOM      5  C5  GCU B   1       9.454  33.783  -6.1510  0.00  0.00     0.000 C
ATOM      6  O5  GCU B   1       8.884  32.718  -6.9250  0.00  0.00     0.000 O
ATOM      7   O  GCU B   1      11.052  29.967  -5.9120  0.00  0.00     0.000 O
ATOM      9  HD  GCU B   1      11.510  29.333  -6.2840  0.00  0.00     0.000 HD
ATOM      9   O  GCU B   1      12.892  32.251  -5.9950  0.00  0.00     0.000 O
ATOM     11  HD  GCU B   1      13.350  31.617  -6.3670  0.00  0.00     0.000 HD
ATOM     11   O  GCU B   1      11.563  34.722  -5.4250  0.00  0.00     0.000 O
ATOM     13  HD  GCU B   1      12.021  34.087  -5.7970  0.00  0.00     0.000 HD
ENDROOT
BRANCH 5 13
ATOM     13   C  GCU B   1       8.983  35.141  -6.6110  0.00  0.00     0.000 C
ATOM     14   O  GCU B   1       8.730  36.037  -5.7790  0.00  0.00     0.000 OA
ATOM     15   O  GCU B   1       8.888  35.331  -7.8390  0.00  0.00     0.000 OA
ENDBRANCH 5 13
BRANCH 1 16
ATOM     16  O3  NAG B   2       8.302  30.995  -7.2260  0.00  0.00     0.000 O
BRANCH 16 19
ATOM     17  C1  NAG B   2       5.316  28.929  -6.2070  0.00  0.00     0.000 C
ATOM     18  C2  NAG B   2       6.766  29.394  -6.2120  0.00  0.00     0.000 C
ATOM     19  C3  NAG B   2       6.917  30.652  -7.0650  0.00  0.00     0.000 C
ATOM     20  C4  NAG B   2       6.318  30.428  -8.4530  0.00  0.00     0.000 C
ATOM     21  C5  NAG B   2       4.872  29.973  -8.3230  0.00  0.00     0.000 C
ATOM     22  O5  NAG B   2       4.833  28.760  -7.5500  0.00  0.00     0.000 O
ATOM     23   O  NAG B   2       6.412  31.654  -9.1870  0.00  0.00     0.000 O
ATOM     25  HD  NAG B   2       6.904  30.994  -9.4560  0.00  0.00     0.000 HD
ATOM     25   C  NAG B   2       4.201  29.745  -9.6760  0.00  0.00     0.000 C
ATOM     26   O  NAG B   2       4.680  28.549 -10.3110  0.00  0.00     0.000 O
ATOM     28  HD  NAG B   2       5.172  27.889 -10.5800  0.00  0.00     0.000 HD
BRANCH 18 30
ATOM     28   N  NAG B   2       6.996  29.350  -4.7800  0.00  0.00     0.000 N
ATOM     30  HD  NAG B   2       7.736  29.043  -5.1080  0.00  0.00     0.000 HD
ATOM     30   C  NAG B   2       8.081  28.807  -4.2140  0.00  0.00     0.000 C
ATOM     31   C  NAG B   2       8.153  28.797  -2.7130  0.00  0.00     0.000 C
ATOM     32   O  NAG B   2       8.980  28.333  -4.8790  0.00  0.00     0.000 OA
ENDBRANCH 18 30
BRANCH 17 33
ATOM     33  O4  GCU B   3       5.246  27.724  -5.4190  0.00  0.00     0.000 O
BRANCH 33 37
ATOM     34  C1  GCU B   3       1.955  25.875  -3.6640  0.00  0.00     0.000 C
ATOM     35  C2  GCU B   3       2.420  25.353  -5.0230  0.00  0.00     0.000 C
ATOM     36  C3  GCU B   3       3.832  25.831  -5.2930  0.00  0.00     0.000 C
ATOM     37  C4  GCU B   3       3.890  27.347  -5.1750  0.00  0.00     0.000 C
ATOM     38  C5  GCU B   3       3.410  27.774  -3.7860  0.00  0.00     0.000 C
ATOM     39  O5  GCU B   3       2.073  27.299  -3.6010  0.00  0.00     0.000 O
ATOM     40   O  GCU B   3       2.375  23.925  -5.0120  0.00  0.00     0.000 O
ATOM     42  HD  GCU B   3       2.849  23.224  -5.1950  0.00  0.00     0.000 HD
ATOM     42   O  GCU B   3       4.277  25.419  -6.5980  0.00  0.00     0.000 O
ATOM     44  HD  GCU B   3       4.751  24.717  -6.7810  0.00  0.00     0.000 HD
BRANCH 38 44
ATOM     44   C  GCU B   3       3.416  29.271  -3.6030  0.00  0.00     0.000 C
ATOM     45   O  GCU B   3       4.338  29.785  -2.9510  0.00  0.00     0.000 OA
ATOM     46   O  GCU B   3       2.508  29.958  -4.1070  0.00  0.00     0.000 OA
ENDBRANCH 38 44
BRANCH 34 47
ATOM     47  O3  NAG B   4       0.659  25.627  -3.5320  0.00  0.00     0.000 O
BRANCH 47 50
ATOM     48  C1  NAG B   4      -1.367  28.546  -4.5950  0.00  0.00     0.000 C
ATOM     49  C2  NAG B   4      -0.227  27.533  -4.6210  0.00  0.00     0.000 C
ATOM     50  C3  NAG B   4      -0.572  26.285  -3.8240  0.00  0.00     0.000 C
ATOM     51  C4  NAG B   4      -1.318  26.574  -2.5160  0.00  0.00     0.000 C
ATOM     52  C5  NAG B   4      -2.628  27.299  -2.7770  0.00  0.00     0.000 C
ATOM     53  O5  NAG B   4      -2.538  28.338  -3.7770  0.00  0.00     0.000 O
BRANCH 49 56
ATOM     54   N  NAG B   4      -0.402  26.868  -5.9240  0.00  0.00     0.000 N
ATOM     56  HD  NAG B   4      -0.881  26.162  -6.0710  0.00  0.00     0.000 HD
ATOM     56   C  NAG B   4      -0.109  26.395  -8.2870  0.00  0.00     0.000 C
ATOM     57   O  NAG B   4       1.228  27.919  -7.1090  0.00  0.00     0.000 OA
ATOM     58   C  NAG B   4       0.302  27.125  -7.0450  0.00  0.00     0.000 C
ENDBRANCH 49 56
ATOM     59   O  NAG B   4      -4.546  28.247  -1.5450  0.00  0.00     0.000 O
ATOM     61  HD  NAG B   4      -3.767  28.362  -1.9070  0.00  0.00     0.000 HD
ATOM     61   O  NAG B   4      -4.546  28.247  -1.5450  0.00  0.00     0.000 O
ATOM     63  HD  NAG B   4      -3.767  28.362  -1.9070  0.00  0.00     0.000 HD
ENDBRANCH 47 50
ENDBRANCH 34 47
ENDBRANCH 33 37
ENDBRANCH 17 33
ENDBRANCH 16 19
ENDBRANCH 1 16
TORSDOF 10
ENDMDL
MODEL 61
REMARK VINA RESULT:      -7.0      5.288      7.450
ROOT
ATOM      1  C1  GCU B   1       6.757  31.547  -9.2310  0.00  0.00     0.000 C
ATOM      2  C2  GCU B   1       8.108  31.955  -9.7980  0.00  0.00     0.000 C
ATOM      3  C3  GCU B   1       8.086  33.413 -10.2300  0.00  0.00     0.000 C
ATOM      4  C4  GCU B   1       6.895  33.674 -11.1400  0.00  0.00     0.000 C
ATOM      5  C5  GCU B   1       5.597  33.173 -10.5050  0.00  0.00     0.000 C
ATOM      6  O5  GCU B   1       5.728  31.776 -10.2070  0.00  0.00     0.000 O
ATOM      7   O  GCU B   1       9.085  31.744  -8.7840  0.00  0.00     0.000 O
ATOM      9  HD  GCU B   1       9.819  31.293  -8.8670  0.00  0.00     0.000 HD
ATOM      9   O  GCU B   1       9.297  33.757 -10.9070  0.00  0.00     0.000 O
ATOM     11  HD  GCU B   1      10.032  33.306 -10.9910  0.00  0.00     0.000 HD
ATOM     11   O  GCU B   1       6.802  35.077 -11.3880  0.00  0.00     0.000 O
ATOM     13  HD  GCU B   1       7.537  34.626 -11.4720  0.00  0.00     0.000 HD
ENDROOT
BRANCH 5 13
ATOM     13   C  GCU B   1       4.433  33.457 -11.4230  0.00  0.00     0.000 C
ATOM     14   O  GCU B   1       4.631  33.799 -12.6070  0.00  0.00     0.000 OA
ATOM     15   O  GCU B   1       3.286  33.307 -10.9590  0.00  0.00     0.000 OA
ENDBRANCH 5 13
BRANCH 1 16
ATOM     16  O3  NAG B   2       6.228  30.322  -9.1910  0.00  0.00     0.000 O
BRANCH 16 19
ATOM     17  C1  NAG B   2       5.294  28.119  -6.2750  0.00  0.00     0.000 C
ATOM     18  C2  NAG B   2       6.190  28.989  -7.1480  0.00  0.00     0.000 C
ATOM     19  C3  NAG B   2       5.372  29.648  -8.2560  0.00  0.00     0.000 C
ATOM     20  C4  NAG B   2       4.569  28.596  -9.0210  0.00  0.00     0.000 C
ATOM     21  C5  NAG B   2       3.712  27.795  -8.0520  0.00  0.00     0.000 C
ATOM     22  O5  NAG B   2       4.569  27.173  -7.0780  0.00  0.00     0.000 O
ATOM     23   O  NAG B   2       3.761  29.266  -9.9960  0.00  0.00     0.000 O
ATOM     25  HD  NAG B   2       4.408  28.772 -10.2910  0.00  0.00     0.000 HD
ATOM     25   C  NAG B   2       2.867  26.732  -8.7500  0.00  0.00     0.000 C
ATOM     26   O  NAG B   2       3.667  25.626  -9.1950  0.00  0.00     0.000 O
ATOM     28  HD  NAG B   2       4.315  25.132  -9.4910  0.00  0.00     0.000 HD
BRANCH 18 30
ATOM     28   N  NAG B   2       6.854  29.747  -6.1040  0.00  0.00     0.000 N
ATOM     30  HD  NAG B   2       7.498  29.558  -6.6500  0.00  0.00     0.000 HD
ATOM     30   C  NAG B   2       8.179  29.923  -6.0370  0.00  0.00     0.000 C
ATOM     31   C  NAG B   2       8.721  30.697  -4.8680  0.00  0.00     0.000 C
ATOM     32   O  NAG B   2       8.928  29.476  -6.8830  0.00  0.00     0.000 OA
ENDBRANCH 18 30
BRANCH 17 33
ATOM     33  O4  GCU B   3       6.128  27.500  -5.2750  0.00  0.00     0.000 O
BRANCH 33 37
ATOM     34  C1  GCU B   3       5.158  25.675  -1.6610  0.00  0.00     0.000 C
ATOM     35  C2  GCU B   3       4.989  24.853  -2.9390  0.00  0.00     0.000 C
ATOM     36  C3  GCU B   3       5.771  25.498  -4.0640  0.00  0.00     0.000 C
ATOM     37  C4  GCU B   3       5.340  26.950  -4.2180  0.00  0.00     0.000 C
ATOM     38  C5  GCU B   3       5.547  27.691  -2.8950  0.00  0.00     0.000 C
ATOM     39  O5  GCU B   3       4.777  27.037  -1.8810  0.00  0.00     0.000 O
ATOM     40   O  GCU B   3       5.467  23.527  -2.7030  0.00  0.00     0.000 O
ATOM     42  HD  GCU B   3       5.987  22.917  -3.0320  0.00  0.00     0.000 HD
ATOM     42   O  GCU B   3       5.576  24.790  -5.3010  0.00  0.00     0.000 O
ATOM     44  HD  GCU B   3       6.096  24.181  -5.6310  0.00  0.00     0.000 HD
BRANCH 38 44
ATOM     44   C  GCU B   3       5.117  29.135  -2.9640  0.00  0.00     0.000 C
ATOM     45   O  GCU B   3       5.992  30.014  -2.9920  0.00  0.00     0.000 OA
ATOM     46   O  GCU B   3       3.904  29.418  -2.9950  0.00  0.00     0.000 OA
ENDBRANCH 38 44
BRANCH 34 47
ATOM     47  O3  NAG B   4       4.312  25.222  -0.7460  0.00  0.00     0.000 O
BRANCH 47 50
ATOM     48  C1  NAG B   4       4.676  25.096   2.9420  0.00  0.00     0.000 C
ATOM     49  C2  NAG B   4       4.173  25.585   1.5880  0.00  0.00     0.000 C
ATOM     50  C3  NAG B   4       4.382  24.540   0.5050  0.00  0.00     0.000 C
ATOM     51  C4  NAG B   4       5.722  23.802   0.6090  0.00  0.00     0.000 C
ATOM     52  C5  NAG B   4       5.851  23.080   1.9390  0.00  0.00     0.000 C
ATOM     53  O5  NAG B   4       5.381  23.843   3.0730  0.00  0.00     0.000 O
BRANCH 49 56
ATOM     54   N  NAG B   4       2.777  25.505   2.0520  0.00  0.00     0.000 N
ATOM     56  HD  NAG B   4       2.502  25.088   2.7590  0.00  0.00     0.000 HD
ATOM     56   C  NAG B   4       0.368  25.808   2.0630  0.00  0.00     0.000 C
ATOM     57   O  NAG B   4       1.717  26.314   0.2120  0.00  0.00     0.000 OA
ATOM     58   C  NAG B   4       1.688  25.890   1.3580  0.00  0.00     0.000 C
ENDBRANCH 49 56
ATOM     59   O  NAG B   4       7.454  21.672   3.1810  0.00  0.00     0.000 O
ATOM     61  HD  NAG B   4       7.140  22.460   3.0070  0.00  0.00     0.000 HD
ATOM     61   O  NAG B   4       7.454  21.672   3.1810  0.00  0.00     0.000 O
ATOM     63  HD  NAG B   4       7.140  22.460   3.0070  0.00  0.00     0.000 HD
ENDBRANCH 47 50
ENDBRANCH 34 47
ENDBRANCH 33 37
ENDBRANCH 17 33
ENDBRANCH 16 19
ENDBRANCH 1 16
TORSDOF 10
ENDMDL
MODEL 62
REMARK VINA RESULT:      -6.9      3.217      5.204
ROOT
ATOM      1  C1  GCU B   1       7.512  31.435  -9.0340  0.00  0.00     0.000 C
ATOM      2  C2  GCU B   1       8.662  32.383  -8.7290  0.00  0.00     0.000 C
ATOM      3  C3  GCU B   1       8.258  33.820  -9.0200  0.00  0.00     0.000 C
ATOM      4  C4  GCU B   1       7.682  33.930 -10.4230  0.00  0.00     0.000 C
ATOM      5  C5  GCU B   1       6.577  32.896 -10.6470  0.00  0.00     0.000 C
ATOM      6  O5  GCU B   1       7.105  31.585 -10.4030  0.00  0.00     0.000 O
ATOM      7   O  GCU B   1       9.002  32.223  -7.3550  0.00  0.00     0.000 O
ATOM      9  HD  GCU B   1       9.793  32.066  -7.0400  0.00  0.00     0.000 HD
ATOM      9   O  GCU B   1       9.380  34.696  -8.8870  0.00  0.00     0.000 O
ATOM     11  HD  GCU B   1      10.171  34.539  -8.5720  0.00  0.00     0.000 HD
ATOM     11   O  GCU B   1       7.156  35.246 -10.6040  0.00  0.00     0.000 O
ATOM     13  HD  GCU B   1       7.947  35.088 -10.2890  0.00  0.00     0.000 HD
ENDROOT
BRANCH 5 13
ATOM     13   C  GCU B   1       6.015  33.037 -12.0410  0.00  0.00     0.000 C
ATOM     14   O  GCU B   1       6.476  32.355 -12.9800  0.00  0.00     0.000 OA
ATOM     15   O  GCU B   1       5.069  33.832 -12.2000  0.00  0.00     0.000 OA
ENDBRANCH 5 13
BRANCH 1 16
ATOM     16  O3  NAG B   2       7.588  30.144  -9.3610  0.00  0.00     0.000 O
BRANCH 16 19
ATOM     17  C1  NAG B   2       5.078  27.405  -8.7080  0.00  0.00     0.000 C
ATOM     18  C2  NAG B   2       5.975  28.594  -8.3870  0.00  0.00     0.000 C
ATOM     19  C3  NAG B   2       6.604  29.143  -9.6660  0.00  0.00     0.000 C
ATOM     20  C4  NAG B   2       7.292  28.022 -10.4440  0.00  0.00     0.000 C
ATOM     21  C5  NAG B   2       6.303  26.896 -10.7090  0.00  0.00     0.000 C
ATOM     22  O5  NAG B   2       5.802  26.411  -9.4510  0.00  0.00     0.000 O
ATOM     23   O  NAG B   2       7.798  28.567 -11.6680  0.00  0.00     0.000 O
ATOM     25  HD  NAG B   2       8.379  28.313 -11.0790  0.00  0.00     0.000 HD
ATOM     25   C  NAG B   2       6.918  25.744 -11.5000  0.00  0.00     0.000 C
ATOM     26   O  NAG B   2       7.818  24.968 -10.6940  0.00  0.00     0.000 O
ATOM     28  HD  NAG B   2       8.400  24.714 -10.1050  0.00  0.00     0.000 HD
BRANCH 18 30
ATOM     28   N  NAG B   2       5.927  28.813  -6.9540  0.00  0.00     0.000 N
ATOM     30  HD  NAG B   2       5.446  29.461  -7.2690  0.00  0.00     0.000 HD
ATOM     30   C  NAG B   2       5.360  29.883  -6.3810  0.00  0.00     0.000 C
ATOM     31   C  NAG B   2       5.431  29.991  -4.8840  0.00  0.00     0.000 C
ATOM     32   O  NAG B   2       4.808  30.744  -7.0370  0.00  0.00     0.000 OA
ENDBRANCH 18 30
BRANCH 17 33
ATOM     33  O4  GCU B   3       4.546  26.912  -7.4620  0.00  0.00     0.000 O
BRANCH 33 37
ATOM     34  C1  GCU B   3       0.863  25.196  -6.5520  0.00  0.00     0.000 C
ATOM     35  C2  GCU B   3       1.905  24.316  -7.2460  0.00  0.00     0.000 C
ATOM     36  C3  GCU B   3       3.274  24.948  -7.1090  0.00  0.00     0.000 C
ATOM     37  C4  GCU B   3       3.235  26.373  -7.6410  0.00  0.00     0.000 C
ATOM     38  C5  GCU B   3       2.170  27.175  -6.8900  0.00  0.00     0.000 C
ATOM     39  O5  GCU B   3       0.905  26.530  -7.0670  0.00  0.00     0.000 O
ATOM     40   O  GCU B   3       1.895  23.022  -6.6400  0.00  0.00     0.000 O
ATOM     42  HD  GCU B   3       2.417  22.421  -6.2980  0.00  0.00     0.000 HD
ATOM     42   O  GCU B   3       4.269  24.183  -7.8130  0.00  0.00     0.000 O
ATOM     44  HD  GCU B   3       4.792  23.583  -7.4710  0.00  0.00     0.000 HD
BRANCH 38 44
ATOM     44   C  GCU B   3       2.056  28.595  -7.3820  0.00  0.00     0.000 C
ATOM     45   O  GCU B   3       1.981  29.509  -6.5460  0.00  0.00     0.000 OA
ATOM     46   O  GCU B   3       2.043  28.826  -8.6060  0.00  0.00     0.000 OA
ENDBRANCH 38 44
BRANCH 34 47
ATOM     47  O3  NAG B   4      -0.346  24.744  -6.8540  0.00  0.00     0.000 O
BRANCH 47 50
ATOM     48  C1  NAG B   4      -2.510  24.474  -3.8550  0.00  0.00     0.000 C
ATOM     49  C2  NAG B   4      -1.406  25.016  -4.7550  0.00  0.00     0.000 C
ATOM     50  C3  NAG B   4      -1.604  24.590  -6.2010  0.00  0.00     0.000 C
ATOM     51  C4  NAG B   4      -2.086  23.143  -6.3570  0.00  0.00     0.000 C
ATOM     52  C5  NAG B   4      -3.415  22.925  -5.6530  0.00  0.00     0.000 C
ATOM     53  O5  NAG B   4      -3.506  23.558  -4.3570  0.00  0.00     0.000 O
BRANCH 49 56
ATOM     54   N  NAG B   4      -1.419  26.465  -4.4890  0.00  0.00     0.000 N
ATOM     56  HD  NAG B   4      -1.008  26.864  -3.8380  0.00  0.00     0.000 HD
ATOM     56   C  NAG B   4      -1.996  28.811  -4.7270  0.00  0.00     0.000 C
ATOM     57   O  NAG B   4      -3.091  27.096  -5.8930  0.00  0.00     0.000 OA
ATOM     58   C  NAG B   4      -2.220  27.373  -5.0810  0.00  0.00     0.000 C
ENDBRANCH 49 56
ATOM     59   O  NAG B   4      -5.054  21.132  -5.2170  0.00  0.00     0.000 O
ATOM     61  HD  NAG B   4      -4.358  21.578  -4.9600  0.00  0.00     0.000 HD
ATOM     61   O  NAG B   4      -5.054  21.132  -5.2170  0.00  0.00     0.000 O
ATOM     63  HD  NAG B   4      -4.358  21.578  -4.9600  0.00  0.00     0.000 HD
ENDBRANCH 47 50
ENDBRANCH 34 47
ENDBRANCH 33 37
ENDBRANCH 17 33
ENDBRANCH 16 19
ENDBRANCH 1 16
TORSDOF 10
ENDMDL
MODEL 63
REMARK VINA RESULT:      -6.9      2.526     11.559
ROOT
ATOM      1  C1  GCU B   1       1.299  28.247  -3.9320  0.00  0.00     0.000 C
ATOM      2  C2  GCU B   1       0.605  27.477  -2.8190  0.00  0.00     0.000 C
ATOM      3  C3  GCU B   1      -0.904  27.515  -3.0080  0.00  0.00     0.000 C
ATOM      4  C4  GCU B   1      -1.374  28.949  -3.1940  0.00  0.00     0.000 C
ATOM      5  C5  GCU B   1      -0.573  29.652  -4.2920  0.00  0.00     0.000 C
ATOM      6  O5  GCU B   1       0.821  29.601  -3.9610  0.00  0.00     0.000 O
ATOM      7   O  GCU B   1       1.085  26.136  -2.8570  0.00  0.00     0.000 O
ATOM      9  HD  GCU B   1       1.413  25.693  -2.1900  0.00  0.00     0.000 HD
ATOM      9   O  GCU B   1      -1.567  26.931  -1.8830  0.00  0.00     0.000 O
ATOM     11  HD  GCU B   1      -1.238  26.487  -1.2160  0.00  0.00     0.000 HD
ATOM     11   O  GCU B   1      -2.760  28.939  -3.5380  0.00  0.00     0.000 O
ATOM     13  HD  GCU B   1      -2.431  28.496  -2.8710  0.00  0.00     0.000 HD
ENDROOT
BRANCH 5 13
ATOM     13   C  GCU B   1      -1.071  31.067  -4.4640  0.00  0.00     0.000 C
ATOM     14   O  GCU B   1      -2.284  31.330  -4.3330  0.00  0.00     0.000 OA
ATOM     15   O  GCU B   1      -0.223  31.947  -4.7100  0.00  0.00     0.000 OA
ENDBRANCH 5 13
BRANCH 1 16
ATOM     16  O3  NAG B   2       2.496  28.836  -3.8900  0.00  0.00     0.000 O
BRANCH 16 19
ATOM     17  C1  NAG B   2       4.799  28.374  -6.8410  0.00  0.00     0.000 C
ATOM     18  C2  NAG B   2       3.647  28.059  -5.8960  0.00  0.00     0.000 C
ATOM     19  C3  NAG B   2       3.455  29.197  -4.8960  0.00  0.00     0.000 C
ATOM     20  C4  NAG B   2       4.776  29.522  -4.1990  0.00  0.00     0.000 C
ATOM     21  C5  NAG B   2       5.847  29.823  -5.2380  0.00  0.00     0.000 C
ATOM     22  O5  NAG B   2       5.992  28.681  -6.1010  0.00  0.00     0.000 O
ATOM     23   O  NAG B   2       4.565  30.642  -3.3320  0.00  0.00     0.000 O
ATOM     25  HD  NAG B   2       4.727  29.877  -2.9580  0.00  0.00     0.000 HD
ATOM     25   C  NAG B   2       7.195  30.173  -4.6120  0.00  0.00     0.000 C
ATOM     26   O  NAG B   2       7.840  29.015  -4.0600  0.00  0.00     0.000 O
ATOM     28  HD  NAG B   2       8.001  28.250  -3.6860  0.00  0.00     0.000 HD
BRANCH 18 30
ATOM     28   N  NAG B   2       2.629  27.707  -6.8690  0.00  0.00     0.000 N
ATOM     30  HD  NAG B   2       2.544  27.094  -6.2630  0.00  0.00     0.000 HD
ATOM     30   C  NAG B   2       1.892  26.592  -6.8070  0.00  0.00     0.000 C
ATOM     31   C  NAG B   2       0.907  26.345  -7.9150  0.00  0.00     0.000 C
ATOM     32   O  NAG B   2       2.006  25.798  -5.8940  0.00  0.00     0.000 OA
ENDBRANCH 18 30
BRANCH 17 33
ATOM     33  O4  GCU B   3       4.952  27.252  -7.7320  0.00  0.00     0.000 O
BRANCH 33 37
ATOM     34  C1  GCU B   3       6.871  26.938 -11.4140  0.00  0.00     0.000 C
ATOM     35  C2  GCU B   3       7.727  26.808 -10.1540  0.00  0.00     0.000 C
ATOM     36  C3  GCU B   3       6.837  26.522  -8.9630  0.00  0.00     0.000 C
ATOM     37  C4  GCU B   3       5.764  27.595  -8.8570  0.00  0.00     0.000 C
ATOM     38  C5  GCU B   3       4.959  27.650 -10.1570  0.00  0.00     0.000 C
ATOM     39  O5  GCU B   3       5.857  27.931 -11.2360  0.00  0.00     0.000 O
ATOM     40   O  GCU B   3       8.664  25.745 -10.3380  0.00  0.00     0.000 O
ATOM     42  HD  GCU B   3       8.972  25.030  -9.9580  0.00  0.00     0.000 HD
ATOM     42   O  GCU B   3       7.603  26.465  -7.7460  0.00  0.00     0.000 O
ATOM     44  HD  GCU B   3       7.911  25.750  -7.3660  0.00  0.00     0.000 HD
BRANCH 38 44
ATOM     44   C  GCU B   3       3.889  28.712 -10.1350  0.00  0.00     0.000 C
ATOM     45   O  GCU B   3       4.221  29.893 -10.3200  0.00  0.00     0.000 OA
ATOM     46   O  GCU B   3       2.702  28.389  -9.9380  0.00  0.00     0.000 OA
ENDBRANCH 38 44
BRANCH 34 47
ATOM     47  O3  NAG B   4       7.630  27.390 -12.4020  0.00  0.00     0.000 O
BRANCH 47 50
ATOM     48  C1  NAG B   4       9.377  29.688 -14.7300  0.00  0.00     0.000 C
ATOM     49  C2  NAG B   4       8.894  28.362 -14.1510  0.00  0.00     0.000 C
ATOM     50  C3  NAG B   4       7.715  28.561 -13.2120  0.00  0.00     0.000 C
ATOM     51  C4  NAG B   4       7.843  29.795 -12.3120  0.00  0.00     0.000 C
ATOM     52  C5  NAG B   4       7.962  31.067 -13.1350  0.00  0.00     0.000 C
ATOM     53  O5  NAG B   4       8.828  30.946 -14.2860  0.00  0.00     0.000 O
BRANCH 49 56
ATOM     54   N  NAG B   4       8.233  27.953 -15.4020  0.00  0.00     0.000 N
ATOM     56  HD  NAG B   4       7.761  28.466 -15.9160  0.00  0.00     0.000 HD
ATOM     56   C  NAG B   4       7.466  26.509 -17.1960  0.00  0.00     0.000 C
ATOM     57   O  NAG B   4       8.447  25.697 -15.2270  0.00  0.00     0.000 OA
ATOM     58   C  NAG B   4       8.088  26.688 -15.8450  0.00  0.00     0.000 C
ENDBRANCH 49 56
ATOM     59   O  NAG B   4       8.226  33.502 -12.8280  0.00  0.00     0.000 O
ATOM     61  HD  NAG B   4       8.592  32.727 -12.9510  0.00  0.00     0.000 HD
ATOM     61   O  NAG B   4       8.226  33.502 -12.8280  0.00  0.00     0.000 O
ATOM     63  HD  NAG B   4       8.592  32.727 -12.9510  0.00  0.00     0.000 HD
ENDBRANCH 47 50
ENDBRANCH 34 47
ENDBRANCH 33 37
ENDBRANCH 17 33
ENDBRANCH 16 19
ENDBRANCH 1 16
TORSDOF 10
ENDMDL
MODEL 64
REMARK VINA RESULT:      -6.9      2.895      5.663
ROOT
ATOM      1  C1  GCU B   1       9.080  31.960 -10.4880  0.00  0.00     0.000 C
ATOM      2  C2  GCU B   1      10.243  31.884 -11.4650  0.00  0.00     0.000 C
ATOM      3  C3  GCU B   1      11.423  32.696 -10.9520  0.00  0.00     0.000 C
ATOM      4  C4  GCU B   1      10.973  34.102 -10.5870  0.00  0.00     0.000 C
ATOM      5  C5  GCU B   1       9.763  34.068  -9.6520  0.00  0.00     0.000 C
ATOM      6  O5  GCU B   1       8.705  33.331 -10.2790  0.00  0.00     0.000 O
ATOM      7   O  GCU B   1      10.599  30.512 -11.6080  0.00  0.00     0.000 O
ATOM      9  HD  GCU B   1      10.680  30.081 -12.3540  0.00  0.00     0.000 HD
ATOM      9   O  GCU B   1      12.457  32.759 -11.9370  0.00  0.00     0.000 O
ATOM     11  HD  GCU B   1      12.538  32.327 -12.6830  0.00  0.00     0.000 HD
ATOM     11   O  GCU B   1      12.056  34.783  -9.9520  0.00  0.00     0.000 O
ATOM     13  HD  GCU B   1      12.137  34.351 -10.6980  0.00  0.00     0.000 HD
ENDROOT
BRANCH 5 13
ATOM     13   C  GCU B   1       9.349  35.475  -9.2960  0.00  0.00     0.000 C
ATOM     14   O  GCU B   1       8.499  36.076  -9.9850  0.00  0.00     0.000 OA
ATOM     15   O  GCU B   1       9.865  35.987  -8.2840  0.00  0.00     0.000 OA
ENDBRANCH 5 13
BRANCH 1 16
ATOM     16  O3  NAG B   2       7.781  31.809 -10.7560  0.00  0.00     0.000 O
BRANCH 16 19
ATOM     17  C1  NAG B   2       4.936  30.257  -8.8260  0.00  0.00     0.000 C
ATOM     18  C2  NAG B   2       6.286  30.322  -9.5280  0.00  0.00     0.000 C
ATOM     19  C3  NAG B   2       6.603  31.759  -9.9360  0.00  0.00     0.000 C
ATOM     20  C4  NAG B   2       5.444  32.354 -10.7340  0.00  0.00     0.000 C
ATOM     21  C5  NAG B   2       4.154  32.238  -9.9340  0.00  0.00     0.000 C
ATOM     22  O5  NAG B   2       3.912  30.851  -9.6400  0.00  0.00     0.000 O
ATOM     23   O  NAG B   2       5.751  33.722 -11.0260  0.00  0.00     0.000 O
ATOM     25  HD  NAG B   2       5.733  33.170 -11.6940  0.00  0.00     0.000 HD
ATOM     25   C  NAG B   2       2.950  32.829 -10.6660  0.00  0.00     0.000 C
ATOM     26   O  NAG B   2       2.529  31.994 -11.7550  0.00  0.00     0.000 O
ATOM     28  HD  NAG B   2       2.511  31.442 -12.4220  0.00  0.00     0.000 HD
BRANCH 18 30
ATOM     28   N  NAG B   2       7.212  29.695  -8.6050  0.00  0.00     0.000 N
ATOM     30  HD  NAG B   2       7.320  29.238  -9.3320  0.00  0.00     0.000 HD
ATOM     30   C  NAG B   2       7.909  28.586  -8.8840  0.00  0.00     0.000 C
ATOM     31   C  NAG B   2       8.795  28.030  -7.8050  0.00  0.00     0.000 C
ATOM     32   O  NAG B   2       7.833  28.037  -9.9650  0.00  0.00     0.000 OA
ENDBRANCH 18 30
BRANCH 17 33
ATOM     33  O4  GCU B   3       4.680  28.877  -8.5000  0.00  0.00     0.000 O
BRANCH 33 37
ATOM     34  C1  GCU B   3       1.985  27.161  -5.8310  0.00  0.00     0.000 C
ATOM     35  C2  GCU B   3       1.460  27.563  -7.2090  0.00  0.00     0.000 C
ATOM     36  C3  GCU B   3       2.623  27.756  -8.1590  0.00  0.00     0.000 C
ATOM     37  C4  GCU B   3       3.603  28.760  -7.5680  0.00  0.00     0.000 C
ATOM     38  C5  GCU B   3       4.074  28.274  -6.1960  0.00  0.00     0.000 C
ATOM     39  O5  GCU B   3       2.930  28.120  -5.3500  0.00  0.00     0.000 O
ATOM     40   O  GCU B   3       0.593  26.535  -7.6930  0.00  0.00     0.000 O
ATOM     42  HD  GCU B   3       0.440  26.038  -8.3850  0.00  0.00     0.000 HD
ATOM     42   O  GCU B   3       2.170  28.206  -9.4480  0.00  0.00     0.000 O
ATOM     44  HD  GCU B   3       2.017  27.709 -10.1410  0.00  0.00     0.000 HD
BRANCH 38 44
ATOM     44   C  GCU B   3       5.032  29.233  -5.5360  0.00  0.00     0.000 C
ATOM     45   O  GCU B   3       4.570  30.218  -4.9400  0.00  0.00     0.000 OA
ATOM     46   O  GCU B   3       6.259  29.022  -5.5970  0.00  0.00     0.000 OA
ENDBRANCH 38 44
BRANCH 34 47
ATOM     47  O3  NAG B   4       0.982  27.197  -4.9650  0.00  0.00     0.000 O
BRANCH 47 50
ATOM     48  C1  NAG B   4      -2.267  28.968  -4.7220  0.00  0.00     0.000 C
ATOM     49  C2  NAG B   4      -1.306  27.790  -4.8380  0.00  0.00     0.000 C
ATOM     50  C3  NAG B   4       0.102  28.175  -4.4140  0.00  0.00     0.000 C
ATOM     51  C4  NAG B   4       0.530  29.569  -4.8880  0.00  0.00     0.000 C
ATOM     52  C5  NAG B   4      -0.397  30.644  -4.3450  0.00  0.00     0.000 C
ATOM     53  O5  NAG B   4      -1.797  30.290  -4.3840  0.00  0.00     0.000 O
BRANCH 49 56
ATOM     54   N  NAG B   4      -1.737  27.112  -3.6020  0.00  0.00     0.000 N
ATOM     56  HD  NAG B   4      -1.722  27.454  -2.8070  0.00  0.00     0.000 HD
ATOM     56   C  NAG B   4      -2.542  25.345  -2.1460  0.00  0.00     0.000 C
ATOM     57   O  NAG B   4      -1.923  24.984  -4.3800  0.00  0.00     0.000 OA
ATOM     58   C  NAG B   4      -2.030  25.803  -3.4780  0.00  0.00     0.000 C
ENDBRANCH 49 56
ATOM     59   O  NAG B   4      -0.714  33.091  -4.4320  0.00  0.00     0.000 O
ATOM     61  HD  NAG B   4      -0.901  32.308  -4.7510  0.00  0.00     0.000 HD
ATOM     61   O  NAG B   4      -0.714  33.091  -4.4320  0.00  0.00     0.000 O
ATOM     63  HD  NAG B   4      -0.901  32.308  -4.7510  0.00  0.00     0.000 HD
ENDBRANCH 47 50
ENDBRANCH 34 47
ENDBRANCH 33 37
ENDBRANCH 17 33
ENDBRANCH 16 19
ENDBRANCH 1 16
TORSDOF 10
ENDMDL
MODEL 65
REMARK VINA RESULT:      -6.8      2.734     12.179
ROOT
ATOM      1  C1  GCU B   1       4.575  30.139  -7.1370  0.00  0.00     0.000 C
ATOM      2  C2  GCU B   1       3.105  29.791  -6.9620  0.00  0.00     0.000 C
ATOM      3  C3  GCU B   1       2.603  30.267  -5.6070  0.00  0.00     0.000 C
ATOM      4  C4  GCU B   1       3.523  29.771  -4.5020  0.00  0.00     0.000 C
ATOM      5  C5  GCU B   1       4.982  30.118  -4.8040  0.00  0.00     0.000 C
ATOM      6  O5  GCU B   1       5.345  29.557  -6.0730  0.00  0.00     0.000 O
ATOM      7   O  GCU B   1       2.383  30.419  -8.0170  0.00  0.00     0.000 O
ATOM      9  HD  GCU B   1       1.828  30.032  -8.5570  0.00  0.00     0.000 HD
ATOM      9   O  GCU B   1       1.271  29.805  -5.3720  0.00  0.00     0.000 O
ATOM     11  HD  GCU B   1       0.716  29.418  -5.9130  0.00  0.00     0.000 HD
ATOM     11   O  GCU B   1       3.128  30.373  -3.2690  0.00  0.00     0.000 O
ATOM     13  HD  GCU B   1       2.573  29.985  -3.8090  0.00  0.00     0.000 HD
ENDROOT
BRANCH 5 13
ATOM     13   C  GCU B   1       5.869  29.626  -3.6850  0.00  0.00     0.000 C
ATOM     14   O  GCU B   1       6.048  30.326  -2.6680  0.00  0.00     0.000 OA
ATOM     15   O  GCU B   1       6.379  28.496  -3.8120  0.00  0.00     0.000 OA
ENDBRANCH 5 13
BRANCH 1 16
ATOM     16  O3  NAG B   2       5.470  29.522  -7.9110  0.00  0.00     0.000 O
BRANCH 16 19
ATOM     17  C1  NAG B   2       7.485  30.735 -10.8600  0.00  0.00     0.000 C
ATOM     18  C2  NAG B   2       6.237  30.444 -10.0360  0.00  0.00     0.000 C
ATOM     19  C3  NAG B   2       6.625  29.972  -8.6360  0.00  0.00     0.000 C
ATOM     20  C4  NAG B   2       7.615  28.810  -8.7220  0.00  0.00     0.000 C
ATOM     21  C5  NAG B   2       8.817  29.218  -9.5620  0.00  0.00     0.000 C
ATOM     22  O5  NAG B   2       8.362  29.597 -10.8720  0.00  0.00     0.000 O
ATOM     23   O  NAG B   2       8.009  28.455  -7.3910  0.00  0.00     0.000 O
ATOM     25  HD  NAG B   2       7.527  27.882  -7.8270  0.00  0.00     0.000 HD
ATOM     25   C  NAG B   2       9.860  28.108  -9.6780  0.00  0.00     0.000 C
ATOM     26   O  NAG B   2       9.418  27.054 -10.5460  0.00  0.00     0.000 O
ATOM     28  HD  NAG B   2       8.936  26.481 -10.9820  0.00  0.00     0.000 HD
BRANCH 18 30
ATOM     28   N  NAG B   2       5.543  31.664 -10.4000  0.00  0.00     0.000 N
ATOM     30  HD  NAG B   2       4.900  31.091 -10.3100  0.00  0.00     0.000 HD
ATOM     30   C  NAG B   2       4.229  31.729 -10.6490  0.00  0.00     0.000 C
ATOM     31   C  NAG B   2       3.663  33.060 -11.0590  0.00  0.00     0.000 C
ATOM     32   O  NAG B   2       3.510  30.755 -10.5540  0.00  0.00     0.000 OA
ENDBRANCH 18 30
BRANCH 17 33
ATOM     33  O4  GCU B   3       7.054  31.139 -12.1760  0.00  0.00     0.000 O
BRANCH 33 37
ATOM     34  C1  GCU B   3       9.129  33.024 -15.2540  0.00  0.00     0.000 C
ATOM     35  C2  GCU B   3       9.222  31.500 -15.1640  0.00  0.00     0.000 C
ATOM     36  C3  GCU B   3       8.102  30.974 -14.2910  0.00  0.00     0.000 C
ATOM     37  C4  GCU B   3       8.144  31.664 -12.9350  0.00  0.00     0.000 C
ATOM     38  C5  GCU B   3       8.044  33.179 -13.1240  0.00  0.00     0.000 C
ATOM     39  O5  GCU B   3       9.132  33.608 -13.9480  0.00  0.00     0.000 O
ATOM     40   O  GCU B   3       9.122  30.952 -16.4800  0.00  0.00     0.000 O
ATOM     42  HD  GCU B   3       8.702  30.351 -16.9410  0.00  0.00     0.000 HD
ATOM     42   O  GCU B   3       8.201  29.548 -14.1250  0.00  0.00     0.000 O
ATOM     44  HD  GCU B   3       7.781  28.948 -14.5860  0.00  0.00     0.000 HD
BRANCH 38 44
ATOM     44   C  GCU B   3       8.105  33.933 -11.8200  0.00  0.00     0.000 C
ATOM     45   O  GCU B   3       9.211  34.111 -11.2880  0.00  0.00     0.000 OA
ATOM     46   O  GCU B   3       7.055  34.364 -11.3050  0.00  0.00     0.000 OA
ENDBRANCH 38 44
BRANCH 34 47
ATOM     47  O3  NAG B   4      10.224  33.484 -15.8430  0.00  0.00     0.000 O
BRANCH 47 50
ATOM     48  C1  NAG B   4      12.123  35.597 -18.2270  0.00  0.00     0.000 C
ATOM     49  C2  NAG B   4      11.177  34.497 -17.7580  0.00  0.00     0.000 C
ATOM     50  C3  NAG B   4      10.709  34.733 -16.3320  0.00  0.00     0.000 C
ATOM     51  C4  NAG B   4      11.809  35.253 -15.3990  0.00  0.00     0.000 C
ATOM     52  C5  NAG B   4      12.374  36.573 -15.8960  0.00  0.00     0.000 C
ATOM     53  O5  NAG B   4      12.584  36.624 -17.3240  0.00  0.00     0.000 O
BRANCH 49 56
ATOM     54   N  NAG B   4       9.946  34.966 -18.4180  0.00  0.00     0.000 N
ATOM     56  HD  NAG B   4       9.489  35.667 -18.1960  0.00  0.00     0.000 HD
ATOM     56   C  NAG B   4       8.059  34.993 -19.9450  0.00  0.00     0.000 C
ATOM     57   O  NAG B   4       9.480  33.144 -19.6960  0.00  0.00     0.000 OA
ATOM     58   C  NAG B   4       9.227  34.283 -19.3320  0.00  0.00     0.000 C
ENDBRANCH 49 56
ATOM     59   O  NAG B   4      14.084  38.248 -15.2900  0.00  0.00     0.000 O
ATOM     61  HD  NAG B   4      13.868  37.536 -15.7330  0.00  0.00     0.000 HD
ATOM     61   O  NAG B   4      14.084  38.248 -15.2900  0.00  0.00     0.000 O
ATOM     63  HD  NAG B   4      13.868  37.536 -15.7330  0.00  0.00     0.000 HD
ENDBRANCH 47 50
ENDBRANCH 34 47
ENDBRANCH 33 37
ENDBRANCH 17 33
ENDBRANCH 16 19
ENDBRANCH 1 16
TORSDOF 10
ENDMDL
MODEL 66
REMARK VINA RESULT:      -6.8      6.897     13.095
ROOT
ATOM      1  C1  GCU B   1      11.171  34.676  -6.2520  0.00  0.00     0.000 C
ATOM      2  C2  GCU B   1      11.458  35.598  -5.0760  0.00  0.00     0.000 C
ATOM      3  C3  GCU B   1      12.191  34.845  -3.9770  0.00  0.00     0.000 C
ATOM      4  C4  GCU B   1      11.447  33.565  -3.6300  0.00  0.00     0.000 C
ATOM      5  C5  GCU B   1      11.155  32.741  -4.8860  0.00  0.00     0.000 C
ATOM      6  O5  GCU B   1      10.407  33.543  -5.8100  0.00  0.00     0.000 O
ATOM      7   O  GCU B   1      12.246  36.681  -5.5580  0.00  0.00     0.000 O
ATOM      9  HD  GCU B   1      12.077  37.524  -5.4490  0.00  0.00     0.000 HD
ATOM      9   O  GCU B   1      12.321  35.660  -2.8090  0.00  0.00     0.000 O
ATOM     11  HD  GCU B   1      12.152  36.503  -2.7000  0.00  0.00     0.000 HD
ATOM     11   O  GCU B   1      12.242  32.799  -2.7250  0.00  0.00     0.000 O
ATOM     13  HD  GCU B   1      12.074  33.642  -2.6160  0.00  0.00     0.000 HD
ENDROOT
BRANCH 5 13
ATOM     13   C  GCU B   1      10.429  31.472  -4.5110  0.00  0.00     0.000 C
ATOM     14   O  GCU B   1      11.058  30.402  -4.3750  0.00  0.00     0.000 OA
ATOM     15   O  GCU B   1       9.200  31.548  -4.3190  0.00  0.00     0.000 OA
ENDBRANCH 5 13
BRANCH 1 16
ATOM     16  O3  NAG B   2      10.193  34.787  -7.1530  0.00  0.00     0.000 O
BRANCH 16 19
ATOM     17  C1  NAG B   2      10.148  35.559 -10.8450  0.00  0.00     0.000 C
ATOM     18  C2  NAG B   2      10.420  35.793  -9.3650  0.00  0.00     0.000 C
ATOM     19  C3  NAG B   2      10.116  34.528  -8.5640  0.00  0.00     0.000 C
ATOM     20  C4  NAG B   2       8.708  34.025  -8.8780  0.00  0.00     0.000 C
ATOM     21  C5  NAG B   2       8.555  33.824 -10.3790  0.00  0.00     0.000 C
ATOM     22  O5  NAG B   2       8.811  35.074 -11.0440  0.00  0.00     0.000 O
ATOM     23   O  NAG B   2       8.497  32.800  -8.1670  0.00  0.00     0.000 O
ATOM     25  HD  NAG B   2       8.035  33.487  -7.9150  0.00  0.00     0.000 HD
ATOM     25   C  NAG B   2       7.173  33.304 -10.7680  0.00  0.00     0.000 C
ATOM     26   O  NAG B   2       6.170  34.325 -10.6490  0.00  0.00     0.000 O
ATOM     28  HD  NAG B   2       5.707  35.012 -10.3960  0.00  0.00     0.000 HD
BRANCH 18 30
ATOM     28   N  NAG B   2      10.924  37.152  -9.3140  0.00  0.00     0.000 N
ATOM     30  HD  NAG B   2      11.608  36.679  -9.0730  0.00  0.00     0.000 HD
ATOM     30   C  NAG B   2      12.136  37.482  -8.8490  0.00  0.00     0.000 C
ATOM     31   C  NAG B   2      12.497  38.940  -8.8190  0.00  0.00     0.000 C
ATOM     32   O  NAG B   2      12.922  36.642  -8.4590  0.00  0.00     0.000 OA
ENDBRANCH 18 30
BRANCH 17 33
ATOM     33  O4  GCU B   3      10.418  36.794 -11.5380  0.00  0.00     0.000 O
BRANCH 33 37
ATOM     34  C1  GCU B   3      11.051  37.538 -15.5850  0.00  0.00     0.000 C
ATOM     35  C2  GCU B   3       9.612  37.592 -15.0700  0.00  0.00     0.000 C
ATOM     36  C3  GCU B   3       9.618  37.724 -13.5620  0.00  0.00     0.000 C
ATOM     37  C4  GCU B   3      10.437  36.595 -12.9530  0.00  0.00     0.000 C
ATOM     38  C5  GCU B   3      11.856  36.623 -13.5230  0.00  0.00     0.000 C
ATOM     39  O5  GCU B   3      11.778  36.485 -14.9460  0.00  0.00     0.000 O
ATOM     40   O  GCU B   3       8.950  38.711 -15.6620  0.00  0.00     0.000 O
ATOM     42  HD  GCU B   3       8.465  39.401 -15.4670  0.00  0.00     0.000 HD
ATOM     42   O  GCU B   3       8.279  37.704 -13.0360  0.00  0.00     0.000 O
ATOM     44  HD  GCU B   3       7.794  38.395 -12.8400  0.00  0.00     0.000 HD
BRANCH 38 44
ATOM     44   C  GCU B   3      12.722  35.513 -12.9830  0.00  0.00     0.000 C
ATOM     45   O  GCU B   3      12.563  34.365 -13.4260  0.00  0.00     0.000 OA
ATOM     46   O  GCU B   3      13.577  35.765 -12.1120  0.00  0.00     0.000 OA
ENDBRANCH 38 44
BRANCH 34 47
ATOM     47  O3  NAG B   4      11.033  37.217 -16.8710  0.00  0.00     0.000 O
BRANCH 47 50
ATOM     48  C1  NAG B   4      10.293  34.653 -19.4470  0.00  0.00     0.000 C
ATOM     49  C2  NAG B   4      10.876  35.242 -18.1670  0.00  0.00     0.000 C
ATOM     50  C3  NAG B   4      10.167  36.527 -17.7710  0.00  0.00     0.000 C
ATOM     51  C4  NAG B   4       9.834  37.439 -18.9570  0.00  0.00     0.000 C
ATOM     52  C5  NAG B   4       8.931  36.735 -19.9570  0.00  0.00     0.000 C
ATOM     53  O5  NAG B   4       9.292  35.359 -20.2100  0.00  0.00     0.000 O
BRANCH 49 56
ATOM     54   N  NAG B   4      10.217  34.424 -17.1330  0.00  0.00     0.000 N
ATOM     56  HD  NAG B   4       9.431  34.568 -16.7990  0.00  0.00     0.000 HD
ATOM     56   C  NAG B   4       9.913  32.681 -15.4720  0.00  0.00     0.000 C
ATOM     57   O  NAG B   4      11.982  33.154 -16.4700  0.00  0.00     0.000 OA
ATOM     58   C  NAG B   4      10.798  33.451 -16.4030  0.00  0.00     0.000 C
ENDBRANCH 49 56
ATOM     59   O  NAG B   4       7.821  37.148 -22.1230  0.00  0.00     0.000 O
ATOM     61  HD  NAG B   4       8.505  36.846 -21.6870  0.00  0.00     0.000 HD
ATOM     61   O  NAG B   4       7.821  37.148 -22.1230  0.00  0.00     0.000 O
ATOM     63  HD  NAG B   4       8.505  36.846 -21.6870  0.00  0.00     0.000 HD
ENDBRANCH 47 50
ENDBRANCH 34 47
ENDBRANCH 33 37
ENDBRANCH 17 33
ENDBRANCH 16 19
ENDBRANCH 1 16
TORSDOF 10
ENDMDL
MODEL 67
REMARK VINA RESULT:      -6.8      2.975     11.618
ROOT
ATOM      1  C1  GCU B   1       0.713  27.674  -5.8260  0.00  0.00     0.000 C
ATOM      2  C2  GCU B   1       0.121  26.285  -6.0070  0.00  0.00     0.000 C
ATOM      3  C3  GCU B   1      -1.372  26.376  -6.2820  0.00  0.00     0.000 C
ATOM      4  C4  GCU B   1      -2.049  27.236  -5.2270  0.00  0.00     0.000 C
ATOM      5  C5  GCU B   1      -1.342  28.585  -5.0800  0.00  0.00     0.000 C
ATOM      6  O5  GCU B   1       0.037  28.359  -4.7590  0.00  0.00     0.000 O
ATOM      7   O  GCU B   1       0.798  25.665  -7.0960  0.00  0.00     0.000 O
ATOM      9  HD  GCU B   1       1.176  24.886  -7.0850  0.00  0.00     0.000 HD
ATOM      9   O  GCU B   1      -1.962  25.073  -6.2950  0.00  0.00     0.000 O
ATOM     11  HD  GCU B   1      -1.583  24.294  -6.2850  0.00  0.00     0.000 HD
ATOM     11   O  GCU B   1      -3.411  27.444  -5.6050  0.00  0.00     0.000 O
ATOM     13  HD  GCU B   1      -3.033  26.665  -5.5940  0.00  0.00     0.000 HD
ENDROOT
BRANCH 5 13
ATOM     13   C  GCU B   1      -2.043  29.422  -4.0370  0.00  0.00     0.000 C
ATOM     14   O  GCU B   1      -2.340  28.931  -2.9280  0.00  0.00     0.000 OA
ATOM     15   O  GCU B   1      -2.281  30.612  -4.3220  0.00  0.00     0.000 OA
ENDBRANCH 5 13
BRANCH 1 16
ATOM     16  O3  NAG B   2       1.807  28.009  -5.1370  0.00  0.00     0.000 O
BRANCH 16 19
ATOM     17  C1  NAG B   2       5.090  29.544  -6.1810  0.00  0.00     0.000 C
ATOM     18  C2  NAG B   2       3.954  28.529  -6.1720  0.00  0.00     0.000 C
ATOM     19  C3  NAG B   2       2.803  29.030  -5.3010  0.00  0.00     0.000 C
ATOM     20  C4  NAG B   2       3.316  29.422  -3.9160  0.00  0.00     0.000 C
ATOM     21  C5  NAG B   2       4.440  30.438  -4.0500  0.00  0.00     0.000 C
ATOM     22  O5  NAG B   2       5.496  29.863  -4.8410  0.00  0.00     0.000 O
ATOM     23   O  NAG B   2       2.220  29.956  -3.1640  0.00  0.00     0.000 O
ATOM     25  HD  NAG B   2       2.543  29.195  -2.9060  0.00  0.00     0.000 HD
ATOM     25   C  NAG B   2       4.992  30.890  -2.7000  0.00  0.00     0.000 C
ATOM     26   O  NAG B   2       5.787  29.866  -2.0830  0.00  0.00     0.000 O
ATOM     28  HD  NAG B   2       6.110  29.105  -1.8240  0.00  0.00     0.000 HD
BRANCH 18 30
ATOM     28   N  NAG B   2       3.834  28.321  -7.6030  0.00  0.00     0.000 N
ATOM     30  HD  NAG B   2       3.759  27.521  -7.2800  0.00  0.00     0.000 HD
ATOM     30   C  NAG B   2       3.771  27.114  -8.1790  0.00  0.00     0.000 C
ATOM     31   C  NAG B   2       3.692  27.061  -9.6790  0.00  0.00     0.000 C
ATOM     32   O  NAG B   2       3.779  26.091  -7.5240  0.00  0.00     0.000 OA
ENDBRANCH 18 30
BRANCH 17 33
ATOM     33  O4  GCU B   3       6.155  28.999  -6.9870  0.00  0.00     0.000 O
BRANCH 33 37
ATOM     34  C1  GCU B   3       9.264  30.863  -9.0330  0.00  0.00     0.000 C
ATOM     35  C2  GCU B   3       9.386  30.744  -7.5140  0.00  0.00     0.000 C
ATOM     36  C3  GCU B   3       8.416  29.696  -7.0090  0.00  0.00     0.000 C
ATOM     37  C4  GCU B   3       7.008  30.034  -7.4780  0.00  0.00     0.000 C
ATOM     38  C5  GCU B   3       6.984  30.130  -9.0040  0.00  0.00     0.000 C
ATOM     39  O5  GCU B   3       7.913  31.140  -9.4120  0.00  0.00     0.000 O
ATOM     40   O  GCU B   3      10.727  30.376  -7.1840  0.00  0.00     0.000 O
ATOM     42  HD  GCU B   3      11.186  29.810  -6.7160  0.00  0.00     0.000 HD
ATOM     42   O  GCU B   3       8.452  29.608  -5.5730  0.00  0.00     0.000 O
ATOM     44  HD  GCU B   3       8.911  29.042  -5.1050  0.00  0.00     0.000 HD
BRANCH 38 44
ATOM     44   C  GCU B   3       5.621  30.488  -9.5430  0.00  0.00     0.000 C
ATOM     45   O  GCU B   3       5.110  31.564  -9.1960  0.00  0.00     0.000 OA
ATOM     46   O  GCU B   3       5.040  29.708 -10.3210  0.00  0.00     0.000 OA
ENDBRANCH 38 44
BRANCH 34 47
ATOM     47  O3  NAG B   4       9.960  31.917  -9.4360  0.00  0.00     0.000 O
BRANCH 47 50
ATOM     48  C1  NAG B   4      11.017  32.049 -12.9890  0.00  0.00     0.000 C
ATOM     49  C2  NAG B   4      10.092  32.189 -11.7840  0.00  0.00     0.000 C
ATOM     50  C3  NAG B   4      10.876  32.236 -10.4820  0.00  0.00     0.000 C
ATOM     51  C4  NAG B   4      12.059  31.261 -10.4380  0.00  0.00     0.000 C
ATOM     52  C5  NAG B   4      13.051  31.547 -11.5530  0.00  0.00     0.000 C
ATOM     53  O5  NAG B   4      12.436  31.847 -12.8260  0.00  0.00     0.000 O
BRANCH 49 56
ATOM     54   N  NAG B   4       9.752  33.621 -11.7190  0.00  0.00     0.000 N
ATOM     56  HD  NAG B   4      10.118  34.205 -11.1950  0.00  0.00     0.000 HD
ATOM     56   C  NAG B   4       8.596  35.702 -12.1930  0.00  0.00     0.000 C
ATOM     57   O  NAG B   4       7.839  33.614 -12.9470  0.00  0.00     0.000 OA
ATOM     58   C  NAG B   4       8.696  34.212 -12.3120  0.00  0.00     0.000 C
ENDBRANCH 49 56
ATOM     59   O  NAG B   4      15.185  30.694 -12.4540  0.00  0.00     0.000 O
ATOM     61  HD  NAG B   4      14.319  30.690 -12.4700  0.00  0.00     0.000 HD
ATOM     61   O  NAG B   4      15.185  30.694 -12.4540  0.00  0.00     0.000 O
ATOM     63  HD  NAG B   4      14.319  30.690 -12.4700  0.00  0.00     0.000 HD
ENDBRANCH 47 50
ENDBRANCH 34 47
ENDBRANCH 33 37
ENDBRANCH 17 33
ENDBRANCH 16 19
ENDBRANCH 1 16
TORSDOF 10
ENDMDL
MODEL 68
REMARK VINA RESULT:      -6.8     12.461     14.914
ROOT
ATOM      1  C1  GCU B   1       6.346  20.774  -0.0300  0.00  0.00     0.000 C
ATOM      2  C2  GCU B   1       7.545  20.091  -0.6690  0.00  0.00     0.000 C
ATOM      3  C3  GCU B   1       7.755  18.711  -0.0660  0.00  0.00     0.000 C
ATOM      4  C4  GCU B   1       7.794  18.801   1.4510  0.00  0.00     0.000 C
ATOM      5  C5  GCU B   1       6.577  19.557   1.9890  0.00  0.00     0.000 C
ATOM      6  O5  GCU B   1       6.533  20.860   1.3920  0.00  0.00     0.000 O
ATOM      7   O  GCU B   1       7.295  19.998  -2.0680  0.00  0.00     0.000 O
ATOM      9  HD  GCU B   1       7.823  20.264  -2.7000  0.00  0.00     0.000 HD
ATOM      9   O  GCU B   1       8.970  18.130  -0.5470  0.00  0.00     0.000 O
ATOM     11  HD  GCU B   1       9.498  18.397  -1.1800  0.00  0.00     0.000 HD
ATOM     11   O  GCU B   1       7.818  17.479   1.9920  0.00  0.00     0.000 O
ATOM     13  HD  GCU B   1       8.347  17.745   1.3590  0.00  0.00     0.000 HD
ENDROOT
BRANCH 5 13
ATOM     13   C  GCU B   1       6.635  19.618   3.4960  0.00  0.00     0.000 C
ATOM     14   O  GCU B   1       6.787  18.575   4.1650  0.00  0.00     0.000 OA
ATOM     15   O  GCU B   1       6.553  20.742   4.0280  0.00  0.00     0.000 OA
ENDBRANCH 5 13
BRANCH 1 16
ATOM     16  O3  NAG B   2       6.119  22.085   0.0790  0.00  0.00     0.000 O
BRANCH 16 19
ATOM     17  C1  NAG B   2       2.834  23.794   0.7970  0.00  0.00     0.000 C
ATOM     18  C2  NAG B   2       3.792  22.817   0.1280  0.00  0.00     0.000 C
ATOM     19  C3  NAG B   2       5.158  22.863   0.8090  0.00  0.00     0.000 C
ATOM     20  C4  NAG B   2       5.668  24.302   0.8820  0.00  0.00     0.000 C
ATOM     21  C5  NAG B   2       4.634  25.181   1.5710  0.00  0.00     0.000 C
ATOM     22  O5  NAG B   2       3.401  25.114   0.8340  0.00  0.00     0.000 O
ATOM     23   O  NAG B   2       6.910  24.305   1.5950  0.00  0.00     0.000 O
ATOM     25  HD  NAG B   2       6.939  24.494   0.7500  0.00  0.00     0.000 HD
ATOM     25   C  NAG B   2       5.084  26.635   1.6940  0.00  0.00     0.000 C
ATOM     26   O  NAG B   2       5.041  27.313   0.4290  0.00  0.00     0.000 O
ATOM     28  HD  NAG B   2       5.070  27.502  -0.4160  0.00  0.00     0.000 HD
BRANCH 18 30
ATOM     28   N  NAG B   2       3.094  22.151  -0.9560  0.00  0.00     0.000 N
ATOM     30  HD  NAG B   2       3.118  21.547  -0.3360  0.00  0.00     0.000 HD
ATOM     30   C  NAG B   2       2.746  20.858  -0.9360  0.00  0.00     0.000 C
ATOM     31   C  NAG B   2       2.067  20.301  -2.1560  0.00  0.00     0.000 C
ATOM     32   O  NAG B   2       2.968  20.149   0.0250  0.00  0.00     0.000 OA
ENDBRANCH 18 30
BRANCH 17 33
ATOM     33  O4  GCU B   3       1.580  23.730   0.0880  0.00  0.00     0.000 O
BRANCH 33 37
ATOM     34  C1  GCU B   3      -2.316  24.445   1.3710  0.00  0.00     0.000 C
ATOM     35  C2  GCU B   3      -1.460  25.654   0.9910  0.00  0.00     0.000 C
ATOM     36  C3  GCU B   3      -0.275  25.198   0.1680  0.00  0.00     0.000 C
ATOM     37  C4  GCU B   3       0.495  24.128   0.9280  0.00  0.00     0.000 C
ATOM     38  C5  GCU B   3      -0.438  22.962   1.2610  0.00  0.00     0.000 C
ATOM     39  O5  GCU B   3      -1.528  23.459   2.0440  0.00  0.00     0.000 O
ATOM     40   O  GCU B   3      -2.260  26.571   0.2410  0.00  0.00     0.000 O
ATOM     42  HD  GCU B   3      -2.265  27.035  -0.4900  0.00  0.00     0.000 HD
ATOM     42   O  GCU B   3       0.593  26.302  -0.1470  0.00  0.00     0.000 O
ATOM     44  HD  GCU B   3       0.588  26.767  -0.8770  0.00  0.00     0.000 HD
BRANCH 38 44
ATOM     44   C  GCU B   3       0.251  21.869   2.0400  0.00  0.00     0.000 C
ATOM     45   O  GCU B   3       0.943  22.185   3.0200  0.00  0.00     0.000 OA
ATOM     46   O  GCU B   3       0.112  20.681   1.6930  0.00  0.00     0.000 OA
ENDBRANCH 38 44
BRANCH 34 47
ATOM     47  O3  NAG B   4      -3.226  24.827   2.2560  0.00  0.00     0.000 O
BRANCH 47 50
ATOM     48  C1  NAG B   4      -6.379  26.113   3.7250  0.00  0.00     0.000 C
ATOM     49  C2  NAG B   4      -4.946  26.148   3.2030  0.00  0.00     0.000 C
ATOM     50  C3  NAG B   4      -4.646  24.948   2.3190  0.00  0.00     0.000 C
ATOM     51  C4  NAG B   4      -5.247  23.636   2.8340  0.00  0.00     0.000 C
ATOM     52  C5  NAG B   4      -6.761  23.728   2.9410  0.00  0.00     0.000 C
ATOM     53  O5  NAG B   4      -7.238  24.979   3.4850  0.00  0.00     0.000 O
BRANCH 49 56
ATOM     54   N  NAG B   4      -5.199  27.161   2.1630  0.00  0.00     0.000 N
ATOM     56  HD  NAG B   4      -5.803  27.111   1.5450  0.00  0.00     0.000 HD
ATOM     56   C  NAG B   4      -4.915  29.179   0.8450  0.00  0.00     0.000 C
ATOM     57   O  NAG B   4      -3.347  28.451   2.4290  0.00  0.00     0.000 OA
ATOM     58   C  NAG B   4      -4.415  28.221   1.8820  0.00  0.00     0.000 C
ENDBRANCH 49 56
ATOM     59   O  NAG B   4      -8.697  22.357   3.6230  0.00  0.00     0.000 O
ATOM     61  HD  NAG B   4      -8.090  22.938   3.8320  0.00  0.00     0.000 HD
ATOM     61   O  NAG B   4      -8.697  22.357   3.6230  0.00  0.00     0.000 O
ATOM     63  HD  NAG B   4      -8.090  22.938   3.8320  0.00  0.00     0.000 HD
ENDBRANCH 47 50
ENDBRANCH 34 47
ENDBRANCH 33 37
ENDBRANCH 17 33
ENDBRANCH 16 19
ENDBRANCH 1 16
TORSDOF 10
ENDMDL
MODEL 69
REMARK VINA RESULT:      -6.7      4.046      6.275
ROOT
ATOM      1  C1  GCU B   1       6.906  31.570  -9.2170  0.00  0.00     0.000 C
ATOM      2  C2  GCU B   1       8.257  31.978  -9.7830  0.00  0.00     0.000 C
ATOM      3  C3  GCU B   1       8.215  33.414 -10.2810  0.00  0.00     0.000 C
ATOM      4  C4  GCU B   1       7.034  33.610 -11.2190  0.00  0.00     0.000 C
ATOM      5  C5  GCU B   1       5.736  33.114 -10.5800  0.00  0.00     0.000 C
ATOM      6  O5  GCU B   1       5.888  31.735 -10.2170  0.00  0.00     0.000 O
ATOM      7   O  GCU B   1       9.222  31.831  -8.7460  0.00  0.00     0.000 O
ATOM      9  HD  GCU B   1       9.966  31.391  -8.7980  0.00  0.00     0.000 HD
ATOM      9   O  GCU B   1       9.430  33.750 -10.9560  0.00  0.00     0.000 O
ATOM     11  HD  GCU B   1      10.174  33.309 -11.0080  0.00  0.00     0.000 HD
ATOM     11   O  GCU B   1       6.919  34.999 -11.5320  0.00  0.00     0.000 O
ATOM     13  HD  GCU B   1       7.663  34.558 -11.5850  0.00  0.00     0.000 HD
ENDROOT
BRANCH 5 13
ATOM     13   C  GCU B   1       4.580  33.334 -11.5270  0.00  0.00     0.000 C
ATOM     14   O  GCU B   1       3.415  33.427 -11.0900  0.00  0.00     0.000 OA
ATOM     15   O  GCU B   1       4.845  33.445 -12.7400  0.00  0.00     0.000 OA
ENDBRANCH 5 13
BRANCH 1 16
ATOM     16  O3  NAG B   2       6.399  30.339  -9.1290  0.00  0.00     0.000 O
BRANCH 16 19
ATOM     17  C1  NAG B   2       5.015  28.378  -6.2190  0.00  0.00     0.000 C
ATOM     18  C2  NAG B   2       6.040  29.177  -7.0130  0.00  0.00     0.000 C
ATOM     19  C3  NAG B   2       5.404  29.739  -8.2830  0.00  0.00     0.000 C
ATOM     20  C4  NAG B   2       4.718  28.625  -9.0730  0.00  0.00     0.000 C
ATOM     21  C5  NAG B   2       3.718  27.902  -8.1830  0.00  0.00     0.000 C
ATOM     22  O5  NAG B   2       4.412  27.366  -7.0420  0.00  0.00     0.000 O
ATOM     23   O  NAG B   2       4.073  29.210 -10.2100  0.00  0.00     0.000 O
ATOM     25  HD  NAG B   2       4.754  28.696 -10.3630  0.00  0.00     0.000 HD
ATOM     25   C  NAG B   2       2.980  26.782  -8.9120  0.00  0.00     0.000 C
ATOM     26   O  NAG B   2       3.829  25.647  -9.1390  0.00  0.00     0.000 O
ATOM     28  HD  NAG B   2       4.510  25.133  -9.2920  0.00  0.00     0.000 HD
BRANCH 18 30
ATOM     28   N  NAG B   2       6.564  29.843  -5.8360  0.00  0.00     0.000 N
ATOM     30  HD  NAG B   2       7.236  29.850  -6.3820  0.00  0.00     0.000 HD
ATOM     30   C  NAG B   2       7.845  30.207  -5.6930  0.00  0.00     0.000 C
ATOM     31   C  NAG B   2       8.246  30.848  -4.3940  0.00  0.00     0.000 C
ATOM     32   O  NAG B   2       8.663  30.030  -6.5730  0.00  0.00     0.000 OA
ENDBRANCH 18 30
BRANCH 17 33
ATOM     33  O4  GCU B   3       5.682  27.846  -5.0570  0.00  0.00     0.000 O
BRANCH 33 37
ATOM     34  C1  GCU B   3       4.115  26.551  -1.4240  0.00  0.00     0.000 C
ATOM     35  C2  GCU B   3       4.342  25.502  -2.5130  0.00  0.00     0.000 C
ATOM     36  C3  GCU B   3       5.284  26.056  -3.5610  0.00  0.00     0.000 C
ATOM     37  C4  GCU B   3       4.738  27.373  -4.0940  0.00  0.00     0.000 C
ATOM     38  C5  GCU B   3       4.546  28.356  -2.9380  0.00  0.00     0.000 C
ATOM     39  O5  GCU B   3       3.643  27.776  -1.9920  0.00  0.00     0.000 O
ATOM     40   O  GCU B   3       4.900  24.329  -1.9170  0.00  0.00     0.000 O
ATOM     42  HD  GCU B   3       5.548  23.761  -2.0000  0.00  0.00     0.000 HD
ATOM     42   O  GCU B   3       5.464  25.121  -4.6400  0.00  0.00     0.000 O
ATOM     44  HD  GCU B   3       6.112  24.553  -4.7240  0.00  0.00     0.000 HD
BRANCH 38 44
ATOM     44   C  GCU B   3       3.982  29.680  -3.3880  0.00  0.00     0.000 C
ATOM     45   O  GCU B   3       2.788  29.736  -3.7180  0.00  0.00     0.000 OA
ATOM     46   O  GCU B   3       4.716  30.687  -3.4180  0.00  0.00     0.000 OA
ENDBRANCH 38 44
BRANCH 34 47
ATOM     47  O3  NAG B   4       3.137  26.138  -0.6290  0.00  0.00     0.000 O
BRANCH 47 50
ATOM     48  C1  NAG B   4      -0.407  25.066  -0.4090  0.00  0.00     0.000 C
ATOM     49  C2  NAG B   4       0.788  25.921  -0.8200  0.00  0.00     0.000 C
ATOM     50  C3  NAG B   4       2.096  25.163  -0.6630  0.00  0.00     0.000 C
ATOM     51  C4  NAG B   4       2.163  24.302   0.6040  0.00  0.00     0.000 C
ATOM     52  C5  NAG B   4       1.054  23.264   0.6240  0.00  0.00     0.000 C
ATOM     53  O5  NAG B   4      -0.228  23.762   0.1820  0.00  0.00     0.000 O
BRANCH 49 56
ATOM     54   N  NAG B   4       0.782  25.808  -2.2890  0.00  0.00     0.000 N
ATOM     56  HD  NAG B   4       1.191  25.200  -2.7510  0.00  0.00     0.000 HD
ATOM     56   C  NAG B   4       0.322  26.367  -4.6050  0.00  0.00     0.000 C
ATOM     57   O  NAG B   4      -0.120  27.825  -2.8220  0.00  0.00     0.000 OA
ATOM     58   C  NAG B   4       0.317  26.732  -3.1530  0.00  0.00     0.000 C
ENDBRANCH 49 56
ATOM     59   O  NAG B   4       0.184  21.450   2.0550  0.00  0.00     0.000 O
ATOM     61  HD  NAG B   4       0.159  22.282   1.8160  0.00  0.00     0.000 HD
ATOM     61   O  NAG B   4       0.184  21.450   2.0550  0.00  0.00     0.000 O
ATOM     63  HD  NAG B   4       0.159  22.282   1.8160  0.00  0.00     0.000 HD
ENDBRANCH 47 50
ENDBRANCH 34 47
ENDBRANCH 33 37
ENDBRANCH 17 33
ENDBRANCH 16 19
ENDBRANCH 1 16
TORSDOF 10
ENDMDL
MODEL 70
REMARK VINA RESULT:      -6.7      3.210     11.628
ROOT
ATOM      1  C1  GCU B   1       3.869  29.463  -7.5000  0.00  0.00     0.000 C
ATOM      2  C2  GCU B   1       2.613  28.625  -7.3160  0.00  0.00     0.000 C
ATOM      3  C3  GCU B   1       1.803  29.134  -6.1330  0.00  0.00     0.000 C
ATOM      4  C4  GCU B   1       2.689  29.252  -4.9020  0.00  0.00     0.000 C
ATOM      5  C5  GCU B   1       3.952  30.059  -5.2090  0.00  0.00     0.000 C
ATOM      6  O5  GCU B   1       4.653  29.440  -6.2960  0.00  0.00     0.000 O
ATOM      7   O  GCU B   1       1.856  28.711  -8.5190  0.00  0.00     0.000 O
ATOM      9  HD  GCU B   1       1.552  28.044  -8.9800  0.00  0.00     0.000 HD
ATOM      9   O  GCU B   1       0.708  28.257  -5.8580  0.00  0.00     0.000 O
ATOM     11  HD  GCU B   1       0.404  27.590  -6.3190  0.00  0.00     0.000 HD
ATOM     11   O  GCU B   1       1.949  29.890  -3.8610  0.00  0.00     0.000 O
ATOM     13  HD  GCU B   1       1.645  29.223  -4.3210  0.00  0.00     0.000 HD
ENDROOT
BRANCH 5 13
ATOM     13   C  GCU B   1       4.804  30.172  -3.9680  0.00  0.00     0.000 C
ATOM     14   O  GCU B   1       4.390  30.802  -2.9730  0.00  0.00     0.000 OA
ATOM     15   O  GCU B   1       5.907  29.593  -3.9740  0.00  0.00     0.000 OA
ENDBRANCH 5 13
BRANCH 1 16
ATOM     16  O3  NAG B   2       5.018  29.091  -8.0690  0.00  0.00     0.000 O
BRANCH 16 19
ATOM     17  C1  NAG B   2       7.251  31.049 -10.3940  0.00  0.00     0.000 C
ATOM     18  C2  NAG B   2       5.953  30.456  -9.8630  0.00  0.00     0.000 C
ATOM     19  C3  NAG B   2       6.185  29.810  -8.4980  0.00  0.00     0.000 C
ATOM     20  C4  NAG B   2       7.351  28.826  -8.5660  0.00  0.00     0.000 C
ATOM     21  C5  NAG B   2       8.589  29.529  -9.1050  0.00  0.00     0.000 C
ATOM     22  O5  NAG B   2       8.292  30.060 -10.4090  0.00  0.00     0.000 O
ATOM     23   O  NAG B   2       7.581  28.306  -7.2510  0.00  0.00     0.000 O
ATOM     25  HD  NAG B   2       7.275  27.756  -7.8460  0.00  0.00     0.000 HD
ATOM     25   C  NAG B   2       9.804  28.607  -9.1860  0.00  0.00     0.000 C
ATOM     26   O  NAG B   2       9.684  27.665 -10.2630  0.00  0.00     0.000 O
ATOM     28  HD  NAG B   2       9.377  27.114 -10.8570  0.00  0.00     0.000 HD
BRANCH 18 30
ATOM     28   N  NAG B   2       5.162  31.610 -10.2460  0.00  0.00     0.000 N
ATOM     30  HD  NAG B   2       4.586  30.963 -10.2580  0.00  0.00     0.000 HD
ATOM     30   C  NAG B   2       3.885  31.542 -10.6420  0.00  0.00     0.000 C
ATOM     31   C  NAG B   2       3.213  32.823 -11.0500  0.00  0.00     0.000 C
ATOM     32   O  NAG B   2       3.281  30.489 -10.6780  0.00  0.00     0.000 OA
ENDBRANCH 18 30
BRANCH 17 33
ATOM     33  O4  GCU B   3       6.975  31.608 -11.6940  0.00  0.00     0.000 O
BRANCH 33 37
ATOM     34  C1  GCU B   3       9.170  34.251 -14.0460  0.00  0.00     0.000 C
ATOM     35  C2  GCU B   3       9.543  32.769 -14.1060  0.00  0.00     0.000 C
ATOM     36  C3  GCU B   3       8.408  31.937 -13.5490  0.00  0.00     0.000 C
ATOM     37  C4  GCU B   3       8.062  32.417 -12.1470  0.00  0.00     0.000 C
ATOM     38  C5  GCU B   3       7.701  33.903 -12.1860  0.00  0.00     0.000 C
ATOM     39  O5  GCU B   3       8.816  34.629 -12.7130  0.00  0.00     0.000 O
ATOM     40   O  GCU B   3       9.799  32.410 -15.4650  0.00  0.00     0.000 O
ATOM     42  HD  GCU B   3       9.598  31.820 -16.0670  0.00  0.00     0.000 HD
ATOM     42   O  GCU B   3       8.753  30.540 -13.5230  0.00  0.00     0.000 O
ATOM     44  HD  GCU B   3       8.553  29.951 -14.1240  0.00  0.00     0.000 HD
BRANCH 38 44
ATOM     44   C  GCU B   3       7.369  34.458 -10.8230  0.00  0.00     0.000 C
ATOM     45   O  GCU B   3       6.180  34.501 -10.4730  0.00  0.00     0.000 OA
ATOM     46   O  GCU B   3       8.285  34.857 -10.0790  0.00  0.00     0.000 OA
ENDBRANCH 38 44
BRANCH 34 47
ATOM     47  O3  NAG B   4      10.242  34.973 -14.3390  0.00  0.00     0.000 O
BRANCH 47 50
ATOM     48  C1  NAG B   4      12.729  37.711 -14.0730  0.00  0.00     0.000 C
ATOM     49  C2  NAG B   4      11.419  37.025 -14.4420  0.00  0.00     0.000 C
ATOM     50  C3  NAG B   4      11.210  35.751 -13.6380  0.00  0.00     0.000 C
ATOM     51  C4  NAG B   4      12.487  34.925 -13.4480  0.00  0.00     0.000 C
ATOM     52  C5  NAG B   4      13.559  35.724 -12.7260  0.00  0.00     0.000 C
ATOM     53  O5  NAG B   4      13.670  37.095 -13.1690  0.00  0.00     0.000 O
BRANCH 49 56
ATOM     54   N  NAG B   4      10.552  37.935 -13.6730  0.00  0.00     0.000 N
ATOM     56  HD  NAG B   4      10.620  38.103 -12.8260  0.00  0.00     0.000 HD
ATOM     56   C  NAG B   4       8.732  39.466 -13.1890  0.00  0.00     0.000 C
ATOM     57   O  NAG B   4       8.899  38.267 -15.1980  0.00  0.00     0.000 OA
ATOM     58   C  NAG B   4       9.404  38.492 -14.1080  0.00  0.00     0.000 C
ENDBRANCH 49 56
ATOM     59   O  NAG B   4      15.883  35.487 -11.9280  0.00  0.00     0.000 O
ATOM     61  HD  NAG B   4      15.335  35.732 -12.5520  0.00  0.00     0.000 HD
ATOM     61   O  NAG B   4      15.883  35.487 -11.9280  0.00  0.00     0.000 O
ATOM     63  HD  NAG B   4      15.335  35.732 -12.5520  0.00  0.00     0.000 HD
ENDBRANCH 47 50
ENDBRANCH 34 47
ENDBRANCH 33 37
ENDBRANCH 17 33
ENDBRANCH 16 19
ENDBRANCH 1 16
TORSDOF 10
ENDMDL
MODEL 71
REMARK VINA RESULT:      -6.7      3.543     11.681
ROOT
ATOM      1  C1  GCU B   1       0.636  27.843  -6.1780  0.00  0.00     0.000 C
ATOM      2  C2  GCU B   1       0.155  26.531  -6.7780  0.00  0.00     0.000 C
ATOM      3  C3  GCU B   1      -1.361  26.529  -6.9080  0.00  0.00     0.000 C
ATOM      4  C4  GCU B   1      -2.002  26.910  -5.5820  0.00  0.00     0.000 C
ATOM      5  C5  GCU B   1      -1.407  28.208  -5.0360  0.00  0.00     0.000 C
ATOM      6  O5  GCU B   1       0.013  28.054  -4.9010  0.00  0.00     0.000 O
ATOM      7   O  GCU B   1       0.771  26.387  -8.0530  0.00  0.00     0.000 O
ATOM      9  HD  GCU B   1       1.216  25.698  -8.3310  0.00  0.00     0.000 HD
ATOM      9   O  GCU B   1      -1.830  25.243  -7.3210  0.00  0.00     0.000 O
ATOM     11  HD  GCU B   1      -1.384  24.554  -7.5980  0.00  0.00     0.000 HD
ATOM     11   O  GCU B   1      -3.408  27.067  -5.7780  0.00  0.00     0.000 O
ATOM     13  HD  GCU B   1      -2.962  26.378  -6.0550  0.00  0.00     0.000 HD
ENDROOT
BRANCH 5 13
ATOM     13   C  GCU B   1      -2.071  28.568  -3.7290  0.00  0.00     0.000 C
ATOM     14   O  GCU B   1      -1.883  29.689  -3.2130  0.00  0.00     0.000 OA
ATOM     15   O  GCU B   1      -2.824  27.719  -3.2150  0.00  0.00     0.000 OA
ENDBRANCH 5 13
BRANCH 1 16
ATOM     16  O3  NAG B   2       1.759  28.059  -5.4900  0.00  0.00     0.000 O
BRANCH 16 19
ATOM     17  C1  NAG B   2       4.970  29.942  -6.1010  0.00  0.00     0.000 C
ATOM     18  C2  NAG B   2       3.907  28.871  -6.3140  0.00  0.00     0.000 C
ATOM     19  C3  NAG B   2       2.689  29.152  -5.4360  0.00  0.00     0.000 C
ATOM     20  C4  NAG B   2       3.114  29.344  -3.9810  0.00  0.00     0.000 C
ATOM     21  C5  NAG B   2       4.170  30.436  -3.8920  0.00  0.00     0.000 C
ATOM     22  O5  NAG B   2       5.295  30.063  -4.7070  0.00  0.00     0.000 O
ATOM     23   O  NAG B   2       1.953  29.681  -3.2130  0.00  0.00     0.000 O
ATOM     25  HD  NAG B   2       2.316  28.909  -3.0620  0.00  0.00     0.000 HD
ATOM     25   C  NAG B   2       4.632  30.695  -2.4590  0.00  0.00     0.000 C
ATOM     26   O  NAG B   2       5.469  29.635  -1.9720  0.00  0.00     0.000 O
ATOM     28  HD  NAG B   2       5.832  28.863  -1.8210  0.00  0.00     0.000 HD
BRANCH 18 30
ATOM     28   N  NAG B   2       4.471  28.005  -7.3320  0.00  0.00     0.000 N
ATOM     30  HD  NAG B   2       3.796  28.369  -7.7340  0.00  0.00     0.000 HD
ATOM     30   C  NAG B   2       3.907  27.793  -8.5270  0.00  0.00     0.000 C
ATOM     31   C  NAG B   2       4.590  26.832  -9.4590  0.00  0.00     0.000 C
ATOM     32   O  NAG B   2       2.879  28.349  -8.8580  0.00  0.00     0.000 OA
ENDBRANCH 18 30
BRANCH 17 33
ATOM     33  O4  GCU B   3       6.103  29.602  -6.9250  0.00  0.00     0.000 O
BRANCH 33 37
ATOM     34  C1  GCU B   3       8.953  32.015  -8.7660  0.00  0.00     0.000 C
ATOM     35  C2  GCU B   3       8.897  32.021  -7.2380  0.00  0.00     0.000 C
ATOM     36  C3  GCU B   3       8.132  30.808  -6.7530  0.00  0.00     0.000 C
ATOM     37  C4  GCU B   3       6.758  30.776  -7.4080  0.00  0.00     0.000 C
ATOM     38  C5  GCU B   3       6.913  30.769  -8.9300  0.00  0.00     0.000 C
ATOM     39  O5  GCU B   3       7.636  31.942  -9.3190  0.00  0.00     0.000 O
ATOM     40   O  GCU B   3      10.232  32.000  -6.7260  0.00  0.00     0.000 O
ATOM     42  HD  GCU B   3      10.741  31.588  -6.1600  0.00  0.00     0.000 HD
ATOM     42   O  GCU B   3       7.997  30.819  -5.3210  0.00  0.00     0.000 O
ATOM     44  HD  GCU B   3       8.507  30.408  -4.7540  0.00  0.00     0.000 HD
BRANCH 38 44
ATOM     44   C  GCU B   3       5.588  30.763  -9.6500  0.00  0.00     0.000 C
ATOM     45   O  GCU B   3       4.654  31.431  -9.1800  0.00  0.00     0.000 OA
ATOM     46   O  GCU B   3       5.455  30.098 -10.6950  0.00  0.00     0.000 OA
ENDBRANCH 38 44
BRANCH 34 47
ATOM     47  O3  NAG B   4       9.440  33.176  -9.1800  0.00  0.00     0.000 O
BRANCH 47 50
ATOM     48  C1  NAG B   4      11.863  35.172 -11.1550  0.00  0.00     0.000 C
ATOM     49  C2  NAG B   4      11.375  34.164 -10.1190  0.00  0.00     0.000 C
ATOM     50  C3  NAG B   4       9.943  33.732 -10.3940  0.00  0.00     0.000 C
ATOM     51  C4  NAG B   4       9.029  34.876 -10.8470  0.00  0.00     0.000 C
ATOM     52  C5  NAG B   4       9.542  35.517 -12.1260  0.00  0.00     0.000 C
ATOM     53  O5  NAG B   4      10.974  35.710 -12.1560  0.00  0.00     0.000 O
BRANCH 49 56
ATOM     54   N  NAG B   4      12.404  33.111 -10.1600  0.00  0.00     0.000 N
ATOM     56  HD  NAG B   4      13.162  33.128  -9.7400  0.00  0.00     0.000 HD
ATOM     56   C  NAG B   4      13.522  31.054 -10.8000  0.00  0.00     0.000 C
ATOM     57   O  NAG B   4      11.609  31.866 -11.8870  0.00  0.00     0.000 OA
ATOM     58   C  NAG B   4      12.427  32.057 -11.0000  0.00  0.00     0.000 C
ENDBRANCH 49 56
ATOM     59   O  NAG B   4       8.971  37.338 -13.6930  0.00  0.00     0.000 O
ATOM     61  HD  NAG B   4       9.406  37.071 -12.9930  0.00  0.00     0.000 HD
ATOM     61   O  NAG B   4       8.971  37.338 -13.6930  0.00  0.00     0.000 O
ATOM     63  HD  NAG B   4       9.406  37.071 -12.9930  0.00  0.00     0.000 HD
ENDBRANCH 47 50
ENDBRANCH 34 47
ENDBRANCH 33 37
ENDBRANCH 17 33
ENDBRANCH 16 19
ENDBRANCH 1 16
TORSDOF 10
ENDMDL
MODEL 72
REMARK VINA RESULT:      -6.7      3.580      5.887
ROOT
ATOM      1  C1  GCU B   1       7.617  31.401  -9.0000  0.00  0.00     0.000 C
ATOM      2  C2  GCU B   1       8.773  32.340  -8.6930  0.00  0.00     0.000 C
ATOM      3  C3  GCU B   1       8.340  33.789  -8.8560  0.00  0.00     0.000 C
ATOM      4  C4  GCU B   1       7.683  33.992 -10.2130  0.00  0.00     0.000 C
ATOM      5  C5  GCU B   1       6.577  32.961 -10.4480  0.00  0.00     0.000 C
ATOM      6  O5  GCU B   1       7.130  31.644 -10.3300  0.00  0.00     0.000 O
ATOM      7   O  GCU B   1       9.193  32.086  -7.3560  0.00  0.00     0.000 O
ATOM      9  HD  GCU B   1      10.002  31.917  -7.0990  0.00  0.00     0.000 HD
ATOM      9   O  GCU B   1       9.460  34.667  -8.7240  0.00  0.00     0.000 O
ATOM     11  HD  GCU B   1      10.270  34.498  -8.4670  0.00  0.00     0.000 HD
ATOM     11   O  GCU B   1       7.136  35.310 -10.2680  0.00  0.00     0.000 O
ATOM     13  HD  GCU B   1       7.945  35.140 -10.0100  0.00  0.00     0.000 HD
ENDROOT
BRANCH 5 13
ATOM     13   C  GCU B   1       5.935  33.195 -11.7940  0.00  0.00     0.000 C
ATOM     14   O  GCU B   1       6.209  32.456 -12.7610  0.00  0.00     0.000 OA
ATOM     15   O  GCU B   1       5.112  34.127 -11.8830  0.00  0.00     0.000 OA
ENDBRANCH 5 13
BRANCH 1 16
ATOM     16  O3  NAG B   2       7.685  30.137  -9.4240  0.00  0.00     0.000 O
BRANCH 16 19
ATOM     17  C1  NAG B   2       5.245  27.379  -8.6080  0.00  0.00     0.000 C
ATOM     18  C2  NAG B   2       6.143  28.582  -8.3490  0.00  0.00     0.000 C
ATOM     19  C3  NAG B   2       6.698  29.122  -9.6650  0.00  0.00     0.000 C
ATOM     20  C4  NAG B   2       7.358  27.999 -10.4660  0.00  0.00     0.000 C
ATOM     21  C5  NAG B   2       6.369  26.860 -10.6650  0.00  0.00     0.000 C
ATOM     22  O5  NAG B   2       5.940  26.384  -9.3770  0.00  0.00     0.000 O
ATOM     23   O  NAG B   2       7.792  28.535 -11.7200  0.00  0.00     0.000 O
ATOM     25  HD  NAG B   2       8.407  28.295 -11.1590  0.00  0.00     0.000 HD
ATOM     25   C  NAG B   2       6.956  25.704 -11.4740  0.00  0.00     0.000 C
ATOM     26   O  NAG B   2       7.906  24.949 -10.7070  0.00  0.00     0.000 O
ATOM     28  HD  NAG B   2       8.520  24.709 -10.1460  0.00  0.00     0.000 HD
BRANCH 18 30
ATOM     28   N  NAG B   2       6.160  28.814  -6.9170  0.00  0.00     0.000 N
ATOM     30  HD  NAG B   2       5.664  29.459  -7.2160  0.00  0.00     0.000 HD
ATOM     30   C  NAG B   2       5.619  29.888  -6.3290  0.00  0.00     0.000 C
ATOM     31   C  NAG B   2       5.757  30.010  -4.8370  0.00  0.00     0.000 C
ATOM     32   O  NAG B   2       5.037  30.743  -6.9670  0.00  0.00     0.000 OA
ENDBRANCH 18 30
BRANCH 17 33
ATOM     33  O4  GCU B   3       4.784  26.896  -7.3310  0.00  0.00     0.000 O
BRANCH 33 37
ATOM     34  C1  GCU B   3       1.160  25.187  -6.1990  0.00  0.00     0.000 C
ATOM     35  C2  GCU B   3       2.134  24.321  -7.0000  0.00  0.00     0.000 C
ATOM     36  C3  GCU B   3       3.517  24.933  -6.9480  0.00  0.00     0.000 C
ATOM     37  C4  GCU B   3       3.456  26.377  -7.4270  0.00  0.00     0.000 C
ATOM     38  C5  GCU B   3       2.463  27.163  -6.5680  0.00  0.00     0.000 C
ATOM     39  O5  GCU B   3       1.180  26.538  -6.6690  0.00  0.00     0.000 O
ATOM     40   O  GCU B   3       2.153  23.006  -6.4410  0.00  0.00     0.000 O
ATOM     42  HD  GCU B   3       2.693  22.389  -6.1610  0.00  0.00     0.000 HD
ATOM     42   O  GCU B   3       4.446  24.184  -7.7520  0.00  0.00     0.000 O
ATOM     44  HD  GCU B   3       4.985  23.567  -7.4730  0.00  0.00     0.000 HD
BRANCH 38 44
ATOM     44   C  GCU B   3       2.330  28.601  -7.0010  0.00  0.00     0.000 C
ATOM     45   O  GCU B   3       2.177  29.471  -6.1310  0.00  0.00     0.000 OA
ATOM     46   O  GCU B   3       2.379  28.889  -8.2120  0.00  0.00     0.000 OA
ENDBRANCH 38 44
BRANCH 34 47
ATOM     47  O3  NAG B   4      -0.074  24.759  -6.4220  0.00  0.00     0.000 O
BRANCH 47 50
ATOM     48  C1  NAG B   4      -3.697  24.053  -6.0600  0.00  0.00     0.000 C
ATOM     49  C2  NAG B   4      -2.283  23.932  -6.6190  0.00  0.00     0.000 C
ATOM     50  C3  NAG B   4      -1.254  24.507  -5.6600  0.00  0.00     0.000 C
ATOM     51  C4  NAG B   4      -1.704  25.802  -4.9740  0.00  0.00     0.000 C
ATOM     52  C5  NAG B   4      -2.974  25.586  -4.1680  0.00  0.00     0.000 C
ATOM     53  O5  NAG B   4      -3.961  24.765  -4.8330  0.00  0.00     0.000 O
BRANCH 49 56
ATOM     54   N  NAG B   4      -2.261  22.477  -6.3840  0.00  0.00     0.000 N
ATOM     56  HD  NAG B   4      -2.694  22.059  -5.7610  0.00  0.00     0.000 HD
ATOM     56   C  NAG B   4      -1.641  20.146  -6.6470  0.00  0.00     0.000 C
ATOM     57   O  NAG B   4      -0.520  21.901  -7.7260  0.00  0.00     0.000 OA
ATOM     58   C  NAG B   4      -1.422  21.594  -6.9600  0.00  0.00     0.000 C
ENDBRANCH 49 56
ATOM     59   O  NAG B   4      -4.553  26.845  -2.7490  0.00  0.00     0.000 O
ATOM     61  HD  NAG B   4      -4.336  26.548  -3.5330  0.00  0.00     0.000 HD
ATOM     61   O  NAG B   4      -4.553  26.845  -2.7490  0.00  0.00     0.000 O
ATOM     63  HD  NAG B   4      -4.336  26.548  -3.5330  0.00  0.00     0.000 HD
ENDBRANCH 47 50
ENDBRANCH 34 47
ENDBRANCH 33 37
ENDBRANCH 17 33
ENDBRANCH 16 19
ENDBRANCH 1 16
TORSDOF 10
ENDMDL
MODEL 73
REMARK VINA RESULT:      -6.7      2.309     11.324
ROOT
ATOM      1  C1  GCU B   1       0.947  28.581  -4.3200  0.00  0.00     0.000 C
ATOM      2  C2  GCU B   1      -0.013  27.711  -3.5240  0.00  0.00     0.000 C
ATOM      3  C3  GCU B   1      -1.451  27.998  -3.9270  0.00  0.00     0.000 C
ATOM      4  C4  GCU B   1      -1.726  29.493  -3.8630  0.00  0.00     0.000 C
ATOM      5  C5  GCU B   1      -0.671  30.280  -4.6420  0.00  0.00     0.000 C
ATOM      6  O5  GCU B   1       0.628  29.968  -4.1220  0.00  0.00     0.000 O
ATOM      7   O  GCU B   1       0.321  26.350  -3.7820  0.00  0.00     0.000 O
ATOM      9  HD  GCU B   1       0.475  25.741  -3.1870  0.00  0.00     0.000 HD
ATOM      9   O  GCU B   1      -2.363  27.302  -3.0750  0.00  0.00     0.000 O
ATOM     11  HD  GCU B   1      -2.208  26.692  -2.4800  0.00  0.00     0.000 HD
ATOM     11   O  GCU B   1      -3.020  29.748  -4.4080  0.00  0.00     0.000 O
ATOM     13  HD  GCU B   1      -2.866  29.138  -3.8130  0.00  0.00     0.000 HD
ENDROOT
BRANCH 5 13
ATOM     13   C  GCU B   1      -0.977  31.757  -4.5730  0.00  0.00     0.000 C
ATOM     14   O  GCU B   1      -2.044  32.157  -4.0650  0.00  0.00     0.000 OA
ATOM     15   O  GCU B   1      -0.115  32.543  -5.0120  0.00  0.00     0.000 OA
ENDBRANCH 5 13
BRANCH 1 16
ATOM     16  O3  NAG B   2       2.173  28.974  -3.9660  0.00  0.00     0.000 O
BRANCH 16 19
ATOM     17  C1  NAG B   2       5.050  28.932  -6.4040  0.00  0.00     0.000 C
ATOM     18  C2  NAG B   2       3.745  28.477  -5.7640  0.00  0.00     0.000 C
ATOM     19  C3  NAG B   2       3.298  29.478  -4.7010  0.00  0.00     0.000 C
ATOM     20  C4  NAG B   2       4.432  29.745  -3.7110  0.00  0.00     0.000 C
ATOM     21  C5  NAG B   2       5.677  30.195  -4.4610  0.00  0.00     0.000 C
ATOM     22  O5  NAG B   2       6.050  29.172  -5.4010  0.00  0.00     0.000 O
ATOM     23   O  NAG B   2       3.995  30.744  -2.7830  0.00  0.00     0.000 O
ATOM     25  HD  NAG B   2       4.113  29.943  -2.4740  0.00  0.00     0.000 HD
ATOM     25   C  NAG B   2       6.850  30.496  -3.5310  0.00  0.00     0.000 C
ATOM     26   O  NAG B   2       7.424  29.294  -2.9940  0.00  0.00     0.000 O
ATOM     28  HD  NAG B   2       7.541  28.493  -2.6860  0.00  0.00     0.000 HD
BRANCH 18 30
ATOM     28   N  NAG B   2       3.027  28.191  -6.9910  0.00  0.00     0.000 N
ATOM     30  HD  NAG B   2       2.771  27.556  -6.4610  0.00  0.00     0.000 HD
ATOM     30   C  NAG B   2       2.286  27.093  -7.1840  0.00  0.00     0.000 C
ATOM     31   C  NAG B   2       1.638  26.917  -8.5290  0.00  0.00     0.000 C
ATOM     32   O  NAG B   2       2.136  26.260  -6.3130  0.00  0.00     0.000 OA
ENDBRANCH 18 30
BRANCH 17 33
ATOM     33  O4  GCU B   3       5.435  27.931  -7.3680  0.00  0.00     0.000 O
BRANCH 33 37
ATOM     34  C1  GCU B   3       7.839  28.209 -10.7550  0.00  0.00     0.000 C
ATOM     35  C2  GCU B   3       8.528  27.945  -9.4160  0.00  0.00     0.000 C
ATOM     36  C3  GCU B   3       7.508  27.459  -8.4080  0.00  0.00     0.000 C
ATOM     37  C4  GCU B   3       6.366  28.461  -8.3140  0.00  0.00     0.000 C
ATOM     38  C5  GCU B   3       5.738  28.658  -9.6950  0.00  0.00     0.000 C
ATOM     39  O5  GCU B   3       6.751  29.123 -10.5930  0.00  0.00     0.000 O
ATOM     40   O  GCU B   3       9.545  26.959  -9.6050  0.00  0.00     0.000 O
ATOM     42  HD  GCU B   3       9.844  26.213  -9.2820  0.00  0.00     0.000 HD
ATOM     42   O  GCU B   3       8.108  27.270  -7.1140  0.00  0.00     0.000 O
ATOM     44  HD  GCU B   3       8.407  26.524  -6.7910  0.00  0.00     0.000 HD
BRANCH 38 44
ATOM     44   C  GCU B   3       4.611  29.660  -9.6850  0.00  0.00     0.000 C
ATOM     45   O  GCU B   3       4.838  30.805  -9.2660  0.00  0.00     0.000 OA
ATOM     46   O  GCU B   3       3.484  29.325 -10.0960  0.00  0.00     0.000 OA
ENDBRANCH 38 44
BRANCH 34 47
ATOM     47  O3  NAG B   4       8.693  28.824 -11.5610  0.00  0.00     0.000 O
BRANCH 47 50
ATOM     48  C1  NAG B   4       7.954  29.089 -15.1860  0.00  0.00     0.000 C
ATOM     49  C2  NAG B   4       7.930  29.466 -13.7080  0.00  0.00     0.000 C
ATOM     50  C3  NAG B   4       9.052  28.785 -12.9410  0.00  0.00     0.000 C
ATOM     51  C4  NAG B   4       9.296  27.332 -13.3630  0.00  0.00     0.000 C
ATOM     52  C5  NAG B   4       9.657  27.239 -14.8360  0.00  0.00     0.000 C
ATOM     53  O5  NAG B   4       8.868  28.094 -15.6920  0.00  0.00     0.000 O
BRANCH 49 56
ATOM     54   N  NAG B   4       8.585  30.785 -13.7130  0.00  0.00     0.000 N
ATOM     56  HD  NAG B   4       9.439  30.926 -13.6720  0.00  0.00     0.000 HD
ATOM     56   C  NAG B   4       8.822  33.201 -13.7100  0.00  0.00     0.000 C
ATOM     57   O  NAG B   4       6.771  32.113 -13.3810  0.00  0.00     0.000 OA
ATOM     58   C  NAG B   4       7.969  31.977 -13.5800  0.00  0.00     0.000 C
ENDBRANCH 49 56
ATOM     59   O  NAG B   4      10.211  25.547 -16.5460  0.00  0.00     0.000 O
ATOM     61  HD  NAG B   4       9.613  26.034 -16.1520  0.00  0.00     0.000 HD
ATOM     61   O  NAG B   4      10.211  25.547 -16.5460  0.00  0.00     0.000 O
ATOM     63  HD  NAG B   4       9.613  26.034 -16.1520  0.00  0.00     0.000 HD
ENDBRANCH 47 50
ENDBRANCH 34 47
ENDBRANCH 33 37
ENDBRANCH 17 33
ENDBRANCH 16 19
ENDBRANCH 1 16
TORSDOF 10
ENDMDL
MODEL 74
REMARK VINA RESULT:      -6.7      2.667      4.536
ROOT
ATOM      1  C1  GCU B   1       7.907  29.819 -10.2380  0.00  0.00     0.000 C
ATOM      2  C2  GCU B   1       9.126  30.286 -11.0180  0.00  0.00     0.000 C
ATOM      3  C3  GCU B   1       9.140  29.661 -12.4050  0.00  0.00     0.000 C
ATOM      4  C4  GCU B   1       8.973  28.153 -12.3040  0.00  0.00     0.000 C
ATOM      5  C5  GCU B   1       7.757  27.790 -11.4500  0.00  0.00     0.000 C
ATOM      6  O5  GCU B   1       7.899  28.385 -10.1530  0.00  0.00     0.000 O
ATOM      7   O  GCU B   1       9.066  31.706 -11.1050  0.00  0.00     0.000 O
ATOM      9  HD  GCU B   1       9.697  32.258 -10.8870  0.00  0.00     0.000 HD
ATOM      9   O  GCU B   1      10.361  29.969 -13.0830  0.00  0.00     0.000 O
ATOM     11  HD  GCU B   1      10.992  30.521 -12.8650  0.00  0.00     0.000 HD
ATOM     11   O  GCU B   1       8.819  27.617 -13.6180  0.00  0.00     0.000 O
ATOM     13  HD  GCU B   1       9.449  28.169 -13.4000  0.00  0.00     0.000 HD
ENDROOT
BRANCH 5 13
ATOM     13   C  GCU B   1       7.609  26.289 -11.3790  0.00  0.00     0.000 C
ATOM     14   O  GCU B   1       6.509  25.777 -11.0860  0.00  0.00     0.000 OA
ATOM     15   O  GCU B   1       8.611  25.600 -11.6500  0.00  0.00     0.000 OA
ENDBRANCH 5 13
BRANCH 1 16
ATOM     16  O3  NAG B   2       7.770  29.741  -8.9120  0.00  0.00     0.000 O
BRANCH 16 19
ATOM     17  C1  NAG B   2       4.750  29.028  -6.7680  0.00  0.00     0.000 C
ATOM     18  C2  NAG B   2       5.584  29.734  -7.8290  0.00  0.00     0.000 C
ATOM     19  C3  NAG B   2       6.899  28.991  -8.0520  0.00  0.00     0.000 C
ATOM     20  C4  NAG B   2       7.619  28.773  -6.7210  0.00  0.00     0.000 C
ATOM     21  C5  NAG B   2       6.694  28.058  -5.7460  0.00  0.00     0.000 C
ATOM     22  O5  NAG B   2       5.509  28.852  -5.5610  0.00  0.00     0.000 O
ATOM     23   O  NAG B   2       8.803  28.007  -6.9680  0.00  0.00     0.000 O
ATOM     25  HD  NAG B   2       8.909  28.830  -6.7210  0.00  0.00     0.000 HD
ATOM     25   C  NAG B   2       7.353  27.791  -4.3950  0.00  0.00     0.000 C
ATOM     26   O  NAG B   2       7.487  28.994  -3.6220  0.00  0.00     0.000 O
ATOM     28  HD  NAG B   2       7.593  29.818  -3.3760  0.00  0.00     0.000 HD
BRANCH 18 30
ATOM     28   N  NAG B   2       4.391  30.030  -8.6000  0.00  0.00     0.000 N
ATOM     30  HD  NAG B   2       4.985  30.555  -8.9480  0.00  0.00     0.000 HD
ATOM     30   C  NAG B   2       4.314  31.008  -9.5110  0.00  0.00     0.000 C
ATOM     31   C  NAG B   2       2.993  31.219 -10.1960  0.00  0.00     0.000 C
ATOM     32   O  NAG B   2       5.269  31.708  -9.7810  0.00  0.00     0.000 OA
ENDBRANCH 18 30
BRANCH 17 33
ATOM     33  O4  GCU B   3       3.544  29.794  -6.5800  0.00  0.00     0.000 O
BRANCH 33 37
ATOM     34  C1  GCU B   3      -0.196  28.602  -5.1900  0.00  0.00     0.000 C
ATOM     35  C2  GCU B   3       0.783  29.193  -4.1750  0.00  0.00     0.000 C
ATOM     36  C3  GCU B   3       1.879  29.942  -4.9040  0.00  0.00     0.000 C
ATOM     37  C4  GCU B   3       2.542  29.020  -5.9180  0.00  0.00     0.000 C
ATOM     38  C5  GCU B   3       1.489  28.482  -6.8890  0.00  0.00     0.000 C
ATOM     39  O5  GCU B   3       0.493  27.781  -6.1380  0.00  0.00     0.000 O
ATOM     40   O  GCU B   3       0.073  30.078  -3.3070  0.00  0.00     0.000 O
ATOM     42  HD  GCU B   3       0.098  30.877  -2.9740  0.00  0.00     0.000 HD
ATOM     42   O  GCU B   3       2.860  30.451  -3.9820  0.00  0.00     0.000 O
ATOM     44  HD  GCU B   3       2.885  31.250  -3.6490  0.00  0.00     0.000 HD
BRANCH 38 44
ATOM     44   C  GCU B   3       2.070  27.538  -7.9110  0.00  0.00     0.000 C
ATOM     45   O  GCU B   3       2.204  27.935  -9.0790  0.00  0.00     0.000 OA
ATOM     46   O  GCU B   3       2.405  26.387  -7.5700  0.00  0.00     0.000 OA
ENDBRANCH 38 44
BRANCH 34 47
ATOM     47  O3  NAG B   4      -1.024  27.783  -4.5580  0.00  0.00     0.000 O
BRANCH 47 50
ATOM     48  C1  NAG B   4      -0.427  24.243  -5.4880  0.00  0.00     0.000 C
ATOM     49  C2  NAG B   4      -0.108  25.638  -4.9620  0.00  0.00     0.000 C
ATOM     50  C3  NAG B   4      -1.373  26.401  -4.6000  0.00  0.00     0.000 C
ATOM     51  C4  NAG B   4      -2.523  26.195  -5.5930  0.00  0.00     0.000 C
ATOM     52  C5  NAG B   4      -2.912  24.729  -5.6900  0.00  0.00     0.000 C
ATOM     53  O5  NAG B   4      -1.788  23.822  -5.7220  0.00  0.00     0.000 O
BRANCH 49 56
ATOM     54   N  NAG B   4       0.267  25.282  -3.5820  0.00  0.00     0.000 N
ATOM     56  HD  NAG B   4      -0.278  25.020  -2.9620  0.00  0.00     0.000 HD
ATOM     56   C  NAG B   4       1.659  24.963  -1.6200  0.00  0.00     0.000 C
ATOM     57   O  NAG B   4       2.399  26.067  -3.5520  0.00  0.00     0.000 OA
ATOM     58   C  NAG B   4       1.468  25.494  -3.0070  0.00  0.00     0.000 C
ENDBRANCH 49 56
ATOM     59   O  NAG B   4      -4.499  23.267  -6.8880  0.00  0.00     0.000 O
ATOM     61  HD  NAG B   4      -3.714  23.630  -6.8450  0.00  0.00     0.000 HD
ATOM     61   O  NAG B   4      -4.499  23.267  -6.8880  0.00  0.00     0.000 O
ATOM     63  HD  NAG B   4      -3.714  23.630  -6.8450  0.00  0.00     0.000 HD
ENDBRANCH 47 50
ENDBRANCH 34 47
ENDBRANCH 33 37
ENDBRANCH 17 33
ENDBRANCH 16 19
ENDBRANCH 1 16
TORSDOF 10
ENDMDL
MODEL 75
REMARK VINA RESULT:      -6.7      6.036      9.744
ROOT
ATOM      1  C1  GCU B   1       8.123  29.528 -14.2850  0.00  0.00     0.000 C
ATOM      2  C2  GCU B   1       6.977  28.552 -14.4970  0.00  0.00     0.000 C
ATOM      3  C3  GCU B   1       7.367  27.485 -15.5090  0.00  0.00     0.000 C
ATOM      4  C4  GCU B   1       7.908  28.134 -16.7730  0.00  0.00     0.000 C
ATOM      5  C5  GCU B   1       9.012  29.141 -16.4460  0.00  0.00     0.000 C
ATOM      6  O5  GCU B   1       8.496  30.124 -15.5380  0.00  0.00     0.000 O
ATOM      7   O  GCU B   1       6.671  27.964 -13.2370  0.00  0.00     0.000 O
ATOM      9  HD  GCU B   1       5.889  27.925 -12.8670  0.00  0.00     0.000 HD
ATOM      9   O  GCU B   1       6.244  26.661 -15.8300  0.00  0.00     0.000 O
ATOM     11  HD  GCU B   1       5.461  26.623 -15.4610  0.00  0.00     0.000 HD
ATOM     11   O  GCU B   1       8.423  27.114 -17.6310  0.00  0.00     0.000 O
ATOM     13  HD  GCU B   1       7.641  27.076 -17.2610  0.00  0.00     0.000 HD
ENDROOT
BRANCH 5 13
ATOM     13   C  GCU B   1       9.539  29.758 -17.7200  0.00  0.00     0.000 C
ATOM     14   O  GCU B   1       8.969  29.540 -18.8090  0.00  0.00     0.000 OA
ATOM     15   O  GCU B   1      10.533  30.503 -17.6270  0.00  0.00     0.000 OA
ENDBRANCH 5 13
BRANCH 1 16
ATOM     16  O3  NAG B   2       8.046  30.799 -13.8830  0.00  0.00     0.000 O
BRANCH 16 19
ATOM     17  C1  NAG B   2       9.491  32.506 -10.8460  0.00  0.00     0.000 C
ATOM     18  C2  NAG B   2       8.701  31.466 -11.6290  0.00  0.00     0.000 C
ATOM     19  C3  NAG B   2       8.922  31.651 -13.1290  0.00  0.00     0.000 C
ATOM     20  C4  NAG B   2       8.642  33.098 -13.5340  0.00  0.00     0.000 C
ATOM     21  C5  NAG B   2       9.488  34.042 -12.6910  0.00  0.00     0.000 C
ATOM     22  O5  NAG B   2       9.177  33.831 -11.3020  0.00  0.00     0.000 O
ATOM     23   O  NAG B   2       8.937  33.242 -14.9280  0.00  0.00     0.000 O
ATOM     25  HD  NAG B   2       8.106  33.303 -14.6910  0.00  0.00     0.000 HD
ATOM     25   C  NAG B   2       9.271  35.510 -13.0520  0.00  0.00     0.000 C
ATOM     26   O  NAG B   2       8.000  35.989 -12.5870  0.00  0.00     0.000 O
ATOM     28  HD  NAG B   2       7.169  36.050 -12.3510  0.00  0.00     0.000 HD
BRANCH 18 30
ATOM     28   N  NAG B   2       9.119  30.290 -10.8890  0.00  0.00     0.000 N
ATOM     30  HD  NAG B   2       8.277  30.146 -11.0290  0.00  0.00     0.000 HD
ATOM     30   C  NAG B   2       8.278  29.342 -10.4580  0.00  0.00     0.000 C
ATOM     31   C  NAG B   2       8.859  28.205  -9.6640  0.00  0.00     0.000 C
ATOM     32   O  NAG B   2       7.087  29.388 -10.6900  0.00  0.00     0.000 OA
ENDBRANCH 18 30
BRANCH 17 33
ATOM     33  O4  GCU B   3       9.213  32.302  -9.4460  0.00  0.00     0.000 O
BRANCH 33 37
ATOM     34  C1  GCU B   3      11.181  33.688  -6.0500  0.00  0.00     0.000 C
ATOM     35  C2  GCU B   3      10.161  34.618  -6.7080  0.00  0.00     0.000 C
ATOM     36  C3  GCU B   3       9.265  33.817  -7.6290  0.00  0.00     0.000 C
ATOM     37  C4  GCU B   3      10.117  33.048  -8.6290  0.00  0.00     0.000 C
ATOM     38  C5  GCU B   3      11.101  32.146  -7.8810  0.00  0.00     0.000 C
ATOM     39  O5  GCU B   3      11.919  32.965  -7.0390  0.00  0.00     0.000 O
ATOM     40   O  GCU B   3       9.384  35.250  -5.6880  0.00  0.00     0.000 O
ATOM     42  HD  GCU B   3       8.567  35.417  -5.4550  0.00  0.00     0.000 HD
ATOM     42   O  GCU B   3       8.338  34.672  -8.3220  0.00  0.00     0.000 O
ATOM     44  HD  GCU B   3       7.521  34.839  -8.0890  0.00  0.00     0.000 HD
BRANCH 38 44
ATOM     44   C  GCU B   3      11.999  31.369  -8.8100  0.00  0.00     0.000 C
ATOM     45   O  GCU B   3      13.045  31.903  -9.2100  0.00  0.00     0.000 OA
ATOM     46   O  GCU B   3      11.681  30.215  -9.1550  0.00  0.00     0.000 OA
ENDBRANCH 38 44
BRANCH 34 47
ATOM     47  O3  NAG B   4      12.082  34.424  -5.4140  0.00  0.00     0.000 O
BRANCH 47 50
ATOM     48  C1  NAG B   4      15.020  33.082  -3.5910  0.00  0.00     0.000 C
ATOM     49  C2  NAG B   4      14.230  33.689  -4.7460  0.00  0.00     0.000 C
ATOM     50  C3  NAG B   4      12.923  34.300  -4.2680  0.00  0.00     0.000 C
ATOM     51  C4  NAG B   4      12.207  33.467  -3.1980  0.00  0.00     0.000 C
ATOM     52  C5  NAG B   4      13.078  33.287  -1.9660  0.00  0.00     0.000 C
ATOM     53  O5  NAG B   4      14.465  33.007  -2.2610  0.00  0.00     0.000 O
BRANCH 49 56
ATOM     54   N  NAG B   4      14.789  35.007  -5.0940  0.00  0.00     0.000 N
ATOM     56  HD  NAG B   4      14.360  35.759  -5.0740  0.00  0.00     0.000 HD
ATOM     56   C  NAG B   4      16.392  36.662  -5.8560  0.00  0.00     0.000 C
ATOM     57   O  NAG B   4      16.741  34.352  -6.0570  0.00  0.00     0.000 OA
ATOM     58   C  NAG B   4      15.981  35.233  -5.6820  0.00  0.00     0.000 C
ENDBRANCH 49 56
ATOM     59   O  NAG B   4      13.024  32.194   0.2470  0.00  0.00     0.000 O
ATOM     61  HD  NAG B   4      13.237  32.159  -0.5920  0.00  0.00     0.000 HD
ATOM     61   O  NAG B   4      13.024  32.194   0.2470  0.00  0.00     0.000 O
ATOM     63  HD  NAG B   4      13.237  32.159  -0.5920  0.00  0.00     0.000 HD
ENDBRANCH 47 50
ENDBRANCH 34 47
ENDBRANCH 33 37
ENDBRANCH 17 33
ENDBRANCH 16 19
ENDBRANCH 1 16
TORSDOF 10
ENDMDL
MODEL 76
REMARK VINA RESULT:      -6.6      4.144      6.477
ROOT
ATOM      1  C1  GCU B   1       7.880  32.453  -8.4640  0.00  0.00     0.000 C
ATOM      2  C2  GCU B   1       9.378  32.656  -8.2990  0.00  0.00     0.000 C
ATOM      3  C3  GCU B   1       9.755  34.099  -8.5970  0.00  0.00     0.000 C
ATOM      4  C4  GCU B   1       9.187  34.524  -9.9420  0.00  0.00     0.000 C
ATOM      5  C5  GCU B   1       7.690  34.221 -10.0280  0.00  0.00     0.000 C
ATOM      6  O5  GCU B   1       7.480  32.822  -9.7930  0.00  0.00     0.000 O
ATOM      7   O  GCU B   1       9.716  32.313  -6.9590  0.00  0.00     0.000 O
ATOM      9  HD  GCU B   1      10.336  31.760  -6.7140  0.00  0.00     0.000 HD
ATOM      9   O  GCU B   1      11.176  34.259  -8.5980  0.00  0.00     0.000 O
ATOM     11  HD  GCU B   1      11.795  33.706  -8.3540  0.00  0.00     0.000 HD
ATOM     11   O  GCU B   1       9.408  35.924 -10.1160  0.00  0.00     0.000 O
ATOM     13  HD  GCU B   1      10.028  35.370  -9.8710  0.00  0.00     0.000 HD
ENDROOT
BRANCH 5 13
ATOM     13   C  GCU B   1       7.153  34.664 -11.3680  0.00  0.00     0.000 C
ATOM     14   O  GCU B   1       7.916  35.162 -12.2210  0.00  0.00     0.000 OA
ATOM     15   O  GCU B   1       5.939  34.486 -11.5860  0.00  0.00     0.000 OA
ENDBRANCH 5 13
BRANCH 1 16
ATOM     16  O3  NAG B   2       7.240  31.318  -8.7550  0.00  0.00     0.000 O
BRANCH 16 19
ATOM     17  C1  NAG B   2       4.903  29.068  -6.8310  0.00  0.00     0.000 C
ATOM     18  C2  NAG B   2       6.197  29.807  -7.1480  0.00  0.00     0.000 C
ATOM     19  C3  NAG B   2       5.991  30.752  -8.3310  0.00  0.00     0.000 C
ATOM     20  C4  NAG B   2       5.384  29.999  -9.5140  0.00  0.00     0.000 C
ATOM     21  C5  NAG B   2       4.099  29.307  -9.0810  0.00  0.00     0.000 C
ATOM     22  O5  NAG B   2       4.398  28.404  -8.0010  0.00  0.00     0.000 O
ATOM     23   O  NAG B   2       5.137  30.937 -10.5670  0.00  0.00     0.000 O
ATOM     25  HD  NAG B   2       5.757  30.348 -10.7010  0.00  0.00     0.000 HD
ATOM     25   C  NAG B   2       3.426  28.545 -10.2200  0.00  0.00     0.000 C
ATOM     26   O  NAG B   2       4.141  27.344 -10.5510  0.00  0.00     0.000 O
ATOM     28  HD  NAG B   2       4.761  26.755 -10.6850  0.00  0.00     0.000 HD
BRANCH 18 30
ATOM     28   N  NAG B   2       6.500  30.187  -5.7820  0.00  0.00     0.000 N
ATOM     30  HD  NAG B   2       7.282  30.039  -6.1230  0.00  0.00     0.000 HD
ATOM     30   C  NAG B   2       7.728  30.142  -5.2490  0.00  0.00     0.000 C
ATOM     31   C  NAG B   2       7.875  30.526  -3.8040  0.00  0.00     0.000 C
ATOM     32   O  NAG B   2       8.696  29.803  -5.9000  0.00  0.00     0.000 OA
ENDBRANCH 18 30
BRANCH 17 33
ATOM     33  O4  GCU B   3       5.172  28.170  -5.7350  0.00  0.00     0.000 O
BRANCH 33 37
ATOM     34  C1  GCU B   3       2.591  26.437  -2.9660  0.00  0.00     0.000 C
ATOM     35  C2  GCU B   3       2.843  25.681  -4.2720  0.00  0.00     0.000 C
ATOM     36  C3  GCU B   3       4.090  26.222  -4.9380  0.00  0.00     0.000 C
ATOM     37  C4  GCU B   3       3.958  27.727  -5.1260  0.00  0.00     0.000 C
ATOM     38  C5  GCU B   3       3.712  28.395  -3.7720  0.00  0.00     0.000 C
ATOM     39  O5  GCU B   3       2.519  27.846  -3.2030  0.00  0.00     0.000 O
ATOM     40   O  GCU B   3       3.001  24.291  -3.9790  0.00  0.00     0.000 O
ATOM     42  HD  GCU B   3       3.523  23.616  -4.1280  0.00  0.00     0.000 HD
ATOM     42   O  GCU B   3       4.318  25.583  -6.2070  0.00  0.00     0.000 O
ATOM     44  HD  GCU B   3       4.839  24.907  -6.3550  0.00  0.00     0.000 HD
BRANCH 38 44
ATOM     44   C  GCU B   3       3.545  29.889  -3.8820  0.00  0.00     0.000 C
ATOM     45   O  GCU B   3       2.558  30.333  -4.4880  0.00  0.00     0.000 OA
ATOM     46   O  GCU B   3       4.390  30.645  -3.3660  0.00  0.00     0.000 OA
ENDBRANCH 38 44
BRANCH 34 47
ATOM     47  O3  NAG B   4       1.396  26.101  -2.5020  0.00  0.00     0.000 O
BRANCH 47 50
ATOM     48  C1  NAG B   4      -1.256  25.475   0.0140  0.00  0.00     0.000 C
ATOM     49  C2  NAG B   4      -0.640  25.702  -1.3620  0.00  0.00     0.000 C
ATOM     50  C3  NAG B   4       0.859  25.451  -1.3510  0.00  0.00     0.000 C
ATOM     51  C4  NAG B   4       1.563  25.978  -0.0950  0.00  0.00     0.000 C
ATOM     52  C5  NAG B   4       1.005  25.331   1.1620  0.00  0.00     0.000 C
ATOM     53  O5  NAG B   4      -0.434  25.199   1.1680  0.00  0.00     0.000 O
BRANCH 49 56
ATOM     54   N  NAG B   4      -1.125  24.427  -1.9200  0.00  0.00     0.000 N
ATOM     56  HD  NAG B   4      -1.041  23.649  -1.5500  0.00  0.00     0.000 HD
ATOM     56   C  NAG B   4      -2.123  22.873  -3.4950  0.00  0.00     0.000 C
ATOM     57   O  NAG B   4      -1.622  25.100  -4.0330  0.00  0.00     0.000 OA
ATOM     58   C  NAG B   4      -1.591  24.235  -3.1700  0.00  0.00     0.000 C
ENDBRANCH 49 56
ATOM     59   O  NAG B   4       1.302  25.386   3.6120  0.00  0.00     0.000 O
ATOM     61  HD  NAG B   4       0.889  25.678   2.9090  0.00  0.00     0.000 HD
ATOM     61   O  NAG B   4       1.302  25.386   3.6120  0.00  0.00     0.000 O
ATOM     63  HD  NAG B   4       0.889  25.678   2.9090  0.00  0.00     0.000 HD
ENDBRANCH 47 50
ENDBRANCH 34 47
ENDBRANCH 33 37
ENDBRANCH 17 33
ENDBRANCH 16 19
ENDBRANCH 1 16
TORSDOF 10
ENDMDL
MODEL 77
REMARK VINA RESULT:      -6.6      4.041      7.727
ROOT
ATOM      1  C1  GCU B   1       6.889  30.569  -7.8790  0.00  0.00     0.000 C
ATOM      2  C2  GCU B   1       6.966  31.406  -9.1460  0.00  0.00     0.000 C
ATOM      3  C3  GCU B   1       8.410  31.773  -9.4540  0.00  0.00     0.000 C
ATOM      4  C4  GCU B   1       9.068  32.388  -8.2290  0.00  0.00     0.000 C
ATOM      5  C5  GCU B   1       8.881  31.499  -6.9990  0.00  0.00     0.000 C
ATOM      6  O5  GCU B   1       7.480  31.285  -6.7830  0.00  0.00     0.000 O
ATOM      7   O  GCU B   1       6.403  30.640 -10.2060  0.00  0.00     0.000 O
ATOM      9  HD  GCU B   1       5.779  30.899 -10.7480  0.00  0.00     0.000 HD
ATOM      9   O  GCU B   1       8.474  32.689 -10.5500  0.00  0.00     0.000 O
ATOM     11  HD  GCU B   1       7.850  32.948 -11.0920  0.00  0.00     0.000 HD
ATOM     11   O  GCU B   1      10.461  32.562  -8.4930  0.00  0.00     0.000 O
ATOM     13  HD  GCU B   1       9.838  32.822  -9.0350  0.00  0.00     0.000 HD
ENDROOT
BRANCH 5 13
ATOM     13   C  GCU B   1       9.556  32.127  -5.8030  0.00  0.00     0.000 C
ATOM     14   O  GCU B   1      10.123  33.234  -5.9080  0.00  0.00     0.000 OA
ATOM     15   O  GCU B   1       9.497  31.512  -4.7210  0.00  0.00     0.000 OA
ENDBRANCH 5 13
BRANCH 1 16
ATOM     16  O3  NAG B   2       5.856  30.453  -7.0420  0.00  0.00     0.000 O
BRANCH 16 19
ATOM     17  C1  NAG B   2       3.309  27.833  -6.1050  0.00  0.00     0.000 C
ATOM     18  C2  NAG B   2       4.000  28.870  -6.9820  0.00  0.00     0.000 C
ATOM     19  C3  NAG B   2       5.290  29.349  -6.3180  0.00  0.00     0.000 C
ATOM     20  C4  NAG B   2       5.013  29.810  -4.8880  0.00  0.00     0.000 C
ATOM     21  C5  NAG B   2       4.328  28.695  -4.1100  0.00  0.00     0.000 C
ATOM     22  O5  NAG B   2       3.104  28.346  -4.7790  0.00  0.00     0.000 O
ATOM     23   O  NAG B   2       6.259  30.175  -4.2830  0.00  0.00     0.000 O
ATOM     25  HD  NAG B   2       5.694  30.813  -4.4390  0.00  0.00     0.000 HD
ATOM     25   C  NAG B   2       4.035  29.080  -2.6620  0.00  0.00     0.000 C
ATOM     26   O  NAG B   2       2.950  30.017  -2.5710  0.00  0.00     0.000 O
ATOM     28  HD  NAG B   2       2.386  30.655  -2.7280  0.00  0.00     0.000 HD
BRANCH 18 30
ATOM     28   N  NAG B   2       4.204  28.276  -8.2890  0.00  0.00     0.000 N
ATOM     30  HD  NAG B   2       3.689  28.951  -8.4570  0.00  0.00     0.000 HD
ATOM     30   C  NAG B   2       3.574  28.679  -9.3990  0.00  0.00     0.000 C
ATOM     31   C  NAG B   2       3.859  27.933 -10.6720  0.00  0.00     0.000 C
ATOM     32   O  NAG B   2       2.795  29.612  -9.3910  0.00  0.00     0.000 OA
ENDBRANCH 18 30
BRANCH 17 33
ATOM     33  O4  GCU B   3       2.086  27.450  -6.7660  0.00  0.00     0.000 O
BRANCH 33 37
ATOM     34  C1  GCU B   3      -0.562  24.337  -5.9720  0.00  0.00     0.000 C
ATOM     35  C2  GCU B   3      -0.779  25.659  -5.2350  0.00  0.00     0.000 C
ATOM     36  C3  GCU B   3      -0.024  26.764  -5.9430  0.00  0.00     0.000 C
ATOM     37  C4  GCU B   3       1.442  26.379  -6.0740  0.00  0.00     0.000 C
ATOM     38  C5  GCU B   3       1.561  25.050  -6.8230  0.00  0.00     0.000 C
ATOM     39  O5  GCU B   3       0.834  24.052  -6.0990  0.00  0.00     0.000 O
ATOM     40   O  GCU B   3      -2.178  25.952  -5.2110  0.00  0.00     0.000 O
ATOM     42  HD  GCU B   3      -2.748  26.582  -5.3770  0.00  0.00     0.000 HD
ATOM     42   O  GCU B   3      -0.147  28.011  -5.2350  0.00  0.00     0.000 O
ATOM     44  HD  GCU B   3      -0.717  28.641  -5.4000  0.00  0.00     0.000 HD
BRANCH 38 44
ATOM     44   C  GCU B   3       2.989  24.590  -6.9700  0.00  0.00     0.000 C
ATOM     45   O  GCU B   3       3.550  24.734  -8.0670  0.00  0.00     0.000 OA
ATOM     46   O  GCU B   3       3.577  24.081  -5.9970  0.00  0.00     0.000 OA
ENDBRANCH 38 44
BRANCH 34 47
ATOM     47  O3  NAG B   4      -1.052  23.351  -5.2330  0.00  0.00     0.000 O
BRANCH 47 50
ATOM     48  C1  NAG B   4      -2.945  20.949  -7.3320  0.00  0.00     0.000 C
ATOM     49  C2  NAG B   4      -1.810  21.886  -6.9310  0.00  0.00     0.000 C
ATOM     50  C3  NAG B   4      -1.819  22.166  -5.4370  0.00  0.00     0.000 C
ATOM     51  C4  NAG B   4      -3.223  22.361  -4.8540  0.00  0.00     0.000 C
ATOM     52  C5  NAG B   4      -4.086  21.129  -5.0700  0.00  0.00     0.000 C
ATOM     53  O5  NAG B   4      -3.948  20.536  -6.3800  0.00  0.00     0.000 O
BRANCH 49 56
ATOM     54   N  NAG B   4      -0.708  20.908  -6.9100  0.00  0.00     0.000 N
ATOM     56  HD  NAG B   4      -0.600  20.280  -6.3230  0.00  0.00     0.000 HD
ATOM     56   C  NAG B   4       1.352  19.797  -7.5530  0.00  0.00     0.000 C
ATOM     57   O  NAG B   4       0.671  21.854  -8.4490  0.00  0.00     0.000 OA
ATOM     58   C  NAG B   4       0.405  20.951  -7.6700  0.00  0.00     0.000 C
ENDBRANCH 49 56
ATOM     59   O  NAG B   4      -6.375  20.320  -4.6240  0.00  0.00     0.000 O
ATOM     61  HD  NAG B   4      -5.818  20.707  -5.1620  0.00  0.00     0.000 HD
ATOM     61   O  NAG B   4      -6.375  20.320  -4.6240  0.00  0.00     0.000 O
ATOM     63  HD  NAG B   4      -5.818  20.707  -5.1620  0.00  0.00     0.000 HD
ENDBRANCH 47 50
ENDBRANCH 34 47
ENDBRANCH 33 37
ENDBRANCH 17 33
ENDBRANCH 16 19
ENDBRANCH 1 16
TORSDOF 10
ENDMDL
MODEL 78
REMARK VINA RESULT:      -6.6      2.732      3.786
ROOT
ATOM      1  C1  GCU B   1       9.220  28.468 -11.7450  0.00  0.00     0.000 C
ATOM      2  C2  GCU B   1      10.634  28.942 -12.0400  0.00  0.00     0.000 C
ATOM      3  C3  GCU B   1      10.614  30.084 -13.0450  0.00  0.00     0.000 C
ATOM      4  C4  GCU B   1       9.792  29.695 -14.2650  0.00  0.00     0.000 C
ATOM      5  C5  GCU B   1       8.413  29.176 -13.8560  0.00  0.00     0.000 C
ATOM      6  O5  GCU B   1       8.575  28.065 -12.9630  0.00  0.00     0.000 O
ATOM      7   O  GCU B   1      11.215  29.364 -10.8100  0.00  0.00     0.000 O
ATOM      9  HD  GCU B   1      11.975  29.102 -10.4880  0.00  0.00     0.000 HD
ATOM      9   O  GCU B   1      11.943  30.426 -13.4460  0.00  0.00     0.000 O
ATOM     11  HD  GCU B   1      12.703  30.165 -13.1240  0.00  0.00     0.000 HD
ATOM     11   O  GCU B   1       9.648  30.839 -15.1070  0.00  0.00     0.000 O
ATOM     13  HD  GCU B   1      10.408  30.577 -14.7850  0.00  0.00     0.000 HD
ENDROOT
BRANCH 5 13
ATOM     13   C  GCU B   1       7.616  28.811 -15.0860  0.00  0.00     0.000 C
ATOM     14   O  GCU B   1       8.180  28.704 -16.1940  0.00  0.00     0.000 OA
ATOM     15   O  GCU B   1       6.397  28.599 -14.9370  0.00  0.00     0.000 OA
ENDBRANCH 5 13
BRANCH 1 16
ATOM     16  O3  NAG B   2       8.838  27.259 -11.3270  0.00  0.00     0.000 O
BRANCH 16 19
ATOM     17  C1  NAG B   2       5.519  26.477  -9.7140  0.00  0.00     0.000 C
ATOM     18  C2  NAG B   2       6.786  27.271 -10.0060  0.00  0.00     0.000 C
ATOM     19  C3  NAG B   2       7.557  26.632 -11.1600  0.00  0.00     0.000 C
ATOM     20  C4  NAG B   2       7.788  25.146 -10.8880  0.00  0.00     0.000 C
ATOM     21  C5  NAG B   2       6.457  24.459 -10.6150  0.00  0.00     0.000 C
ATOM     22  O5  NAG B   2       5.829  25.093  -9.4870  0.00  0.00     0.000 O
ATOM     23   O  NAG B   2       8.442  24.575 -12.0260  0.00  0.00     0.000 O
ATOM     25  HD  NAG B   2       8.900  24.628 -11.2930  0.00  0.00     0.000 HD
ATOM     25   C  NAG B   2       6.609  22.963 -10.3490  0.00  0.00     0.000 C
ATOM     26   O  NAG B   2       7.179  22.709  -9.0560  0.00  0.00     0.000 O
ATOM     28  HD  NAG B   2       7.637  22.762  -8.3230  0.00  0.00     0.000 HD
BRANCH 18 30
ATOM     28   N  NAG B   2       6.262  28.615 -10.1530  0.00  0.00     0.000 N
ATOM     30  HD  NAG B   2       6.927  28.721  -9.6080  0.00  0.00     0.000 HD
ATOM     30   C  NAG B   2       6.697  29.666  -9.4470  0.00  0.00     0.000 C
ATOM     31   C  NAG B   2       6.023  30.989  -9.6800  0.00  0.00     0.000 C
ATOM     32   O  NAG B   2       7.601  29.568  -8.6420  0.00  0.00     0.000 OA
ENDBRANCH 18 30
BRANCH 17 33
ATOM     33  O4  GCU B   3       4.858  27.106  -8.5980  0.00  0.00     0.000 O
BRANCH 33 37
ATOM     34  C1  GCU B   3       0.892  26.929  -7.3460  0.00  0.00     0.000 C
ATOM     35  C2  GCU B   3       1.677  25.618  -7.4040  0.00  0.00     0.000 C
ATOM     36  C3  GCU B   3       3.160  25.917  -7.4560  0.00  0.00     0.000 C
ATOM     37  C4  GCU B   3       3.453  26.850  -8.6220  0.00  0.00     0.000 C
ATOM     38  C5  GCU B   3       2.627  28.130  -8.4780  0.00  0.00     0.000 C
ATOM     39  O5  GCU B   3       1.241  27.777  -8.4430  0.00  0.00     0.000 O
ATOM     40   O  GCU B   3       1.369  24.842  -6.2440  0.00  0.00     0.000 O
ATOM     42  HD  GCU B   3       1.740  24.399  -5.5990  0.00  0.00     0.000 HD
ATOM     42   O  GCU B   3       3.928  24.707  -7.5850  0.00  0.00     0.000 O
ATOM     44  HD  GCU B   3       4.299  24.264  -6.9400  0.00  0.00     0.000 HD
BRANCH 38 44
ATOM     44   C  GCU B   3       2.847  29.096  -9.6150  0.00  0.00     0.000 C
ATOM     45   O  GCU B   3       2.723  30.310  -9.3950  0.00  0.00     0.000 OA
ATOM     46   O  GCU B   3       3.149  28.663 -10.7440  0.00  0.00     0.000 OA
ENDBRANCH 38 44
BRANCH 34 47
ATOM     47  O3  NAG B   4      -0.397  26.663  -7.5080  0.00  0.00     0.000 O
BRANCH 47 50
ATOM     48  C1  NAG B   4      -1.983  25.791  -4.2710  0.00  0.00     0.000 C
ATOM     49  C2  NAG B   4      -1.092  26.551  -5.2490  0.00  0.00     0.000 C
ATOM     50  C3  NAG B   4      -1.509  26.305  -6.6900  0.00  0.00     0.000 C
ATOM     51  C4  NAG B   4      -1.907  24.853  -6.9780  0.00  0.00     0.000 C
ATOM     52  C5  NAG B   4      -3.075  24.418  -6.1080  0.00  0.00     0.000 C
ATOM     53  O5  NAG B   4      -2.984  24.861  -4.7360  0.00  0.00     0.000 O
BRANCH 49 56
ATOM     54   N  NAG B   4      -1.724  27.870  -5.0690  0.00  0.00     0.000 N
ATOM     56  HD  NAG B   4      -2.551  28.062  -5.2390  0.00  0.00     0.000 HD
ATOM     56   C  NAG B   4      -1.934  30.235  -4.5650  0.00  0.00     0.000 C
ATOM     57   O  NAG B   4       0.132  29.139  -4.7330  0.00  0.00     0.000 OA
ATOM     58   C  NAG B   4      -1.083  29.026  -4.8050  0.00  0.00     0.000 C
ENDBRANCH 49 56
ATOM     59   O  NAG B   4      -4.483  22.436  -5.6820  0.00  0.00     0.000 O
ATOM     61  HD  NAG B   4      -3.786  22.908  -5.4780  0.00  0.00     0.000 HD
ATOM     61   O  NAG B   4      -4.483  22.436  -5.6820  0.00  0.00     0.000 O
ATOM     63  HD  NAG B   4      -3.786  22.908  -5.4780  0.00  0.00     0.000 HD
ENDBRANCH 47 50
ENDBRANCH 34 47
ENDBRANCH 33 37
ENDBRANCH 17 33
ENDBRANCH 16 19
ENDBRANCH 1 16
TORSDOF 10
ENDMDL
MODEL 79
REMARK VINA RESULT:      -6.6      3.953     11.981
ROOT
ATOM      1  C1  GCU B   1       4.606  30.283  -6.5970  0.00  0.00     0.000 C
ATOM      2  C2  GCU B   1       3.371  29.426  -6.8320  0.00  0.00     0.000 C
ATOM      3  C3  GCU B   1       2.329  29.690  -5.7560  0.00  0.00     0.000 C
ATOM      4  C4  GCU B   1       2.954  29.562  -4.3750  0.00  0.00     0.000 C
ATOM      5  C5  GCU B   1       4.220  30.413  -4.2640  0.00  0.00     0.000 C
ATOM      6  O5  GCU B   1       5.142  30.021  -5.2900  0.00  0.00     0.000 O
ATOM      7   O  GCU B   1       2.859  29.749  -8.1200  0.00  0.00     0.000 O
ATOM      9  HD  GCU B   1       2.676  29.187  -8.7530  0.00  0.00     0.000 HD
ATOM      9   O  GCU B   1       1.236  28.776  -5.8780  0.00  0.00     0.000 O
ATOM     11  HD  GCU B   1       1.053  28.214  -6.5110  0.00  0.00     0.000 HD
ATOM     11   O  GCU B   1       2.003  29.980  -3.3970  0.00  0.00     0.000 O
ATOM     13  HD  GCU B   1       1.820  29.418  -4.0290  0.00  0.00     0.000 HD
ENDROOT
BRANCH 5 13
ATOM     13   C  GCU B   1       4.811  30.277  -2.8810  0.00  0.00     0.000 C
ATOM     14   O  GCU B   1       5.395  31.242  -2.3460  0.00  0.00     0.000 OA
ATOM     15   O  GCU B   1       4.664  29.185  -2.2990  0.00  0.00     0.000 OA
ENDBRANCH 5 13
BRANCH 1 16
ATOM     16  O3  NAG B   2       5.857  30.032  -6.9890  0.00  0.00     0.000 O
BRANCH 16 19
ATOM     17  C1  NAG B   2       8.277  31.905  -9.1940  0.00  0.00     0.000 C
ATOM     18  C2  NAG B   2       6.990  31.182  -8.8190  0.00  0.00     0.000 C
ATOM     19  C3  NAG B   2       6.974  30.870  -7.3230  0.00  0.00     0.000 C
ATOM     20  C4  NAG B   2       8.254  30.139  -6.9180  0.00  0.00     0.000 C
ATOM     21  C5  NAG B   2       9.468  30.955  -7.3380  0.00  0.00     0.000 C
ATOM     22  O5  NAG B   2       9.424  31.156  -8.7620  0.00  0.00     0.000 O
ATOM     23   O  NAG B   2       8.229  29.938  -5.5010  0.00  0.00     0.000 O
ATOM     25  HD  NAG B   2       8.162  29.234  -6.0010  0.00  0.00     0.000 HD
ATOM     25   C  NAG B   2      10.788  30.292  -6.9500  0.00  0.00     0.000 C
ATOM     26   O  NAG B   2      11.075  29.156  -7.7790  0.00  0.00     0.000 O
ATOM     28  HD  NAG B   2      11.007  28.452  -8.2790  0.00  0.00     0.000 HD
BRANCH 18 30
ATOM     28   N  NAG B   2       6.129  32.072  -9.5740  0.00  0.00     0.000 N
ATOM     30  HD  NAG B   2       5.708  31.316  -9.6060  0.00  0.00     0.000 HD
ATOM     30   C  NAG B   2       5.039  31.669 -10.2390  0.00  0.00     0.000 C
ATOM     31   C  NAG B   2       4.273  32.705 -11.0140  0.00  0.00     0.000 C
ATOM     32   O  NAG B   2       4.673  30.511 -10.2270  0.00  0.00     0.000 OA
ENDBRANCH 18 30
BRANCH 17 33
ATOM     33  O4  GCU B   3       8.248  32.138 -10.6160  0.00  0.00     0.000 O
BRANCH 33 37
ATOM     34  C1  GCU B   3      10.415  34.800 -12.9720  0.00  0.00     0.000 C
ATOM     35  C2  GCU B   3      11.034  33.429 -12.6960  0.00  0.00     0.000 C
ATOM     36  C3  GCU B   3       9.962  32.476 -12.2120  0.00  0.00     0.000 C
ATOM     37  C4  GCU B   3       9.254  33.074 -11.0040  0.00  0.00     0.000 C
ATOM     38  C5  GCU B   3       8.667  34.437 -11.3750  0.00  0.00     0.000 C
ATOM     39  O5  GCU B   3       9.731  35.288 -11.8140  0.00  0.00     0.000 O
ATOM     40   O  GCU B   3      11.625  32.938 -13.9010  0.00  0.00     0.000 O
ATOM     42  HD  GCU B   3      11.657  32.240 -14.4130  0.00  0.00     0.000 HD
ATOM     42   O  GCU B   3      10.523  31.195 -11.8740  0.00  0.00     0.000 O
ATOM     44  HD  GCU B   3      10.554  30.497 -12.3850  0.00  0.00     0.000 HD
BRANCH 38 44
ATOM     44   C  GCU B   3       7.969  35.104 -10.2160  0.00  0.00     0.000 C
ATOM     45   O  GCU B   3       8.637  35.817  -9.4510  0.00  0.00     0.000 OA
ATOM     46   O  GCU B   3       6.746  34.933 -10.0490  0.00  0.00     0.000 OA
ENDBRANCH 38 44
BRANCH 34 47
ATOM     47  O3  NAG B   4      11.388  35.672 -13.1940  0.00  0.00     0.000 O
BRANCH 47 50
ATOM     48  C1  NAG B   4      13.560  36.760 -10.3910  0.00  0.00     0.000 C
ATOM     49  C2  NAG B   4      13.072  35.889 -11.5440  0.00  0.00     0.000 C
ATOM     50  C3  NAG B   4      12.116  36.648 -12.4500  0.00  0.00     0.000 C
ATOM     51  C4  NAG B   4      11.132  37.549 -11.6930  0.00  0.00     0.000 C
ATOM     52  C5  NAG B   4      11.865  38.591 -10.8650  0.00  0.00     0.000 C
ATOM     53  O5  NAG B   4      13.026  38.083 -10.1710  0.00  0.00     0.000 O
BRANCH 49 56
ATOM     54   N  NAG B   4      14.320  36.001 -12.3180  0.00  0.00     0.000 N
ATOM     56  HD  NAG B   4      14.731  36.738 -12.5110  0.00  0.00     0.000 HD
ATOM     56   C  NAG B   4      16.231  35.322 -13.6520  0.00  0.00     0.000 C
ATOM     57   O  NAG B   4      14.450  33.885 -13.1390  0.00  0.00     0.000 OA
ATOM     58   C  NAG B   4      14.912  35.010 -13.0150  0.00  0.00     0.000 C
ENDBRANCH 49 56
ATOM     59   O  NAG B   4      11.391  40.452  -9.3140  0.00  0.00     0.000 O
ATOM     61  HD  NAG B   4      11.569  39.613  -9.4320  0.00  0.00     0.000 HD
ATOM     61   O  NAG B   4      11.391  40.452  -9.3140  0.00  0.00     0.000 O
ATOM     63  HD  NAG B   4      11.569  39.613  -9.4320  0.00  0.00     0.000 HD
ENDBRANCH 47 50
ENDBRANCH 34 47
ENDBRANCH 33 37
ENDBRANCH 17 33
ENDBRANCH 16 19
ENDBRANCH 1 16
TORSDOF 10
ENDMDL
MODEL 80
REMARK VINA RESULT:      -6.6      7.321     11.609
ROOT
ATOM      1  C1  GCU B   1       4.970  28.832  -0.5830  0.00  0.00     0.000 C
ATOM      2  C2  GCU B   1       5.164  29.829   0.5490  0.00  0.00     0.000 C
ATOM      3  C3  GCU B   1       6.505  29.604   1.2310  0.00  0.00     0.000 C
ATOM      4  C4  GCU B   1       6.656  28.142   1.6220  0.00  0.00     0.000 C
ATOM      5  C5  GCU B   1       6.381  27.223   0.4310  0.00  0.00     0.000 C
ATOM      6  O5  GCU B   1       5.067  27.491  -0.0760  0.00  0.00     0.000 O
ATOM      7   O  GCU B   1       5.096  31.137  -0.0100  0.00  0.00     0.000 O
ATOM      9  HD  GCU B   1       4.589  31.784   0.2630  0.00  0.00     0.000 HD
ATOM      9   O  GCU B   1       6.624  30.430   2.3930  0.00  0.00     0.000 O
ATOM     11  HD  GCU B   1       6.117  31.077   2.6660  0.00  0.00     0.000 HD
ATOM     11   O  GCU B   1       7.984  27.927   2.1010  0.00  0.00     0.000 O
ATOM     13  HD  GCU B   1       7.477  28.574   2.3750  0.00  0.00     0.000 HD
ENDROOT
BRANCH 5 13
ATOM     13   C  GCU B   1       6.552  25.780   0.8440  0.00  0.00     0.000 C
ATOM     14   O  GCU B   1       6.966  24.934   0.0250  0.00  0.00     0.000 OA
ATOM     15   O  GCU B   1       6.293  25.488   2.0270  0.00  0.00     0.000 OA
ENDBRANCH 5 13
BRANCH 1 16
ATOM     16  O3  NAG B   2       3.816  28.390  -1.0880  0.00  0.00     0.000 O
BRANCH 16 19
ATOM     17  C1  NAG B   2       3.145  26.275  -4.1390  0.00  0.00     0.000 C
ATOM     18  C2  NAG B   2       3.712  27.436  -3.3320  0.00  0.00     0.000 C
ATOM     19  C3  NAG B   2       3.451  27.223  -1.8420  0.00  0.00     0.000 C
ATOM     20  C4  NAG B   2       1.968  26.943  -1.5960  0.00  0.00     0.000 C
ATOM     21  C5  NAG B   2       1.518  25.766  -2.4480  0.00  0.00     0.000 C
ATOM     22  O5  NAG B   2       1.756  26.076  -3.8330  0.00  0.00     0.000 O
ATOM     23   O  NAG B   2       1.785  26.674  -0.2020  0.00  0.00     0.000 O
ATOM     25  HD  NAG B   2       1.444  27.408  -0.5100  0.00  0.00     0.000 HD
ATOM     25   C  NAG B   2       0.045  25.417  -2.2420  0.00  0.00     0.000 C
ATOM     26   O  NAG B   2      -0.820  26.387  -2.8530  0.00  0.00     0.000 O
ATOM     28  HD  NAG B   2      -1.162  27.120  -3.1620  0.00  0.00     0.000 HD
BRANCH 18 30
ATOM     28   N  NAG B   2       5.008  27.465  -3.9830  0.00  0.00     0.000 N
ATOM     30  HD  NAG B   2       4.847  28.302  -3.8260  0.00  0.00     0.000 HD
ATOM     30   C  NAG B   2       5.641  28.592  -4.3350  0.00  0.00     0.000 C
ATOM     31   C  NAG B   2       6.959  28.457  -5.0440  0.00  0.00     0.000 C
ATOM     32   O  NAG B   2       5.175  29.688  -4.0980  0.00  0.00     0.000 OA
ENDBRANCH 18 30
BRANCH 17 33
ATOM     33  O4  GCU B   3       3.391  26.551  -5.5320  0.00  0.00     0.000 O
BRANCH 33 37
ATOM     34  C1  GCU B   3       3.479  23.949  -8.7810  0.00  0.00     0.000 C
ATOM     35  C2  GCU B   3       2.190  24.734  -8.5350  0.00  0.00     0.000 C
ATOM     36  C3  GCU B   3       2.475  25.903  -7.6160  0.00  0.00     0.000 C
ATOM     37  C4  GCU B   3       3.131  25.401  -6.3380  0.00  0.00     0.000 C
ATOM     38  C5  GCU B   3       4.409  24.633  -6.6820  0.00  0.00     0.000 C
ATOM     39  O5  GCU B   3       4.067  23.542  -7.5420  0.00  0.00     0.000 O
ATOM     40   O  GCU B   3       1.686  25.202  -9.7880  0.00  0.00     0.000 O
ATOM     42  HD  GCU B   3       1.396  25.914 -10.1860  0.00  0.00     0.000 HD
ATOM     42   O  GCU B   3       1.269  26.623  -7.3040  0.00  0.00     0.000 O
ATOM     44  HD  GCU B   3       0.979  27.335  -7.7030  0.00  0.00     0.000 HD
BRANCH 38 44
ATOM     44   C  GCU B   3       5.102  24.081  -5.4620  0.00  0.00     0.000 C
ATOM     45   O  GCU B   3       4.634  23.067  -4.9200  0.00  0.00     0.000 OA
ATOM     46   O  GCU B   3       6.124  24.644  -5.0240  0.00  0.00     0.000 OA
ENDBRANCH 38 44
BRANCH 34 47
ATOM     47  O3  NAG B   4       3.179  22.822  -9.4110  0.00  0.00     0.000 O
BRANCH 47 50
ATOM     48  C1  NAG B   4       0.965  19.847  -9.3470  0.00  0.00     0.000 C
ATOM     49  C2  NAG B   4       1.882  20.937  -8.8030  0.00  0.00     0.000 C
ATOM     50  C3  NAG B   4       2.003  22.101  -9.7740  0.00  0.00     0.000 C
ATOM     51  C4  NAG B   4       2.102  21.672 -11.2420  0.00  0.00     0.000 C
ATOM     52  C5  NAG B   4       0.878  20.876 -11.6670  0.00  0.00     0.000 C
ATOM     53  O5  NAG B   4       0.429  19.916 -10.6850  0.00  0.00     0.000 O
BRANCH 49 56
ATOM     54   N  NAG B   4       0.930  21.579  -7.8800  0.00  0.00     0.000 N
ATOM     56  HD  NAG B   4       0.232  22.037  -8.1120  0.00  0.00     0.000 HD
ATOM     56   C  NAG B   4      -0.051  22.327  -5.7900  0.00  0.00     0.000 C
ATOM     57   O  NAG B   4       2.095  21.392  -5.9380  0.00  0.00     0.000 OA
ATOM     58   C  NAG B   4       1.092  21.729  -6.5500  0.00  0.00     0.000 C
ENDBRANCH 49 56
ATOM     59   O  NAG B   4      -0.030  19.714 -13.6460  0.00  0.00     0.000 O
ATOM     61  HD  NAG B   4       0.425  19.679 -12.9110  0.00  0.00     0.000 HD
ATOM     61   O  NAG B   4      -0.030  19.714 -13.6460  0.00  0.00     0.000 O
ATOM     63  HD  NAG B   4       0.425  19.679 -12.9110  0.00  0.00     0.000 HD
ENDBRANCH 47 50
ENDBRANCH 34 47
ENDBRANCH 33 37
ENDBRANCH 17 33
ENDBRANCH 16 19
ENDBRANCH 1 16
TORSDOF 10
ENDMDL
MODEL 81
REMARK VINA RESULT:      -6.6      5.368     11.931
ROOT
ATOM      1  C1  GCU B   1       5.161  30.353  -8.1700  0.00  0.00     0.000 C
ATOM      2  C2  GCU B   1       4.162  29.573  -9.0100  0.00  0.00     0.000 C
ATOM      3  C3  GCU B   1       2.775  29.642  -8.3890  0.00  0.00     0.000 C
ATOM      4  C4  GCU B   1       2.837  29.247  -6.9220  0.00  0.00     0.000 C
ATOM      5  C5  GCU B   1       3.912  30.045  -6.1820  0.00  0.00     0.000 C
ATOM      6  O5  GCU B   1       5.176  29.842  -6.8280  0.00  0.00     0.000 O
ATOM      7   O  GCU B   1       4.158  30.140 -10.3160  0.00  0.00     0.000 O
ATOM      9  HD  GCU B   1       4.264  29.710 -11.0610  0.00  0.00     0.000 HD
ATOM      9   O  GCU B   1       1.868  28.783  -9.0840  0.00  0.00     0.000 O
ATOM     11  HD  GCU B   1       1.974  28.352  -9.8280  0.00  0.00     0.000 HD
ATOM     11   O  GCU B   1       1.561  29.486  -6.3260  0.00  0.00     0.000 O
ATOM     13  HD  GCU B   1       1.666  29.055  -7.0700  0.00  0.00     0.000 HD
ENDROOT
BRANCH 5 13
ATOM     13   C  GCU B   1       3.940  29.642  -4.7270  0.00  0.00     0.000 C
ATOM     14   O  GCU B   1       4.355  30.438  -3.8600  0.00  0.00     0.000 OA
ATOM     15   O  GCU B   1       3.510  28.509  -4.4360  0.00  0.00     0.000 OA
ENDBRANCH 5 13
BRANCH 1 16
ATOM     16  O3  NAG B   2       6.480  30.164  -8.0900  0.00  0.00     0.000 O
BRANCH 16 19
ATOM     17  C1  NAG B   2       9.362  32.418  -9.0050  0.00  0.00     0.000 C
ATOM     18  C2  NAG B   2       8.068  31.640  -9.2090  0.00  0.00     0.000 C
ATOM     19  C3  NAG B   2       7.593  31.047  -7.8830  0.00  0.00     0.000 C
ATOM     20  C4  NAG B   2       8.717  30.249  -7.2230  0.00  0.00     0.000 C
ATOM     21  C5  NAG B   2       9.951  31.127  -7.0690  0.00  0.00     0.000 C
ATOM     22  O5  NAG B   2      10.353  31.597  -8.3680  0.00  0.00     0.000 O
ATOM     23   O  NAG B   2       8.252  29.780  -5.9530  0.00  0.00     0.000 O
ATOM     25  HD  NAG B   2       8.390  29.185  -6.5670  0.00  0.00     0.000 HD
ATOM     25   C  NAG B   2      11.114  30.398  -6.4000  0.00  0.00     0.000 C
ATOM     26   O  NAG B   2      11.718  29.440  -7.2820  0.00  0.00     0.000 O
ATOM     28  HD  NAG B   2      11.857  28.845  -7.8960  0.00  0.00     0.000 HD
BRANCH 18 30
ATOM     28   N  NAG B   2       7.260  32.624  -9.9030  0.00  0.00     0.000 N
ATOM     30  HD  NAG B   2       7.150  31.907 -10.3770  0.00  0.00     0.000 HD
ATOM     30   C  NAG B   2       6.649  32.396 -11.0730  0.00  0.00     0.000 C
ATOM     31   C  NAG B   2       5.883  33.531 -11.6910  0.00  0.00     0.000 C
ATOM     32   O  NAG B   2       6.708  31.316 -11.6270  0.00  0.00     0.000 OA
ENDBRANCH 18 30
BRANCH 17 33
ATOM     33  O4  GCU B   3       9.776  32.919 -10.2920  0.00  0.00     0.000 O
BRANCH 33 37
ATOM     34  C1  GCU B   3      12.065  36.239 -11.3270  0.00  0.00     0.000 C
ATOM     35  C2  GCU B   3      12.799  35.013 -10.7810  0.00  0.00     0.000 C
ATOM     36  C3  GCU B   3      11.895  33.801 -10.8680  0.00  0.00     0.000 C
ATOM     37  C4  GCU B   3      10.583  34.089 -10.1530  0.00  0.00     0.000 C
ATOM     38  C5  GCU B   3       9.923  35.326 -10.7660  0.00  0.00     0.000 C
ATOM     39  O5  GCU B   3      10.823  36.431 -10.6440  0.00  0.00     0.000 O
ATOM     40   O  GCU B   3      13.984  34.802 -11.5500  0.00  0.00     0.000 O
ATOM     42  HD  GCU B   3      14.422  34.191 -11.9810  0.00  0.00     0.000 HD
ATOM     42   O  GCU B   3      12.527  32.643 -10.2950  0.00  0.00     0.000 O
ATOM     44  HD  GCU B   3      12.964  32.031 -10.7250  0.00  0.00     0.000 HD
BRANCH 38 44
ATOM     44   C  GCU B   3       8.625  35.689 -10.0890  0.00  0.00     0.000 C
ATOM     45   O  GCU B   3       8.476  35.394  -8.8940  0.00  0.00     0.000 OA
ATOM     46   O  GCU B   3       7.735  36.275 -10.7340  0.00  0.00     0.000 OA
ENDBRANCH 38 44
BRANCH 34 47
ATOM     47  O3  NAG B   4      12.782  37.321 -11.0570  0.00  0.00     0.000 O
BRANCH 47 50
ATOM     48  C1  NAG B   4      13.515  39.408  -8.0800  0.00  0.00     0.000 C
ATOM     49  C2  NAG B   4      12.723  38.477  -8.9920  0.00  0.00     0.000 C
ATOM     50  C3  NAG B   4      13.624  37.789 -10.0050  0.00  0.00     0.000 C
ATOM     51  C4  NAG B   4      14.707  38.704 -10.5890  0.00  0.00     0.000 C
ATOM     52  C5  NAG B   4      15.615  39.248  -9.4990  0.00  0.00     0.000 C
ATOM     53  O5  NAG B   4      14.918  39.662  -8.3030  0.00  0.00     0.000 O
BRANCH 49 56
ATOM     54   N  NAG B   4      11.992  37.593  -8.0670  0.00  0.00     0.000 N
ATOM     56  HD  NAG B   4      11.216  37.756  -7.7190  0.00  0.00     0.000 HD
ATOM     56   C  NAG B   4      11.537  35.689  -6.6330  0.00  0.00     0.000 C
ATOM     57   O  NAG B   4      13.646  36.118  -7.5630  0.00  0.00     0.000 OA
ATOM     58   C  NAG B   4      12.489  36.496  -7.4610  0.00  0.00     0.000 C
ENDBRANCH 49 56
ATOM     59   O  NAG B   4      17.566  40.736  -9.2280  0.00  0.00     0.000 O
ATOM     61  HD  NAG B   4      16.706  40.635  -9.2330  0.00  0.00     0.000 HD
ATOM     61   O  NAG B   4      17.566  40.736  -9.2280  0.00  0.00     0.000 O
ATOM     63  HD  NAG B   4      16.706  40.635  -9.2330  0.00  0.00     0.000 HD
ENDBRANCH 47 50
ENDBRANCH 34 47
ENDBRANCH 33 37
ENDBRANCH 17 33
ENDBRANCH 16 19
ENDBRANCH 1 16
TORSDOF 10
ENDMDL
MODEL 82
REMARK VINA RESULT:      -6.5      5.953     12.833
ROOT
ATOM      1  C1  GCU B   1       5.757  25.510   1.1350  0.00  0.00     0.000 C
ATOM      2  C2  GCU B   1       6.515  26.140   2.2940  0.00  0.00     0.000 C
ATOM      3  C3  GCU B   1       7.210  25.069   3.1190  0.00  0.00     0.000 C
ATOM      4  C4  GCU B   1       6.222  23.980   3.5070  0.00  0.00     0.000 C
ATOM      5  C5  GCU B   1       5.470  23.457   2.2820  0.00  0.00     0.000 C
ATOM      6  O5  GCU B   1       4.809  24.553   1.6340  0.00  0.00     0.000 O
ATOM      7   O  GCU B   1       7.463  27.050   1.7460  0.00  0.00     0.000 O
ATOM      9  HD  GCU B   1       7.561  27.881   1.9690  0.00  0.00     0.000 HD
ATOM      9   O  GCU B   1       7.790  25.637   4.2960  0.00  0.00     0.000 O
ATOM     11  HD  GCU B   1       7.888  26.468   4.5190  0.00  0.00     0.000 HD
ATOM     11   O  GCU B   1       6.935  22.910   4.1300  0.00  0.00     0.000 O
ATOM     13  HD  GCU B   1       7.033  23.741   4.3530  0.00  0.00     0.000 HD
ENDROOT
BRANCH 5 13
ATOM     13   C  GCU B   1       4.508  22.370   2.6940  0.00  0.00     0.000 C
ATOM     14   O  GCU B   1       3.300  22.629   2.8700  0.00  0.00     0.000 OA
ATOM     15   O  GCU B   1       4.965  21.217   2.8210  0.00  0.00     0.000 OA
ENDBRANCH 5 13
BRANCH 1 16
ATOM     16  O3  NAG B   2       4.691  26.000   0.4990  0.00  0.00     0.000 O
BRANCH 16 19
ATOM     17  C1  NAG B   2       4.265  27.336  -3.0030  0.00  0.00     0.000 C
ATOM     18  C2  NAG B   2       4.857  27.228  -1.6030  0.00  0.00     0.000 C
ATOM     19  C3  NAG B   2       4.283  26.012  -0.8780  0.00  0.00     0.000 C
ATOM     20  C4  NAG B   2       2.755  26.039  -0.9210  0.00  0.00     0.000 C
ATOM     21  C5  NAG B   2       2.282  26.144  -2.3630  0.00  0.00     0.000 C
ATOM     22  O5  NAG B   2       2.830  27.340  -2.9470  0.00  0.00     0.000 O
ATOM     23   O  NAG B   2       2.265  24.846  -0.3000  0.00  0.00     0.000 O
ATOM     25  HD  NAG B   2       2.119  25.593   0.1120  0.00  0.00     0.000 HD
ATOM     25   C  NAG B   2       0.759  26.161  -2.4850  0.00  0.00     0.000 C
ATOM     26   O  NAG B   2       0.206  27.413  -2.0520  0.00  0.00     0.000 O
ATOM     28  HD  NAG B   2       0.060  28.161  -1.6400  0.00  0.00     0.000 HD
BRANCH 18 30
ATOM     28   N  NAG B   2       6.274  27.310  -1.9030  0.00  0.00     0.000 N
ATOM     30  HD  NAG B   2       6.180  27.861  -1.2410  0.00  0.00     0.000 HD
ATOM     30   C  NAG B   2       7.111  28.178  -1.3210  0.00  0.00     0.000 C
ATOM     31   C  NAG B   2       8.545  28.172  -1.7710  0.00  0.00     0.000 C
ATOM     32   O  NAG B   2       6.737  28.950  -0.4600  0.00  0.00     0.000 OA
ENDBRANCH 18 30
BRANCH 17 33
ATOM     33  O4  GCU B   3       4.817  28.518  -3.6180  0.00  0.00     0.000 O
BRANCH 33 37
ATOM     34  C1  GCU B   3       5.813  29.302  -7.5840  0.00  0.00     0.000 C
ATOM     35  C2  GCU B   3       4.363  29.535  -7.1570  0.00  0.00     0.000 C
ATOM     36  C3  GCU B   3       4.286  29.616  -5.6470  0.00  0.00     0.000 C
ATOM     37  C4  GCU B   3       4.903  28.365  -5.0360  0.00  0.00     0.000 C
ATOM     38  C5  GCU B   3       6.348  28.217  -5.5160  0.00  0.00     0.000 C
ATOM     39  O5  GCU B   3       6.347  28.139  -6.9460  0.00  0.00     0.000 O
ATOM     40   O  GCU B   3       3.899  30.754  -7.7410  0.00  0.00     0.000 O
ATOM     42  HD  GCU B   3       3.499  31.498  -7.5470  0.00  0.00     0.000 HD
ATOM     42   O  GCU B   3       2.925  29.763  -5.2050  0.00  0.00     0.000 O
ATOM     44  HD  GCU B   3       2.526  30.506  -5.0110  0.00  0.00     0.000 HD
BRANCH 38 44
ATOM     44   C  GCU B   3       7.018  26.981  -4.9700  0.00  0.00     0.000 C
ATOM     45   O  GCU B   3       6.365  25.929  -4.9090  0.00  0.00     0.000 OA
ATOM     46   O  GCU B   3       8.206  27.036  -4.5970  0.00  0.00     0.000 OA
ENDBRANCH 38 44
BRANCH 34 47
ATOM     47  O3  NAG B   4       5.837  29.029  -8.8810  0.00  0.00     0.000 O
BRANCH 47 50
ATOM     48  C1  NAG B   4       7.266  28.173 -12.1940  0.00  0.00     0.000 C
ATOM     49  C2  NAG B   4       6.885  29.045 -11.0030  0.00  0.00     0.000 C
ATOM     50  C3  NAG B   4       6.594  28.208  -9.7690  0.00  0.00     0.000 C
ATOM     51  C4  NAG B   4       5.812  26.922 -10.0650  0.00  0.00     0.000 C
ATOM     52  C5  NAG B   4       6.571  26.026 -11.0290  0.00  0.00     0.000 C
ATOM     53  O5  NAG B   4       7.198  26.733 -12.1220  0.00  0.00     0.000 O
BRANCH 49 56
ATOM     54   N  NAG B   4       8.179  29.522 -10.4840  0.00  0.00     0.000 N
ATOM     56  HD  NAG B   4       8.638  29.149  -9.8520  0.00  0.00     0.000 HD
ATOM     56   C  NAG B   4      10.124  30.945 -10.1990  0.00  0.00     0.000 C
ATOM     57   O  NAG B   4       8.245  31.577 -11.4520  0.00  0.00     0.000 OA
ATOM     58   C  NAG B   4       8.757  30.708 -10.7620  0.00  0.00     0.000 C
ENDBRANCH 49 56
ATOM     59   O  NAG B   4       6.332  23.857 -12.1840  0.00  0.00     0.000 O
ATOM     61  HD  NAG B   4       6.228  24.717 -12.1930  0.00  0.00     0.000 HD
ATOM     61   O  NAG B   4       6.332  23.857 -12.1840  0.00  0.00     0.000 O
ATOM     63  HD  NAG B   4       6.228  24.717 -12.1930  0.00  0.00     0.000 HD
ENDBRANCH 47 50
ENDBRANCH 34 47
ENDBRANCH 33 37
ENDBRANCH 17 33
ENDBRANCH 16 19
ENDBRANCH 1 16
TORSDOF 10
ENDMDL
MODEL 83
REMARK VINA RESULT:      -6.5      4.079     11.644
ROOT
ATOM      1  C1  GCU B   1       6.129  28.290  -0.7310  0.00  0.00     0.000 C
ATOM      2  C2  GCU B   1       6.143  28.241   0.7890  0.00  0.00     0.000 C
ATOM      3  C3  GCU B   1       6.987  27.074   1.2760  0.00  0.00     0.000 C
ATOM      4  C4  GCU B   1       6.551  25.788   0.5900  0.00  0.00     0.000 C
ATOM      5  C5  GCU B   1       6.512  25.961  -0.9290  0.00  0.00     0.000 C
ATOM      6  O5  GCU B   1       5.635  27.047  -1.2560  0.00  0.00     0.000 O
ATOM      7   O  GCU B   1       6.673  29.477   1.2560  0.00  0.00     0.000 O
ATOM      9  HD  GCU B   1       6.307  30.002   1.8400  0.00  0.00     0.000 HD
ATOM      9   O  GCU B   1       6.874  26.928   2.6940  0.00  0.00     0.000 O
ATOM     11  HD  GCU B   1       6.508  27.453   3.2770  0.00  0.00     0.000 HD
ATOM     11   O  GCU B   1       7.466  24.748   0.9350  0.00  0.00     0.000 O
ATOM     13  HD  GCU B   1       7.100  25.273   1.5180  0.00  0.00     0.000 HD
ENDROOT
BRANCH 5 13
ATOM     13   C  GCU B   1       6.090  24.667  -1.5830  0.00  0.00     0.000 C
ATOM     14   O  GCU B   1       4.898  24.481  -1.9050  0.00  0.00     0.000 OA
ATOM     15   O  GCU B   1       6.978  23.821  -1.8070  0.00  0.00     0.000 OA
ENDBRANCH 5 13
BRANCH 1 16
ATOM     16  O3  NAG B   2       5.189  28.816  -1.5200  0.00  0.00     0.000 O
BRANCH 16 19
ATOM     17  C1  NAG B   2       5.208  29.349  -5.2540  0.00  0.00     0.000 C
ATOM     18  C2  NAG B   2       5.723  29.423  -3.8220  0.00  0.00     0.000 C
ATOM     19  C3  NAG B   2       4.824  28.609  -2.8930  0.00  0.00     0.000 C
ATOM     20  C4  NAG B   2       3.364  29.028  -3.0650  0.00  0.00     0.000 C
ATOM     21  C5  NAG B   2       2.962  28.910  -4.5280  0.00  0.00     0.000 C
ATOM     22  O5  NAG B   2       3.828  29.744  -5.3170  0.00  0.00     0.000 O
ATOM     23   O  NAG B   2       2.554  28.188  -2.2350  0.00  0.00     0.000 O
ATOM     25  HD  NAG B   2       2.613  29.023  -2.0140  0.00  0.00     0.000 HD
ATOM     25   C  NAG B   2       1.506  29.298  -4.7730  0.00  0.00     0.000 C
ATOM     26   O  NAG B   2       1.311  30.717  -4.6760  0.00  0.00     0.000 O
ATOM     28  HD  NAG B   2       1.370  31.552  -4.4550  0.00  0.00     0.000 HD
BRANCH 18 30
ATOM     28   N  NAG B   2       6.923  30.237  -3.8770  0.00  0.00     0.000 N
ATOM     30  HD  NAG B   2       7.229  29.444  -3.7090  0.00  0.00     0.000 HD
ATOM     30   C  NAG B   2       8.146  29.783  -3.5770  0.00  0.00     0.000 C
ATOM     31   C  NAG B   2       9.286  30.761  -3.6380  0.00  0.00     0.000 C
ATOM     32   O  NAG B   2       8.341  28.626  -3.2620  0.00  0.00     0.000 OA
ENDBRANCH 18 30
BRANCH 17 33
ATOM     33  O4  GCU B   3       6.074  30.163  -6.0710  0.00  0.00     0.000 O
BRANCH 33 37
ATOM     34  C1  GCU B   3       7.125  29.838 -10.0860  0.00  0.00     0.000 C
ATOM     35  C2  GCU B   3       5.658  30.118  -9.7570  0.00  0.00     0.000 C
ATOM     36  C3  GCU B   3       5.545  30.618  -8.3320  0.00  0.00     0.000 C
ATOM     37  C4  GCU B   3       6.197  29.620  -7.3870  0.00  0.00     0.000 C
ATOM     38  C5  GCU B   3       7.658  29.406  -7.7910  0.00  0.00     0.000 C
ATOM     39  O5  GCU B   3       7.692  28.928  -9.1390  0.00  0.00     0.000 O
ATOM     40   O  GCU B   3       5.158  31.100 -10.6670  0.00  0.00     0.000 O
ATOM     42  HD  GCU B   3       4.725  31.849 -10.6950  0.00  0.00     0.000 HD
ATOM     42   O  GCU B   3       4.169  30.823  -7.9640  0.00  0.00     0.000 O
ATOM     44  HD  GCU B   3       3.736  31.572  -7.9920  0.00  0.00     0.000 HD
BRANCH 38 44
ATOM     44   C  GCU B   3       8.365  28.407  -6.9110  0.00  0.00     0.000 C
ATOM     45   O  GCU B   3       7.744  27.399  -6.5390  0.00  0.00     0.000 OA
ATOM     46   O  GCU B   3       9.549  28.605  -6.5780  0.00  0.00     0.000 OA
ENDBRANCH 38 44
BRANCH 34 47
ATOM     47  O3  NAG B   4       7.189  29.211 -11.2520  0.00  0.00     0.000 O
BRANCH 47 50
ATOM     48  C1  NAG B   4       7.737  30.086 -14.8150  0.00  0.00     0.000 C
ATOM     49  C2  NAG B   4       7.283  30.265 -13.3700  0.00  0.00     0.000 C
ATOM     50  C3  NAG B   4       7.974  29.279 -12.4420  0.00  0.00     0.000 C
ATOM     51  C4  NAG B   4       8.123  27.873 -13.0350  0.00  0.00     0.000 C
ATOM     52  C5  NAG B   4       8.933  27.901 -14.3200  0.00  0.00     0.000 C
ATOM     53  O5  NAG B   4       8.608  29.001 -15.1980  0.00  0.00     0.000 O
BRANCH 49 56
ATOM     54   N  NAG B   4       8.110  31.435 -13.0270  0.00  0.00     0.000 N
ATOM     56  HD  NAG B   4       8.971  31.436 -12.9380  0.00  0.00     0.000 HD
ATOM     56   C  NAG B   4       8.672  33.713 -12.4040  0.00  0.00     0.000 C
ATOM     57   O  NAG B   4       6.477  32.885 -12.3970  0.00  0.00     0.000 OA
ATOM     58   C  NAG B   4       7.654  32.631 -12.6040  0.00  0.00     0.000 C
ENDBRANCH 49 56
ATOM     59   O  NAG B   4       9.762  26.368 -16.0690  0.00  0.00     0.000 O
ATOM     61  HD  NAG B   4       9.147  26.911 -15.7900  0.00  0.00     0.000 HD
ATOM     61   O  NAG B   4       9.762  26.368 -16.0690  0.00  0.00     0.000 O
ATOM     63  HD  NAG B   4       9.147  26.911 -15.7900  0.00  0.00     0.000 HD
ENDBRANCH 47 50
ENDBRANCH 34 47
ENDBRANCH 33 37
ENDBRANCH 17 33
ENDBRANCH 16 19
ENDBRANCH 1 16
TORSDOF 10
ENDMDL
MODEL 84
REMARK VINA RESULT:      -6.5      5.052      8.275
ROOT
ATOM      1  C1  GCU B   1      10.199  31.283  -4.0740  0.00  0.00     0.000 C
ATOM      2  C2  GCU B   1      11.492  30.745  -3.4810  0.00  0.00     0.000 C
ATOM      3  C3  GCU B   1      12.339  31.882  -2.9330  0.00  0.00     0.000 C
ATOM      4  C4  GCU B   1      12.511  32.965  -3.9870  0.00  0.00     0.000 C
ATOM      5  C5  GCU B   1      11.159  33.392  -4.5630  0.00  0.00     0.000 C
ATOM      6  O5  GCU B   1      10.494  32.242  -5.1020  0.00  0.00     0.000 O
ATOM      7   O  GCU B   1      11.145  29.830  -2.4460  0.00  0.00     0.000 O
ATOM      9  HD  GCU B   1      11.432  29.017  -2.3660  0.00  0.00     0.000 HD
ATOM      9   O  GCU B   1      13.621  31.402  -2.5190  0.00  0.00     0.000 O
ATOM     11  HD  GCU B   1      13.908  30.589  -2.4390  0.00  0.00     0.000 HD
ATOM     11   O  GCU B   1      13.160  34.089  -3.3930  0.00  0.00     0.000 O
ATOM     13  HD  GCU B   1      13.447  33.276  -3.3130  0.00  0.00     0.000 HD
ENDROOT
BRANCH 5 13
ATOM     13   C  GCU B   1      11.359  34.475  -5.5950  0.00  0.00     0.000 C
ATOM     14   O  GCU B   1      12.432  34.553  -6.2290  0.00  0.00     0.000 OA
ATOM     15   O  GCU B   1      10.410  35.255  -5.7990  0.00  0.00     0.000 OA
ENDBRANCH 5 13
BRANCH 1 16
ATOM     16  O3  NAG B   2       9.447  30.726  -5.0270  0.00  0.00     0.000 O
BRANCH 16 19
ATOM     17  C1  NAG B   2       6.021  29.150  -4.9950  0.00  0.00     0.000 C
ATOM     18  C2  NAG B   2       7.481  29.344  -4.6070  0.00  0.00     0.000 C
ATOM     19  C3  NAG B   2       8.030  30.625  -5.2330  0.00  0.00     0.000 C
ATOM     20  C4  NAG B   2       7.766  30.636  -6.7380  0.00  0.00     0.000 C
ATOM     21  C5  NAG B   2       6.281  30.439  -7.0030  0.00  0.00     0.000 C
ATOM     22  O5  NAG B   2       5.866  29.190  -6.4230  0.00  0.00     0.000 O
ATOM     23   O  NAG B   2       8.226  31.885  -7.2670  0.00  0.00     0.000 O
ATOM     25  HD  NAG B   2       8.662  31.174  -7.4990  0.00  0.00     0.000 HD
ATOM     25   C  NAG B   2       5.939  30.456  -8.4920  0.00  0.00     0.000 C
ATOM     26   O  NAG B   2       6.372  29.255  -9.1490  0.00  0.00     0.000 O
ATOM     28  HD  NAG B   2       6.808  28.543  -9.3810  0.00  0.00     0.000 HD
BRANCH 18 30
ATOM     28   N  NAG B   2       7.334  29.125  -3.1810  0.00  0.00     0.000 N
ATOM     30  HD  NAG B   2       8.083  28.731  -3.3640  0.00  0.00     0.000 HD
ATOM     30   C  NAG B   2       8.154  28.355  -2.4550  0.00  0.00     0.000 C
ATOM     31   C  NAG B   2       7.844  28.190  -0.9940  0.00  0.00     0.000 C
ATOM     32   O  NAG B   2       9.117  27.802  -2.9480  0.00  0.00     0.000 OA
ENDBRANCH 18 30
BRANCH 17 33
ATOM     33  O4  GCU B   3       5.575  27.912  -4.4060  0.00  0.00     0.000 O
BRANCH 33 37
ATOM     34  C1  GCU B   3       1.762  26.638  -3.3220  0.00  0.00     0.000 C
ATOM     35  C2  GCU B   3       2.194  26.430  -4.7740  0.00  0.00     0.000 C
ATOM     36  C3  GCU B   3       3.700  26.546  -4.8770  0.00  0.00     0.000 C
ATOM     37  C4  GCU B   3       4.151  27.879  -4.2970  0.00  0.00     0.000 C
ATOM     38  C5  GCU B   3       3.677  27.996  -2.8470  0.00  0.00     0.000 C
ATOM     39  O5  GCU B   3       2.250  27.886  -2.8230  0.00  0.00     0.000 O
ATOM     40   O  GCU B   3       1.768  25.135  -5.2030  0.00  0.00     0.000 O
ATOM     42  HD  GCU B   3       2.051  24.414  -5.5900  0.00  0.00     0.000 HD
ATOM     42   O  GCU B   3       4.136  26.428  -6.2430  0.00  0.00     0.000 O
ATOM     44  HD  GCU B   3       4.420  25.707  -6.6300  0.00  0.00     0.000 HD
BRANCH 38 44
ATOM     44   C  GCU B   3       4.067  29.307  -2.2110  0.00  0.00     0.000 C
ATOM     45   O  GCU B   3       3.716  30.362  -2.7630  0.00  0.00     0.000 OA
ATOM     46   O  GCU B   3       4.724  29.310  -1.1530  0.00  0.00     0.000 OA
ENDBRANCH 38 44
BRANCH 34 47
ATOM     47  O3  NAG B   4       0.441  26.739  -3.2790  0.00  0.00     0.000 O
BRANCH 47 50
ATOM     48  C1  NAG B   4      -3.167  26.126  -2.6820  0.00  0.00     0.000 C
ATOM     49  C2  NAG B   4      -1.914  26.556  -3.4360  0.00  0.00     0.000 C
ATOM     50  C3  NAG B   4      -0.660  25.956  -2.8210  0.00  0.00     0.000 C
ATOM     51  C4  NAG B   4      -0.670  25.941  -1.2880  0.00  0.00     0.000 C
ATOM     52  C5  NAG B   4      -1.844  25.137  -0.7530  0.00  0.00     0.000 C
ATOM     53  O5  NAG B   4      -3.084  25.362  -1.4610  0.00  0.00     0.000 O
BRANCH 49 56
ATOM     54   N  NAG B   4      -1.899  25.649  -4.5960  0.00  0.00     0.000 N
ATOM     56  HD  NAG B   4      -1.520  24.871  -4.6250  0.00  0.00     0.000 HD
ATOM     56   C  NAG B   4      -2.283  24.849  -6.8550  0.00  0.00     0.000 C
ATOM     57   O  NAG B   4      -2.669  27.066  -6.1980  0.00  0.00     0.000 OA
ATOM     58   C  NAG B   4      -2.293  25.957  -5.8480  0.00  0.00     0.000 C
ENDBRANCH 49 56
ATOM     59   O  NAG B   4      -2.854  24.462   1.3960  0.00  0.00     0.000 O
ATOM     61  HD  NAG B   4      -2.821  25.022   0.7360  0.00  0.00     0.000 HD
ATOM     61   O  NAG B   4      -2.854  24.462   1.3960  0.00  0.00     0.000 O
ATOM     63  HD  NAG B   4      -2.821  25.022   0.7360  0.00  0.00     0.000 HD
ENDBRANCH 47 50
ENDBRANCH 34 47
ENDBRANCH 33 37
ENDBRANCH 17 33
ENDBRANCH 16 19
ENDBRANCH 1 16
TORSDOF 10
ENDMDL
MODEL 85
REMARK VINA RESULT:      -6.5      4.587      7.083
ROOT
ATOM      1  C1  GCU B   1      10.001  32.320 -10.9500  0.00  0.00     0.000 C
ATOM      2  C2  GCU B   1      10.566  32.585 -12.3370  0.00  0.00     0.000 C
ATOM      3  C3  GCU B   1      11.435  33.833 -12.3270  0.00  0.00     0.000 C
ATOM      4  C4  GCU B   1      10.679  34.995 -11.7020  0.00  0.00     0.000 C
ATOM      5  C5  GCU B   1      10.100  34.606 -10.3410  0.00  0.00     0.000 C
ATOM      6  O5  GCU B   1       9.253  33.461 -10.5010  0.00  0.00     0.000 O
ATOM      7   O  GCU B   1      11.327  31.444 -12.7200  0.00  0.00     0.000 O
ATOM      9  HD  GCU B   1      11.242  30.997 -13.4570  0.00  0.00     0.000 HD
ATOM      9   O  GCU B   1      11.839  34.177 -13.6550  0.00  0.00     0.000 O
ATOM     11  HD  GCU B   1      11.754  33.730 -14.3920  0.00  0.00     0.000 HD
ATOM     11   O  GCU B   1      11.572  36.099 -11.5500  0.00  0.00     0.000 O
ATOM     13  HD  GCU B   1      11.488  35.653 -12.2870  0.00  0.00     0.000 HD
ENDROOT
BRANCH 5 13
ATOM     13   C  GCU B   1       9.368  35.782  -9.7390  0.00  0.00     0.000 C
ATOM     14   O  GCU B   1       9.945  36.538  -8.9300  0.00  0.00     0.000 OA
ATOM     15   O  GCU B   1       8.192  35.973 -10.1030  0.00  0.00     0.000 OA
ENDBRANCH 5 13
BRANCH 1 16
ATOM     16  O3  NAG B   2       8.882  31.661 -10.6400  0.00  0.00     0.000 O
BRANCH 16 19
ATOM     17  C1  NAG B   2       7.966  29.999  -7.3810  0.00  0.00     0.000 C
ATOM     18  C2  NAG B   2       8.833  30.349  -8.5830  0.00  0.00     0.000 C
ATOM     19  C3  NAG B   2       8.170  31.448  -9.4110  0.00  0.00     0.000 C
ATOM     20  C4  NAG B   2       6.732  31.061  -9.7560  0.00  0.00     0.000 C
ATOM     21  C5  NAG B   2       5.965  30.738  -8.4820  0.00  0.00     0.000 C
ATOM     22  O5  NAG B   2       6.633  29.664  -7.7970  0.00  0.00     0.000 O
ATOM     23   O  NAG B   2       6.129  32.151 -10.4630  0.00  0.00     0.000 O
ATOM     25  HD  NAG B   2       6.275  31.423 -10.9090  0.00  0.00     0.000 HD
ATOM     25   C  NAG B   2       4.511  30.357  -8.7490  0.00  0.00     0.000 C
ATOM     26   O  NAG B   2       4.403  29.047  -9.3270  0.00  0.00     0.000 O
ATOM     28  HD  NAG B   2       4.549  28.319  -9.7730  0.00  0.00     0.000 HD
BRANCH 18 30
ATOM     28   N  NAG B   2      10.012  29.509  -8.5020  0.00  0.00     0.000 N
ATOM     30  HD  NAG B   2      10.316  30.295  -8.3040  0.00  0.00     0.000 HD
ATOM     30   C  NAG B   2      11.250  29.977  -8.3020  0.00  0.00     0.000 C
ATOM     31   C  NAG B   2      12.378  28.983  -8.2860  0.00  0.00     0.000 C
ATOM     32   O  NAG B   2      11.469  31.161  -8.1400  0.00  0.00     0.000 OA
ENDBRANCH 18 30
BRANCH 17 33
ATOM     33  O4  GCU B   3       8.626  28.936  -6.6630  0.00  0.00     0.000 O
BRANCH 33 37
ATOM     34  C1  GCU B   3       8.608  27.951  -2.6180  0.00  0.00     0.000 C
ATOM     35  C2  GCU B   3       7.410  27.511  -3.4610  0.00  0.00     0.000 C
ATOM     36  C3  GCU B   3       7.775  27.568  -4.9290  0.00  0.00     0.000 C
ATOM     37  C4  GCU B   3       8.281  28.961  -5.2770  0.00  0.00     0.000 C
ATOM     38  C5  GCU B   3       9.476  29.311  -4.3890  0.00  0.00     0.000 C
ATOM     39  O5  GCU B   3       9.061  29.246  -3.0200  0.00  0.00     0.000 O
ATOM     40   O  GCU B   3       7.048  26.179  -3.0930  0.00  0.00     0.000 O
ATOM     42  HD  GCU B   3       6.872  25.400  -3.4280  0.00  0.00     0.000 HD
ATOM     42   O  GCU B   3       6.647  27.230  -5.7570  0.00  0.00     0.000 O
ATOM     44  HD  GCU B   3       6.471  26.451  -6.0920  0.00  0.00     0.000 HD
BRANCH 38 44
ATOM     44   C  GCU B   3      10.018  30.692  -4.6600  0.00  0.00     0.000 C
ATOM     45   O  GCU B   3      11.218  30.813  -4.9490  0.00  0.00     0.000 OA
ATOM     46   O  GCU B   3       9.259  31.677  -4.5920  0.00  0.00     0.000 OA
ENDBRANCH 38 44
BRANCH 34 47
ATOM     47  O3  NAG B   4       8.215  28.095  -1.3610  0.00  0.00     0.000 O
BRANCH 47 50
ATOM     48  C1  NAG B   4       5.579  28.825   1.1440  0.00  0.00     0.000 C
ATOM     49  C2  NAG B   4       6.484  29.054  -0.0620  0.00  0.00     0.000 C
ATOM     50  C3  NAG B   4       7.081  27.750  -0.5660  0.00  0.00     0.000 C
ATOM     51  C4  NAG B   4       7.514  26.795   0.5520  0.00  0.00     0.000 C
ATOM     52  C5  NAG B   4       6.340  26.420   1.4410  0.00  0.00     0.000 C
ATOM     53  O5  NAG B   4       5.466  27.526   1.7620  0.00  0.00     0.000 O
BRANCH 49 56
ATOM     54   N  NAG B   4       5.374  29.227  -1.0160  0.00  0.00     0.000 N
ATOM     56  HD  NAG B   4       4.699  28.693  -1.1080  0.00  0.00     0.000 HD
ATOM     56   C  NAG B   4       4.056  30.189  -2.8130  0.00  0.00     0.000 C
ATOM     57   O  NAG B   4       6.241  30.881  -2.3120  0.00  0.00     0.000 OA
ATOM     58   C  NAG B   4       5.328  30.121  -2.0230  0.00  0.00     0.000 C
ENDBRANCH 49 56
ATOM     59   O  NAG B   4       5.838  25.063   3.4410  0.00  0.00     0.000 O
ATOM     61  HD  NAG B   4       6.052  25.830   3.1010  0.00  0.00     0.000 HD
ATOM     61   O  NAG B   4       5.838  25.063   3.4410  0.00  0.00     0.000 O
ATOM     63  HD  NAG B   4       6.052  25.830   3.1010  0.00  0.00     0.000 HD
ENDBRANCH 47 50
ENDBRANCH 34 47
ENDBRANCH 33 37
ENDBRANCH 17 33
ENDBRANCH 16 19
ENDBRANCH 1 16
TORSDOF 10
ENDMDL
MODEL 86
REMARK VINA RESULT:      -6.5      4.513      7.388
ROOT
ATOM      1  C1  GCU B   1       9.794  32.014  -5.7600  0.00  0.00     0.000 C
ATOM      2  C2  GCU B   1      11.300  31.971  -5.5470  0.00  0.00     0.000 C
ATOM      3  C3  GCU B   1      11.757  33.176  -4.7390  0.00  0.00     0.000 C
ATOM      4  C4  GCU B   1      11.227  34.458  -5.3610  0.00  0.00     0.000 C
ATOM      5  C5  GCU B   1       9.717  34.375  -5.5900  0.00  0.00     0.000 C
ATOM      6  O5  GCU B   1       9.428  33.239  -6.4150  0.00  0.00     0.000 O
ATOM      7   O  GCU B   1      11.606  30.760  -4.8640  0.00  0.00     0.000 O
ATOM      9  HD  GCU B   1      12.192  30.170  -5.1070  0.00  0.00     0.000 HD
ATOM      9   O  GCU B   1      13.185  33.225  -4.6720  0.00  0.00     0.000 O
ATOM     11  HD  GCU B   1      13.771  32.635  -4.9150  0.00  0.00     0.000 HD
ATOM     11   O  GCU B   1      11.525  35.551  -4.4920  0.00  0.00     0.000 O
ATOM     13  HD  GCU B   1      12.111  34.962  -4.7350  0.00  0.00     0.000 HD
ENDROOT
BRANCH 5 13
ATOM     13   C  GCU B   1       9.217  35.665  -6.1940  0.00  0.00     0.000 C
ATOM     14   O  GCU B   1       9.407  35.911  -7.4030  0.00  0.00     0.000 OA
ATOM     15   O  GCU B   1       8.592  36.444  -5.4490  0.00  0.00     0.000 OA
ENDBRANCH 5 13
BRANCH 1 16
ATOM     16  O3  NAG B   2       9.097  31.458  -6.7530  0.00  0.00     0.000 O
BRANCH 16 19
ATOM     17  C1  NAG B   2       6.182  29.070  -6.5820  0.00  0.00     0.000 C
ATOM     18  C2  NAG B   2       7.572  29.613  -6.2770  0.00  0.00     0.000 C
ATOM     19  C3  NAG B   2       7.738  31.009  -6.8750  0.00  0.00     0.000 C
ATOM     20  C4  NAG B   2       7.372  31.000  -8.3580  0.00  0.00     0.000 C
ATOM     21  C5  NAG B   2       5.966  30.444  -8.5390  0.00  0.00     0.000 C
ATOM     22  O5  NAG B   2       5.919  29.114  -7.9930  0.00  0.00     0.000 O
ATOM     23   O  NAG B   2       7.467  32.340  -8.8550  0.00  0.00     0.000 O
ATOM     25  HD  NAG B   2       8.048  31.768  -9.1470  0.00  0.00     0.000 HD
ATOM     25   C  NAG B   2       5.524  30.420 -10.0000  0.00  0.00     0.000 C
ATOM     26   O  NAG B   2       6.193  29.386 -10.7400  0.00  0.00     0.000 O
ATOM     28  HD  NAG B   2       6.774  28.814 -11.0320  0.00  0.00     0.000 HD
BRANCH 18 30
ATOM     28   N  NAG B   2       8.341  28.641  -5.5240  0.00  0.00     0.000 N
ATOM     30  HD  NAG B   2       8.075  29.197  -4.9150  0.00  0.00     0.000 HD
ATOM     30   C  NAG B   2       8.624  28.761  -4.2210  0.00  0.00     0.000 C
ATOM     31   C  NAG B   2       9.471  27.691  -3.5900  0.00  0.00     0.000 C
ATOM     32   O  NAG B   2       8.219  29.697  -3.5610  0.00  0.00     0.000 OA
ENDBRANCH 18 30
BRANCH 17 33
ATOM     33  O4  GCU B   3       6.101  27.743  -6.0250  0.00  0.00     0.000 O
BRANCH 33 37
ATOM     34  C1  GCU B   3       2.808  25.419  -4.9820  0.00  0.00     0.000 C
ATOM     35  C2  GCU B   3       3.222  25.443  -6.4540  0.00  0.00     0.000 C
ATOM     36  C3  GCU B   3       4.638  25.965  -6.5740  0.00  0.00     0.000 C
ATOM     37  C4  GCU B   3       4.742  27.323  -5.8940  0.00  0.00     0.000 C
ATOM     38  C5  GCU B   3       4.312  27.200  -4.4300  0.00  0.00     0.000 C
ATOM     39  O5  GCU B   3       2.967  26.711  -4.3900  0.00  0.00     0.000 O
ATOM     40   O  GCU B   3       3.137  24.117  -6.9810  0.00  0.00     0.000 O
ATOM     42  HD  GCU B   3       3.586  23.530  -7.4310  0.00  0.00     0.000 HD
ATOM     42   O  GCU B   3       5.036  26.070  -7.9520  0.00  0.00     0.000 O
ATOM     44  HD  GCU B   3       5.485  25.483  -8.4030  0.00  0.00     0.000 HD
BRANCH 38 44
ATOM     44   C  GCU B   3       4.365  28.516  -3.6960  0.00  0.00     0.000 C
ATOM     45   O  GCU B   3       5.157  28.636  -2.7490  0.00  0.00     0.000 OA
ATOM     46   O  GCU B   3       3.624  29.452  -4.0510  0.00  0.00     0.000 OA
ENDBRANCH 38 44
BRANCH 34 47
ATOM     47  O3  NAG B   4       1.510  25.160  -4.9070  0.00  0.00     0.000 O
BRANCH 47 50
ATOM     48  C1  NAG B   4      -1.101  24.936  -2.2830  0.00  0.00     0.000 C
ATOM     49  C2  NAG B   4       0.289  24.844  -2.9050  0.00  0.00     0.000 C
ATOM     50  C3  NAG B   4       0.379  25.651  -4.1900  0.00  0.00     0.000 C
ATOM     51  C4  NAG B   4      -0.869  25.547  -5.0730  0.00  0.00     0.000 C
ATOM     52  C5  NAG B   4      -2.106  26.037  -4.3390  0.00  0.00     0.000 C
ATOM     53  O5  NAG B   4      -2.184  25.606  -2.9620  0.00  0.00     0.000 O
BRANCH 49 56
ATOM     54   N  NAG B   4       0.931  25.800  -1.9850  0.00  0.00     0.000 N
ATOM     56  HD  NAG B   4       0.684  26.619  -1.8540  0.00  0.00     0.000 HD
ATOM     56   C  NAG B   4       2.529  26.688  -0.3890  0.00  0.00     0.000 C
ATOM     57   O  NAG B   4       2.837  24.654  -1.5150  0.00  0.00     0.000 OA
ATOM     58   C  NAG B   4       2.111  25.624  -1.3570  0.00  0.00     0.000 C
ENDBRANCH 49 56
ATOM     59   O  NAG B   4      -4.533  26.314  -4.6950  0.00  0.00     0.000 O
ATOM     61  HD  NAG B   4      -3.877  25.826  -4.4100  0.00  0.00     0.000 HD
ATOM     61   O  NAG B   4      -4.533  26.314  -4.6950  0.00  0.00     0.000 O
ATOM     63  HD  NAG B   4      -3.877  25.826  -4.4100  0.00  0.00     0.000 HD
ENDBRANCH 47 50
ENDBRANCH 34 47
ENDBRANCH 33 37
ENDBRANCH 17 33
ENDBRANCH 16 19
ENDBRANCH 1 16
TORSDOF 10
ENDMDL
MODEL 87
REMARK VINA RESULT:      -6.4      1.961      3.190
ROOT
ATOM      1  C1  GCU B   1      10.374  32.943 -12.4180  0.00  0.00     0.000 C
ATOM      2  C2  GCU B   1      11.334  33.681 -13.3380  0.00  0.00     0.000 C
ATOM      3  C3  GCU B   1      10.664  33.992 -14.6670  0.00  0.00     0.000 C
ATOM      4  C4  GCU B   1      10.047  32.731 -15.2520  0.00  0.00     0.000 C
ATOM      5  C5  GCU B   1       9.150  32.033 -14.2290  0.00  0.00     0.000 C
ATOM      6  O5  GCU B   1       9.917  31.739 -13.0540  0.00  0.00     0.000 O
ATOM      7   O  GCU B   1      11.728  34.881 -12.6790  0.00  0.00     0.000 O
ATOM      9  HD  GCU B   1      12.541  35.148 -12.5460  0.00  0.00     0.000 HD
ATOM      9   O  GCU B   1      11.607  34.543 -15.5900  0.00  0.00     0.000 O
ATOM     11  HD  GCU B   1      12.420  34.810 -15.4580  0.00  0.00     0.000 HD
ATOM     11   O  GCU B   1       9.282  33.084 -16.4060  0.00  0.00     0.000 O
ATOM     13  HD  GCU B   1      10.095  33.351 -16.2730  0.00  0.00     0.000 HD
ENDROOT
BRANCH 5 13
ATOM     13   C  GCU B   1       8.541  30.794 -14.8410  0.00  0.00     0.000 C
ATOM     14   O  GCU B   1       7.446  30.358 -14.4290  0.00  0.00     0.000 OA
ATOM     15   O  GCU B   1       9.159  30.254 -15.7800  0.00  0.00     0.000 OA
ENDBRANCH 5 13
BRANCH 1 16
ATOM     16  O3  NAG B   2      10.682  32.112 -11.4190  0.00  0.00     0.000 O
BRANCH 16 19
ATOM     17  C1  NAG B   2       8.206  30.621  -8.9960  0.00  0.00     0.000 C
ATOM     18  C2  NAG B   2       8.845  31.693  -9.8690  0.00  0.00     0.000 C
ATOM     19  C3  NAG B   2       9.952  31.086 -10.7290  0.00  0.00     0.000 C
ATOM     20  C4  NAG B   2      10.937  30.308  -9.8570  0.00  0.00     0.000 C
ATOM     21  C5  NAG B   2      10.188  29.267  -9.0370  0.00  0.00     0.000 C
ATOM     22  O5  NAG B   2       9.204  29.932  -8.2260  0.00  0.00     0.000 O
ATOM     23   O  NAG B   2      11.908  29.694 -10.7110  0.00  0.00     0.000 O
ATOM     25  HD  NAG B   2      12.184  30.332 -10.1940  0.00  0.00     0.000 HD
ATOM     25   C  NAG B   2      11.113  28.436  -8.1500  0.00  0.00     0.000 C
ATOM     26   O  NAG B   2      11.595  29.194  -7.0300  0.00  0.00     0.000 O
ATOM     28  HD  NAG B   2      11.870  29.832  -6.5120  0.00  0.00     0.000 HD
BRANCH 18 30
ATOM     28   N  NAG B   2       7.665  32.277 -10.4790  0.00  0.00     0.000 N
ATOM     30  HD  NAG B   2       8.122  32.969 -10.2300  0.00  0.00     0.000 HD
ATOM     30   C  NAG B   2       7.391  33.587 -10.4680  0.00  0.00     0.000 C
ATOM     31   C  NAG B   2       6.105  34.035 -11.1040  0.00  0.00     0.000 C
ATOM     32   O  NAG B   2       8.145  34.396  -9.9640  0.00  0.00     0.000 OA
ENDBRANCH 18 30
BRANCH 17 33
ATOM     33  O4  GCU B   3       7.199  31.260  -8.1870  0.00  0.00     0.000 O
BRANCH 33 37
ATOM     34  C1  GCU B   3       3.967  29.683  -6.0880  0.00  0.00     0.000 C
ATOM     35  C2  GCU B   3       5.365  29.465  -5.5090  0.00  0.00     0.000 C
ATOM     36  C3  GCU B   3       6.335  30.439  -6.1420  0.00  0.00     0.000 C
ATOM     37  C4  GCU B   3       6.281  30.303  -7.6570  0.00  0.00     0.000 C
ATOM     38  C5  GCU B   3       4.850  30.540  -8.1440  0.00  0.00     0.000 C
ATOM     39  O5  GCU B   3       3.990  29.584  -7.5150  0.00  0.00     0.000 O
ATOM     40   O  GCU B   3       5.316  29.665  -4.0940  0.00  0.00     0.000 O
ATOM     42  HD  GCU B   3       5.712  30.085  -3.4480  0.00  0.00     0.000 HD
ATOM     42   O  GCU B   3       7.676  30.213  -5.6730  0.00  0.00     0.000 O
ATOM     44  HD  GCU B   3       8.072  30.633  -5.0270  0.00  0.00     0.000 HD
BRANCH 38 44
ATOM     44   C  GCU B   3       4.713  30.395  -9.6390  0.00  0.00     0.000 C
ATOM     45   O  GCU B   3       5.335  29.485 -10.2070  0.00  0.00     0.000 OA
ATOM     46   O  GCU B   3       3.981  31.181 -10.2710  0.00  0.00     0.000 OA
ENDBRANCH 38 44
BRANCH 34 47
ATOM     47  O3  NAG B   4       3.178  28.698  -5.6840  0.00  0.00     0.000 O
BRANCH 47 50
ATOM     48  C1  NAG B   4      -0.336  27.516  -5.7980  0.00  0.00     0.000 C
ATOM     49  C2  NAG B   4       1.181  27.453  -5.9420  0.00  0.00     0.000 C
ATOM     50  C3  NAG B   4       1.863  28.556  -5.1490  0.00  0.00     0.000 C
ATOM     51  C4  NAG B   4       1.137  29.905  -5.2160  0.00  0.00     0.000 C
ATOM     52  C5  NAG B   4      -0.280  29.795  -4.6780  0.00  0.00     0.000 C
ATOM     53  O5  NAG B   4      -0.978  28.601  -5.0960  0.00  0.00     0.000 O
BRANCH 49 56
ATOM     54   N  NAG B   4       1.627  26.405  -5.0080  0.00  0.00     0.000 N
ATOM     56  HD  NAG B   4       1.979  26.538  -4.2280  0.00  0.00     0.000 HD
ATOM     56   C  NAG B   4       2.127  24.187  -4.1580  0.00  0.00     0.000 C
ATOM     57   O  NAG B   4       1.547  24.603  -6.3920  0.00  0.00     0.000 OA
ATOM     58   C  NAG B   4       1.747  25.092  -5.2890  0.00  0.00     0.000 C
ENDBRANCH 49 56
ATOM     59   O  NAG B   4      -2.283  31.193  -4.3210  0.00  0.00     0.000 O
ATOM     61  HD  NAG B   4      -1.839  30.650  -4.8290  0.00  0.00     0.000 HD
ATOM     61   O  NAG B   4      -2.283  31.193  -4.3210  0.00  0.00     0.000 O
ATOM     63  HD  NAG B   4      -1.839  30.650  -4.8290  0.00  0.00     0.000 HD
ENDBRANCH 47 50
ENDBRANCH 34 47
ENDBRANCH 33 37
ENDBRANCH 17 33
ENDBRANCH 16 19
ENDBRANCH 1 16
TORSDOF 10
ENDMDL
MODEL 88
REMARK VINA RESULT:      -6.4      8.920     14.305
ROOT
ATOM      1  C1  GCU B   1      14.341  24.061  -1.7430  0.00  0.00     0.000 C
ATOM      2  C2  GCU B   1      15.034  23.259  -0.6530  0.00  0.00     0.000 C
ATOM      3  C3  GCU B   1      15.606  21.971  -1.2220  0.00  0.00     0.000 C
ATOM      4  C4  GCU B   1      14.537  21.219  -1.9990  0.00  0.00     0.000 C
ATOM      5  C5  GCU B   1      13.861  22.129  -3.0260  0.00  0.00     0.000 C
ATOM      6  O5  GCU B   1      13.309  23.268  -2.3530  0.00  0.00     0.000 O
ATOM      7   O  GCU B   1      16.067  24.073  -0.1080  0.00  0.00     0.000 O
ATOM      9  HD  GCU B   1      16.189  24.251   0.7310  0.00  0.00     0.000 HD
ATOM      9   O  GCU B   1      16.118  21.141  -0.1760  0.00  0.00     0.000 O
ATOM     11  HD  GCU B   1      16.239  21.319   0.6620  0.00  0.00     0.000 HD
ATOM     11   O  GCU B   1      15.143  20.108  -2.6630  0.00  0.00     0.000 O
ATOM     13  HD  GCU B   1      15.264  20.287  -1.8240  0.00  0.00     0.000 HD
ENDROOT
BRANCH 5 13
ATOM     13   C  GCU B   1      12.815  21.353  -3.7910  0.00  0.00     0.000 C
ATOM     14   O  GCU B   1      12.062  20.554  -3.1970  0.00  0.00     0.000 OA
ATOM     15   O  GCU B   1      12.724  21.567  -5.0150  0.00  0.00     0.000 OA
ENDBRANCH 5 13
BRANCH 1 16
ATOM     16  O3  NAG B   2      13.355  24.949  -1.5980  0.00  0.00     0.000 O
BRANCH 16 19
ATOM     17  C1  NAG B   2      12.933  28.453  -2.9300  0.00  0.00     0.000 C
ATOM     18  C2  NAG B   2      13.604  27.303  -2.1900  0.00  0.00     0.000 C
ATOM     19  C3  NAG B   2      12.843  26.001  -2.4310  0.00  0.00     0.000 C
ATOM     20  C4  NAG B   2      11.360  26.184  -2.1090  0.00  0.00     0.000 C
ATOM     21  C5  NAG B   2      10.799  27.352  -2.9070  0.00  0.00     0.000 C
ATOM     22  O5  NAG B   2      11.542  28.539  -2.5790  0.00  0.00     0.000 O
ATOM     23   O  NAG B   2      10.677  24.965  -2.4230  0.00  0.00     0.000 O
ATOM     25  HD  NAG B   2      10.733  25.182  -1.5870  0.00  0.00     0.000 HD
ATOM     25   C  NAG B   2       9.312  27.585  -2.6470  0.00  0.00     0.000 C
ATOM     26   O  NAG B   2       9.084  28.162  -1.3520  0.00  0.00     0.000 O
ATOM     28  HD  NAG B   2       9.141  28.378  -0.5150  0.00  0.00     0.000 HD
BRANCH 18 30
ATOM     28   N  NAG B   2      14.949  27.649  -2.6080  0.00  0.00     0.000 N
ATOM     30  HD  NAG B   2      15.069  27.302  -1.8240  0.00  0.00     0.000 HD
ATOM     30   C  NAG B   2      16.026  27.542  -1.8200  0.00  0.00     0.000 C
ATOM     31   C  NAG B   2      17.348  27.983  -2.3830  0.00  0.00     0.000 C
ATOM     32   O  NAG B   2      15.951  27.108  -0.6880  0.00  0.00     0.000 OA
ENDBRANCH 18 30
BRANCH 17 33
ATOM     33  O4  GCU B   3      13.674  29.654  -2.6350  0.00  0.00     0.000 O
BRANCH 33 37
ATOM     34  C1  GCU B   3      13.944  33.246  -4.7220  0.00  0.00     0.000 C
ATOM     35  C2  GCU B   3      12.829  33.109  -3.6850  0.00  0.00     0.000 C
ATOM     36  C3  GCU B   3      13.139  31.956  -2.7550  0.00  0.00     0.000 C
ATOM     37  C4  GCU B   3      13.366  30.690  -3.5690  0.00  0.00     0.000 C
ATOM     38  C5  GCU B   3      14.497  30.919  -4.5730  0.00  0.00     0.000 C
ATOM     39  O5  GCU B   3      14.137  32.014  -5.4230  0.00  0.00     0.000 O
ATOM     40   O  GCU B   3      12.732  34.329  -2.9450  0.00  0.00     0.000 O
ATOM     42  HD  GCU B   3      12.697  34.638  -2.1370  0.00  0.00     0.000 HD
ATOM     42   O  GCU B   3      12.073  31.752  -1.8090  0.00  0.00     0.000 O
ATOM     44  HD  GCU B   3      12.038  32.062  -1.0010  0.00  0.00     0.000 HD
BRANCH 38 44
ATOM     44   C  GCU B   3      14.763  29.712  -5.4360  0.00  0.00     0.000 C
ATOM     45   O  GCU B   3      13.946  29.425  -6.3240  0.00  0.00     0.000 OA
ATOM     46   O  GCU B   3      15.789  29.031  -5.2460  0.00  0.00     0.000 OA
ENDBRANCH 38 44
BRANCH 34 47
ATOM     47  O3  NAG B   4      13.564  34.116  -5.6470  0.00  0.00     0.000 O
BRANCH 47 50
ATOM     48  C1  NAG B   4      12.758  37.226  -7.4990  0.00  0.00     0.000 C
ATOM     49  C2  NAG B   4      12.633  35.771  -7.0600  0.00  0.00     0.000 C
ATOM     50  C3  NAG B   4      13.350  35.523  -5.7420  0.00  0.00     0.000 C
ATOM     51  C4  NAG B   4      14.693  36.252  -5.6230  0.00  0.00     0.000 C
ATOM     52  C5  NAG B   4      14.516  37.756  -5.7450  0.00  0.00     0.000 C
ATOM     53  O5  NAG B   4      13.589  38.159  -6.7770  0.00  0.00     0.000 O
BRANCH 49 56
ATOM     54   N  NAG B   4      11.275  35.807  -6.4910  0.00  0.00     0.000 N
ATOM     56  HD  NAG B   4      11.051  36.171  -5.7380  0.00  0.00     0.000 HD
ATOM     56   C  NAG B   4       8.895  35.381  -6.2700  0.00  0.00     0.000 C
ATOM     57   O  NAG B   4      10.246  34.319  -7.8670  0.00  0.00     0.000 OA
ATOM     58   C  NAG B   4      10.208  35.118  -6.9430  0.00  0.00     0.000 C
ENDBRANCH 49 56
ATOM     59   O  NAG B   4      15.860  39.827  -5.7360  0.00  0.00     0.000 O
ATOM     61  HD  NAG B   4      15.487  39.188  -6.1860  0.00  0.00     0.000 HD
ATOM     61   O  NAG B   4      15.860  39.827  -5.7360  0.00  0.00     0.000 O
ATOM     63  HD  NAG B   4      15.487  39.188  -6.1860  0.00  0.00     0.000 HD
ENDBRANCH 47 50
ENDBRANCH 34 47
ENDBRANCH 33 37
ENDBRANCH 17 33
ENDBRANCH 16 19
ENDBRANCH 1 16
TORSDOF 10
ENDMDL
MODEL 89
REMARK VINA RESULT:      -6.4      6.598     12.064
ROOT
ATOM      1  C1  GCU B   1      13.075  24.749  -2.2240  0.00  0.00     0.000 C
ATOM      2  C2  GCU B   1      14.286  24.490  -1.3410  0.00  0.00     0.000 C
ATOM      3  C3  GCU B   1      14.885  23.126  -1.6450  0.00  0.00     0.000 C
ATOM      4  C4  GCU B   1      13.806  22.055  -1.5940  0.00  0.00     0.000 C
ATOM      5  C5  GCU B   1      12.609  22.439  -2.4660  0.00  0.00     0.000 C
ATOM      6  O5  GCU B   1      12.102  23.709  -2.0360  0.00  0.00     0.000 O
ATOM      7   O  GCU B   1      15.233  25.524  -1.5920  0.00  0.00     0.000 O
ATOM      9  HD  GCU B   1      15.612  26.025  -0.9960  0.00  0.00     0.000 HD
ATOM      9   O  GCU B   1      15.922  22.812  -0.7120  0.00  0.00     0.000 O
ATOM     11  HD  GCU B   1      16.301  23.313  -0.1160  0.00  0.00     0.000 HD
ATOM     11   O  GCU B   1      14.359  20.820  -2.0490  0.00  0.00     0.000 O
ATOM     13  HD  GCU B   1      14.738  21.321  -1.4530  0.00  0.00     0.000 HD
ENDROOT
BRANCH 5 13
ATOM     13   C  GCU B   1      11.561  21.354  -2.4080  0.00  0.00     0.000 C
ATOM     14   O  GCU B   1      10.659  21.393  -1.5470  0.00  0.00     0.000 OA
ATOM     15   O  GCU B   1      11.624  20.449  -3.2630  0.00  0.00     0.000 OA
ENDBRANCH 5 13
BRANCH 1 16
ATOM     16  O3  NAG B   2      12.039  25.550  -1.9700  0.00  0.00     0.000 O
BRANCH 16 19
ATOM     17  C1  NAG B   2      10.620  28.370  -4.0350  0.00  0.00     0.000 C
ATOM     18  C2  NAG B   2      11.687  27.556  -3.3140  0.00  0.00     0.000 C
ATOM     19  C3  NAG B   2      11.098  26.242  -2.8050  0.00  0.00     0.000 C
ATOM     20  C4  NAG B   2       9.837  26.507  -1.9820  0.00  0.00     0.000 C
ATOM     21  C5  NAG B   2       8.847  27.320  -2.8040  0.00  0.00     0.000 C
ATOM     22  O5  NAG B   2       9.470  28.556  -3.1950  0.00  0.00     0.000 O
ATOM     23   O  NAG B   2       9.278  25.247  -1.5940  0.00  0.00     0.000 O
ATOM     25  HD  NAG B   2       9.613  25.741  -0.9660  0.00  0.00     0.000 HD
ATOM     25   C  NAG B   2       7.552  27.610  -2.0480  0.00  0.00     0.000 C
ATOM     26   O  NAG B   2       7.745  28.597  -1.0230  0.00  0.00     0.000 O
ATOM     28  HD  NAG B   2       8.080  29.091  -0.3950  0.00  0.00     0.000 HD
BRANCH 18 30
ATOM     28   N  NAG B   2      12.708  27.738  -4.3280  0.00  0.00     0.000 N
ATOM     30  HD  NAG B   2      13.164  27.704  -3.5930  0.00  0.00     0.000 HD
ATOM     30   C  NAG B   2      14.003  27.938  -4.0560  0.00  0.00     0.000 C
ATOM     31   C  NAG B   2      14.934  28.154  -5.2160  0.00  0.00     0.000 C
ATOM     32   O  NAG B   2      14.424  27.949  -2.9160  0.00  0.00     0.000 OA
ENDBRANCH 18 30
BRANCH 17 33
ATOM     33  O4  GCU B   3      11.227  29.608  -4.4570  0.00  0.00     0.000 O
BRANCH 33 37
ATOM     34  C1  GCU B   3       9.932  32.411  -7.2490  0.00  0.00     0.000 C
ATOM     35  C2  GCU B   3       9.564  32.647  -5.7830  0.00  0.00     0.000 C
ATOM     36  C3  GCU B   3      10.452  31.800  -4.8960  0.00  0.00     0.000 C
ATOM     37  C4  GCU B   3      10.353  30.341  -5.3170  0.00  0.00     0.000 C
ATOM     38  C5  GCU B   3      10.740  30.203  -6.7910  0.00  0.00     0.000 C
ATOM     39  O5  GCU B   3       9.861  31.020  -7.5710  0.00  0.00     0.000 O
ATOM     40   O  GCU B   3       9.738  34.032  -5.4790  0.00  0.00     0.000 O
ATOM     42  HD  GCU B   3      10.104  34.566  -4.9030  0.00  0.00     0.000 HD
ATOM     42   O  GCU B   3      10.085  31.942  -3.5110  0.00  0.00     0.000 O
ATOM     44  HD  GCU B   3      10.451  32.475  -2.9360  0.00  0.00     0.000 HD
BRANCH 38 44
ATOM     44   C  GCU B   3      10.642  28.783  -7.2880  0.00  0.00     0.000 C
ATOM     45   O  GCU B   3      11.687  28.131  -7.4330  0.00  0.00     0.000 OA
ATOM     46   O  GCU B   3       9.524  28.293  -7.5400  0.00  0.00     0.000 OA
ENDBRANCH 38 44
BRANCH 34 47
ATOM     47  O3  NAG B   4       9.021  32.993  -8.0160  0.00  0.00     0.000 O
BRANCH 47 50
ATOM     48  C1  NAG B   4       7.763  35.254 -10.6730  0.00  0.00     0.000 C
ATOM     49  C2  NAG B   4       8.357  34.848  -9.3290  0.00  0.00     0.000 C
ATOM     50  C3  NAG B   4       8.911  33.433  -9.3690  0.00  0.00     0.000 C
ATOM     51  C4  NAG B   4       8.036  32.449 -10.1550  0.00  0.00     0.000 C
ATOM     52  C5  NAG B   4       7.870  32.892 -11.5990  0.00  0.00     0.000 C
ATOM     53  O5  NAG B   4       7.647  34.311 -11.7580  0.00  0.00     0.000 O
BRANCH 49 56
ATOM     54   N  NAG B   4       9.563  35.672  -9.5180  0.00  0.00     0.000 N
ATOM     56  HD  NAG B   4      10.001  35.765 -10.2590  0.00  0.00     0.000 HD
ATOM     56   C  NAG B   4      11.426  37.128  -8.9680  0.00  0.00     0.000 C
ATOM     57   O  NAG B   4      10.066  36.117  -7.3470  0.00  0.00     0.000 OA
ATOM     58   C  NAG B   4      10.290  36.250  -8.5410  0.00  0.00     0.000 C
ENDBRANCH 49 56
ATOM     59   O  NAG B   4       6.742  32.185 -13.6780  0.00  0.00     0.000 O
ATOM     61  HD  NAG B   4       6.728  32.653 -12.9500  0.00  0.00     0.000 HD
ATOM     61   O  NAG B   4       6.742  32.185 -13.6780  0.00  0.00     0.000 O
ATOM     63  HD  NAG B   4       6.728  32.653 -12.9500  0.00  0.00     0.000 HD
ENDBRANCH 47 50
ENDBRANCH 34 47
ENDBRANCH 33 37
ENDBRANCH 17 33
ENDBRANCH 16 19
ENDBRANCH 1 16
TORSDOF 10
ENDMDL
MODEL 90
REMARK VINA RESULT:      -6.4      4.897     11.447
ROOT
ATOM      1  C1  GCU B   1       5.213  29.113  -0.9900  0.00  0.00     0.000 C
ATOM      2  C2  GCU B   1       5.228  29.971   0.2650  0.00  0.00     0.000 C
ATOM      3  C3  GCU B   1       6.437  29.636   1.1240  0.00  0.00     0.000 C
ATOM      4  C4  GCU B   1       6.513  28.137   1.3640  0.00  0.00     0.000 C
ATOM      5  C5  GCU B   1       6.428  27.364   0.0470  0.00  0.00     0.000 C
ATOM      6  O5  GCU B   1       5.216  27.722  -0.6310  0.00  0.00     0.000 O
ATOM      7   O  GCU B   1       5.262  31.335  -0.1440  0.00  0.00     0.000 O
ATOM      9  HD  GCU B   1       4.722  31.960   0.1170  0.00  0.00     0.000 HD
ATOM      9   O  GCU B   1       6.372  30.324   2.3760  0.00  0.00     0.000 O
ATOM     11  HD  GCU B   1       5.832  30.949   2.6370  0.00  0.00     0.000 HD
ATOM     11   O  GCU B   1       7.743  27.836   2.0230  0.00  0.00     0.000 O
ATOM     13  HD  GCU B   1       7.203  28.461   2.2840  0.00  0.00     0.000 HD
ENDROOT
BRANCH 5 13
ATOM     13   C  GCU B   1       6.519  25.881   0.3140  0.00  0.00     0.000 C
ATOM     14   O  GCU B   1       6.132  25.411   1.4040  0.00  0.00     0.000 OA
ATOM     15   O  GCU B   1       6.964  25.159  -0.5990  0.00  0.00     0.000 OA
ENDBRANCH 5 13
BRANCH 1 16
ATOM     16  O3  NAG B   2       4.154  28.760  -1.7220  0.00  0.00     0.000 O
BRANCH 16 19
ATOM     17  C1  NAG B   2       4.550  27.848  -5.3600  0.00  0.00     0.000 C
ATOM     18  C2  NAG B   2       4.867  28.549  -4.0460  0.00  0.00     0.000 C
ATOM     19  C3  NAG B   2       3.996  27.988  -2.9230  0.00  0.00     0.000 C
ATOM     20  C4  NAG B   2       2.522  28.028  -3.3230  0.00  0.00     0.000 C
ATOM     21  C5  NAG B   2       2.326  27.296  -4.6430  0.00  0.00     0.000 C
ATOM     22  O5  NAG B   2       3.144  27.922  -5.6480  0.00  0.00     0.000 O
ATOM     23   O  NAG B   2       1.754  27.423  -2.2760  0.00  0.00     0.000 O
ATOM     25  HD  NAG B   2       1.656  28.275  -2.3960  0.00  0.00     0.000 HD
ATOM     25   C  NAG B   2       0.869  27.281  -5.0990  0.00  0.00     0.000 C
ATOM     26   O  NAG B   2       0.448  28.569  -5.5760  0.00  0.00     0.000 O
ATOM     28  HD  NAG B   2       0.351  29.421  -5.6960  0.00  0.00     0.000 HD
BRANCH 18 30
ATOM     28   N  NAG B   2       5.925  29.494  -4.3490  0.00  0.00     0.000 N
ATOM     30  HD  NAG B   2       6.327  28.896  -3.8680  0.00  0.00     0.000 HD
ATOM     30   C  NAG B   2       7.158  29.426  -3.8300  0.00  0.00     0.000 C
ATOM     31   C  NAG B   2       8.132  30.507  -4.2060  0.00  0.00     0.000 C
ATOM     32   O  NAG B   2       7.488  28.531  -3.0790  0.00  0.00     0.000 OA
ENDBRANCH 18 30
BRANCH 17 33
ATOM     33  O4  GCU B   3       5.375  28.444  -6.3820  0.00  0.00     0.000 O
BRANCH 33 37
ATOM     34  C1  GCU B   3       7.276  26.759  -9.6810  0.00  0.00     0.000 C
ATOM     35  C2  GCU B   3       5.785  27.076  -9.8060  0.00  0.00     0.000 C
ATOM     36  C3  GCU B   3       5.379  28.044  -8.7150  0.00  0.00     0.000 C
ATOM     37  C4  GCU B   3       5.765  27.475  -7.3570  0.00  0.00     0.000 C
ATOM     38  C5  GCU B   3       7.269  27.193  -7.3250  0.00  0.00     0.000 C
ATOM     39  O5  GCU B   3       7.581  26.269  -8.3720  0.00  0.00     0.000 O
ATOM     40   O  GCU B   3       5.540  27.649 -11.0920  0.00  0.00     0.000 O
ATOM     42  HD  GCU B   3       5.155  28.320 -11.4790  0.00  0.00     0.000 HD
ATOM     42   O  GCU B   3       3.965  28.308  -8.7570  0.00  0.00     0.000 O
ATOM     44  HD  GCU B   3       3.580  28.980  -9.1450  0.00  0.00     0.000 HD
BRANCH 38 44
ATOM     44   C  GCU B   3       7.722  26.602  -6.0140  0.00  0.00     0.000 C
ATOM     45   O  GCU B   3       8.815  26.959  -5.5480  0.00  0.00     0.000 OA
ATOM     46   O  GCU B   3       6.998  25.776  -5.4250  0.00  0.00     0.000 OA
ENDBRANCH 38 44
BRANCH 34 47
ATOM     47  O3  NAG B   4       7.572  25.763 -10.5030  0.00  0.00     0.000 O
BRANCH 47 50
ATOM     48  C1  NAG B   4       6.433  22.316 -11.2620  0.00  0.00     0.000 C
ATOM     49  C2  NAG B   4       6.737  23.549 -10.4190  0.00  0.00     0.000 C
ATOM     50  C3  NAG B   4       6.867  24.795 -11.2790  0.00  0.00     0.000 C
ATOM     51  C4  NAG B   4       7.613  24.560 -12.5980  0.00  0.00     0.000 C
ATOM     52  C5  NAG B   4       6.910  23.515 -13.4490  0.00  0.00     0.000 C
ATOM     53  O5  NAG B   4       6.426  22.376 -12.7040  0.00  0.00     0.000 O
BRANCH 49 56
ATOM     54   N  NAG B   4       5.375  23.826  -9.9290  0.00  0.00     0.000 N
ATOM     56  HD  NAG B   4       4.717  24.125 -10.4060  0.00  0.00     0.000 HD
ATOM     56   C  NAG B   4       3.528  24.061  -8.3720  0.00  0.00     0.000 C
ATOM     57   O  NAG B   4       5.742  23.699  -7.6890  0.00  0.00     0.000 OA
ATOM     58   C  NAG B   4       4.987  23.853  -8.6380  0.00  0.00     0.000 C
ENDBRANCH 49 56
ATOM     59   O  NAG B   4       7.158  22.361 -15.6170  0.00  0.00     0.000 O
ATOM     61  HD  NAG B   4       7.303  22.374 -14.7640  0.00  0.00     0.000 HD
ATOM     61   O  NAG B   4       7.158  22.361 -15.6170  0.00  0.00     0.000 O
ATOM     63  HD  NAG B   4       7.303  22.374 -14.7640  0.00  0.00     0.000 HD
ENDBRANCH 47 50
ENDBRANCH 34 47
ENDBRANCH 33 37
ENDBRANCH 17 33
ENDBRANCH 16 19
ENDBRANCH 1 16
TORSDOF 10
ENDMDL
MODEL 91
REMARK VINA RESULT:      -6.3      8.996     14.366
ROOT
ATOM      1  C1  GCU B   1      15.439  26.818  -0.6950  0.00  0.00     0.000 C
ATOM      2  C2  GCU B   1      16.274  26.751   0.5740  0.00  0.00     0.000 C
ATOM      3  C3  GCU B   1      17.232  25.572   0.5190  0.00  0.00     0.000 C
ATOM      4  C4  GCU B   1      16.478  24.298   0.1720  0.00  0.00     0.000 C
ATOM      5  C5  GCU B   1      15.623  24.489  -1.0820  0.00  0.00     0.000 C
ATOM      6  O5  GCU B   1      14.723  25.586  -0.8750  0.00  0.00     0.000 O
ATOM      7   O  GCU B   1      16.989  27.978   0.6870  0.00  0.00     0.000 O
ATOM      9  HD  GCU B   1      17.005  28.499   1.3780  0.00  0.00     0.000 HD
ATOM      9   O  GCU B   1      17.905  25.410   1.7710  0.00  0.00     0.000 O
ATOM     11  HD  GCU B   1      17.920  25.931   2.4620  0.00  0.00     0.000 HD
ATOM     11   O  GCU B   1      17.420  23.246  -0.0410  0.00  0.00     0.000 O
ATOM     13  HD  GCU B   1      17.436  23.767   0.6510  0.00  0.00     0.000 HD
ENDROOT
BRANCH 5 13
ATOM     13   C  GCU B   1      14.898  23.206  -1.4100  0.00  0.00     0.000 C
ATOM     14   O  GCU B   1      14.440  23.015  -2.5560  0.00  0.00     0.000 OA
ATOM     15   O  GCU B   1      14.805  22.352  -0.5080  0.00  0.00     0.000 OA
ENDBRANCH 5 13
BRANCH 1 16
ATOM     16  O3  NAG B   2      14.229  27.361  -0.8450  0.00  0.00     0.000 O
BRANCH 16 19
ATOM     17  C1  NAG B   2      12.852  30.172  -2.9500  0.00  0.00     0.000 C
ATOM     18  C2  NAG B   2      13.723  29.506  -1.8920  0.00  0.00     0.000 C
ATOM     19  C3  NAG B   2      13.558  27.989  -1.9490  0.00  0.00     0.000 C
ATOM     20  C4  NAG B   2      12.079  27.611  -1.8840  0.00  0.00     0.000 C
ATOM     21  C5  NAG B   2      11.314  28.329  -2.9860  0.00  0.00     0.000 C
ATOM     22  O5  NAG B   2      11.485  29.748  -2.8230  0.00  0.00     0.000 O
ATOM     23   O  NAG B   2      11.970  26.189  -2.0190  0.00  0.00     0.000 O
ATOM     25  HD  NAG B   2      11.765  26.530  -1.2490  0.00  0.00     0.000 HD
ATOM     25   C  NAG B   2       9.826  27.986  -2.9920  0.00  0.00     0.000 C
ATOM     26   O  NAG B   2       9.134  28.606  -1.8970  0.00  0.00     0.000 O
ATOM     28  HD  NAG B   2       8.928  28.946  -1.1280  0.00  0.00     0.000 HD
BRANCH 18 30
ATOM     28   N  NAG B   2      14.421  30.659  -1.3560  0.00  0.00     0.000 N
ATOM     30  HD  NAG B   2      15.064  30.153  -1.6390  0.00  0.00     0.000 HD
ATOM     30   C  NAG B   2      15.753  30.741  -1.2490  0.00  0.00     0.000 C
ATOM     31   C  NAG B   2      16.327  31.985  -0.6300  0.00  0.00     0.000 C
ATOM     32   O  NAG B   2      16.483  29.848  -1.6310  0.00  0.00     0.000 OA
ENDBRANCH 18 30
BRANCH 17 33
ATOM     33  O4  GCU B   3      13.023  31.598  -2.8210  0.00  0.00     0.000 O
BRANCH 33 37
ATOM     34  C1  GCU B   3      13.047  34.619  -5.6850  0.00  0.00     0.000 C
ATOM     35  C2  GCU B   3      11.694  34.029  -5.2880  0.00  0.00     0.000 C
ATOM     36  C3  GCU B   3      11.831  33.285  -3.9760  0.00  0.00     0.000 C
ATOM     37  C4  GCU B   3      12.935  32.243  -4.0930  0.00  0.00     0.000 C
ATOM     38  C5  GCU B   3      14.246  32.924  -4.4900  0.00  0.00     0.000 C
ATOM     39  O5  GCU B   3      14.049  33.599  -5.7370  0.00  0.00     0.000 O
ATOM     40   O  GCU B   3      10.746  35.090  -5.1560  0.00  0.00     0.000 O
ATOM     42  HD  GCU B   3      10.147  35.411  -4.6190  0.00  0.00     0.000 HD
ATOM     42   O  GCU B   3      10.592  32.654  -3.6070  0.00  0.00     0.000 O
ATOM     44  HD  GCU B   3       9.993  32.974  -3.0700  0.00  0.00     0.000 HD
BRANCH 38 44
ATOM     44   C  GCU B   3      15.384  31.947  -4.6500  0.00  0.00     0.000 C
ATOM     45   O  GCU B   3      15.162  30.864  -5.2120  0.00  0.00     0.000 OA
ATOM     46   O  GCU B   3      16.516  32.243  -4.2230  0.00  0.00     0.000 OA
ENDBRANCH 38 44
BRANCH 34 47
ATOM     47  O3  NAG B   4      12.963  35.086  -6.9230  0.00  0.00     0.000 O
BRANCH 47 50
ATOM     48  C1  NAG B   4      11.851  36.943  -9.9350  0.00  0.00     0.000 C
ATOM     49  C2  NAG B   4      12.035  35.756  -8.9950  0.00  0.00     0.000 C
ATOM     50  C3  NAG B   4      12.385  36.209  -7.5870  0.00  0.00     0.000 C
ATOM     51  C4  NAG B   4      13.365  37.386  -7.5420  0.00  0.00     0.000 C
ATOM     52  C5  NAG B   4      12.801  38.601  -8.2610  0.00  0.00     0.000 C
ATOM     53  O5  NAG B   4      12.132  38.292  -9.5040  0.00  0.00     0.000 O
BRANCH 49 56
ATOM     54   N  NAG B   4      10.778  35.006  -9.1610  0.00  0.00     0.000 N
ATOM     56  HD  NAG B   4      10.599  34.455  -9.8050  0.00  0.00     0.000 HD
ATOM     56   C  NAG B   4       8.510  34.256  -8.7310  0.00  0.00     0.000 C
ATOM     57   O  NAG B   4       9.489  36.077  -7.6240  0.00  0.00     0.000 OA
ATOM     58   C  NAG B   4       9.641  35.201  -8.4630  0.00  0.00     0.000 C
ENDBRANCH 49 56
ATOM     59   O  NAG B   4      13.423  40.920  -8.8340  0.00  0.00     0.000 O
ATOM     61  HD  NAG B   4      13.397  40.083  -9.0560  0.00  0.00     0.000 HD
ATOM     61   O  NAG B   4      13.423  40.920  -8.8340  0.00  0.00     0.000 O
ATOM     63  HD  NAG B   4      13.397  40.083  -9.0560  0.00  0.00     0.000 HD
ENDBRANCH 47 50
ENDBRANCH 34 47
ENDBRANCH 33 37
ENDBRANCH 17 33
ENDBRANCH 16 19
ENDBRANCH 1 16
TORSDOF 10
ENDMDL
MODEL 92
REMARK VINA RESULT:      -6.3      2.087      2.679
ROOT
ATOM      1  C1  GCU B   1       9.414  32.448 -12.8640  0.00  0.00     0.000 C
ATOM      2  C2  GCU B   1      10.241  33.162 -13.9220  0.00  0.00     0.000 C
ATOM      3  C3  GCU B   1       9.745  32.806 -15.3150  0.00  0.00     0.000 C
ATOM      4  C4  GCU B   1       9.656  31.296 -15.4710  0.00  0.00     0.000 C
ATOM      5  C5  GCU B   1       8.858  30.670 -14.3260  0.00  0.00     0.000 C
ATOM      6  O5  GCU B   1       9.466  31.029 -13.0780  0.00  0.00     0.000 O
ATOM      7   O  GCU B   1      10.127  34.562 -13.6880  0.00  0.00     0.000 O
ATOM      9  HD  GCU B   1      10.783  35.122 -13.6070  0.00  0.00     0.000 HD
ATOM      9   O  GCU B   1      10.615  33.346 -16.3130  0.00  0.00     0.000 O
ATOM     11  HD  GCU B   1      11.271  33.905 -16.2320  0.00  0.00     0.000 HD
ATOM     11   O  GCU B   1       9.029  30.997 -16.7180  0.00  0.00     0.000 O
ATOM     13  HD  GCU B   1       9.685  31.556 -16.6370  0.00  0.00     0.000 HD
ENDROOT
BRANCH 5 13
ATOM     13   C  GCU B   1       8.775  29.174 -14.5150  0.00  0.00     0.000 C
ATOM     14   O  GCU B   1       9.680  28.563 -15.1200  0.00  0.00     0.000 OA
ATOM     15   O  GCU B   1       7.792  28.588 -14.0220  0.00  0.00     0.000 OA
ENDBRANCH 5 13
BRANCH 1 16
ATOM     16  O3  NAG B   2       9.788  32.117 -11.6260  0.00  0.00     0.000 O
BRANCH 16 19
ATOM     17  C1  NAG B   2       7.592  30.702  -8.9050  0.00  0.00     0.000 C
ATOM     18  C2  NAG B   2       7.993  31.626 -10.0480  0.00  0.00     0.000 C
ATOM     19  C3  NAG B   2       9.305  31.157 -10.6730  0.00  0.00     0.000 C
ATOM     20  C4  NAG B   2      10.374  30.979  -9.5950  0.00  0.00     0.000 C
ATOM     21  C5  NAG B   2       9.865  30.036  -8.5140  0.00  0.00     0.000 C
ATOM     22  O5  NAG B   2       8.659  30.582  -7.9510  0.00  0.00     0.000 O
ATOM     23   O  NAG B   2      11.559  30.466 -10.2150  0.00  0.00     0.000 O
ATOM     25  HD  NAG B   2      11.593  31.275  -9.9060  0.00  0.00     0.000 HD
ATOM     25   C  NAG B   2      10.890  29.798  -7.4080  0.00  0.00     0.000 C
ATOM     26   O  NAG B   2      11.028  30.945  -6.5560  0.00  0.00     0.000 O
ATOM     28  HD  NAG B   2      11.062  31.754  -6.2470  0.00  0.00     0.000 HD
BRANCH 18 30
ATOM     28   N  NAG B   2       6.970  32.649 -10.1590  0.00  0.00     0.000 N
ATOM     30  HD  NAG B   2       6.820  32.144 -10.8460  0.00  0.00     0.000 HD
ATOM     30   C  NAG B   2       6.139  32.762 -11.2030  0.00  0.00     0.000 C
ATOM     31   C  NAG B   2       5.160  33.903 -11.1930  0.00  0.00     0.000 C
ATOM     32   O  NAG B   2       6.166  31.980 -12.1310  0.00  0.00     0.000 OA
ENDBRANCH 18 30
BRANCH 17 33
ATOM     33  O4  GCU B   3       6.371  31.216  -8.3370  0.00  0.00     0.000 O
BRANCH 33 37
ATOM     34  C1  GCU B   3       3.302  29.296  -6.2800  0.00  0.00     0.000 C
ATOM     35  C2  GCU B   3       4.684  29.326  -5.6270  0.00  0.00     0.000 C
ATOM     36  C3  GCU B   3       5.531  30.397  -6.2810  0.00  0.00     0.000 C
ATOM     37  C4  GCU B   3       5.578  30.164  -7.7850  0.00  0.00     0.000 C
ATOM     38  C5  GCU B   3       4.156  30.152  -8.3480  0.00  0.00     0.000 C
ATOM     39  O5  GCU B   3       3.415  29.116  -7.6950  0.00  0.00     0.000 O
ATOM     40   O  GCU B   3       4.531  29.600  -4.2330  0.00  0.00     0.000 O
ATOM     42  HD  GCU B   3       4.825  30.113  -3.5990  0.00  0.00     0.000 HD
ATOM     42   O  GCU B   3       6.864  30.405  -5.7400  0.00  0.00     0.000 O
ATOM     44  HD  GCU B   3       7.158  30.917  -5.1070  0.00  0.00     0.000 HD
BRANCH 38 44
ATOM     44   C  GCU B   3       4.121  29.900  -9.8350  0.00  0.00     0.000 C
ATOM     45   O  GCU B   3       4.825  28.991 -10.3000  0.00  0.00     0.000 OA
ATOM     46   O  GCU B   3       3.391  30.600 -10.5630  0.00  0.00     0.000 OA
ENDBRANCH 38 44
BRANCH 34 47
ATOM     47  O3  NAG B   4       2.647  28.229  -5.8460  0.00  0.00     0.000 O
BRANCH 47 50
ATOM     48  C1  NAG B   4       0.488  26.014  -3.8000  0.00  0.00     0.000 C
ATOM     49  C2  NAG B   4       1.775  26.654  -4.3090  0.00  0.00     0.000 C
ATOM     50  C3  NAG B   4       1.497  27.953  -5.0480  0.00  0.00     0.000 C
ATOM     51  C4  NAG B   4       0.255  27.899  -5.9450  0.00  0.00     0.000 C
ATOM     52  C5  NAG B   4      -0.994  27.582  -5.1390  0.00  0.00     0.000 C
ATOM     53  O5  NAG B   4      -0.806  26.555  -4.1400  0.00  0.00     0.000 O
BRANCH 49 56
ATOM     54   N  NAG B   4       2.277  27.317  -3.0930  0.00  0.00     0.000 N
ATOM     56  HD  NAG B   4       2.034  28.097  -2.8050  0.00  0.00     0.000 HD
ATOM     56   C  NAG B   4       3.604  27.689  -1.0940  0.00  0.00     0.000 C
ATOM     57   O  NAG B   4       4.042  25.964  -2.6220  0.00  0.00     0.000 OA
ATOM     58   C  NAG B   4       3.327  26.917  -2.3480  0.00  0.00     0.000 C
ENDBRANCH 49 56
ATOM     59   O  NAG B   4      -3.417  27.235  -5.4610  0.00  0.00     0.000 O
ATOM     61  HD  NAG B   4      -2.621  26.898  -5.4050  0.00  0.00     0.000 HD
ATOM     61   O  NAG B   4      -3.417  27.235  -5.4610  0.00  0.00     0.000 O
ATOM     63  HD  NAG B   4      -2.621  26.898  -5.4050  0.00  0.00     0.000 HD
ENDBRANCH 47 50
ENDBRANCH 34 47
ENDBRANCH 33 37
ENDBRANCH 17 33
ENDBRANCH 16 19
ENDBRANCH 1 16
TORSDOF 10
ENDMDL
MODEL 93
REMARK VINA RESULT:      -6.3      5.922     12.858
ROOT
ATOM      1  C1  GCU B   1       6.634  25.815   0.9280  0.00  0.00     0.000 C
ATOM      2  C2  GCU B   1       7.349  26.112   2.2370  0.00  0.00     0.000 C
ATOM      3  C3  GCU B   1       7.608  24.825   3.0050  0.00  0.00     0.000 C
ATOM      4  C4  GCU B   1       6.323  24.023   3.1360  0.00  0.00     0.000 C
ATOM      5  C5  GCU B   1       5.652  23.833   1.7740  0.00  0.00     0.000 C
ATOM      6  O5  GCU B   1       5.405  25.119   1.1890  0.00  0.00     0.000 O
ATOM      7   O  GCU B   1       8.574  26.767   1.9220  0.00  0.00     0.000 O
ATOM      9  HD  GCU B   1       8.852  27.517   2.2540  0.00  0.00     0.000 HD
ATOM      9   O  GCU B   1       8.135  25.111   4.3040  0.00  0.00     0.000 O
ATOM     11  HD  GCU B   1       8.413  25.861   4.6350  0.00  0.00     0.000 HD
ATOM     11   O  GCU B   1       6.629  22.750   3.7060  0.00  0.00     0.000 O
ATOM     13  HD  GCU B   1       6.907  23.500   4.0380  0.00  0.00     0.000 HD
ENDROOT
BRANCH 5 13
ATOM     13   C  GCU B   1       4.388  23.023   1.9330  0.00  0.00     0.000 C
ATOM     14   O  GCU B   1       4.436  21.776   1.9560  0.00  0.00     0.000 OA
ATOM     15   O  GCU B   1       3.318  23.649   2.0650  0.00  0.00     0.000 OA
ENDBRANCH 5 13
BRANCH 1 16
ATOM     16  O3  NAG B   2       5.841  26.632   0.2300  0.00  0.00     0.000 O
BRANCH 16 19
ATOM     17  C1  NAG B   2       6.119  27.455  -3.4400  0.00  0.00     0.000 C
ATOM     18  C2  NAG B   2       6.599  27.216  -2.0140  0.00  0.00     0.000 C
ATOM     19  C3  NAG B   2       5.454  26.689  -1.1510  0.00  0.00     0.000 C
ATOM     20  C4  NAG B   2       4.237  27.606  -1.2660  0.00  0.00     0.000 C
ATOM     21  C5  NAG B   2       3.848  27.767  -2.7280  0.00  0.00     0.000 C
ATOM     22  O5  NAG B   2       4.967  28.313  -3.4500  0.00  0.00     0.000 O
ATOM     23   O  NAG B   2       3.167  27.033  -0.5050  0.00  0.00     0.000 O
ATOM     25  HD  NAG B   2       3.510  27.772  -0.2100  0.00  0.00     0.000 HD
ATOM     25   C  NAG B   2       2.624  28.661  -2.9190  0.00  0.00     0.000 C
ATOM     26   O  NAG B   2       2.937  30.044  -2.6920  0.00  0.00     0.000 O
ATOM     28  HD  NAG B   2       3.280  30.783  -2.3970  0.00  0.00     0.000 HD
BRANCH 18 30
ATOM     28   N  NAG B   2       7.809  26.501  -2.3740  0.00  0.00     0.000 N
ATOM     30  HD  NAG B   2       8.045  26.946  -1.6690  0.00  0.00     0.000 HD
ATOM     30   C  NAG B   2       8.990  26.681  -1.7680  0.00  0.00     0.000 C
ATOM     31   C  NAG B   2      10.164  25.897  -2.2850  0.00  0.00     0.000 C
ATOM     32   O  NAG B   2       9.121  27.449  -0.8360  0.00  0.00     0.000 OA
ENDBRANCH 18 30
BRANCH 17 33
ATOM     33  O4  GCU B   3       7.231  27.983  -4.1910  0.00  0.00     0.000 O
BRANCH 33 37
ATOM     34  C1  GCU B   3       7.752  28.484  -8.2910  0.00  0.00     0.000 C
ATOM     35  C2  GCU B   3       7.004  29.580  -7.5320  0.00  0.00     0.000 C
ATOM     36  C3  GCU B   3       7.280  29.448  -6.0490  0.00  0.00     0.000 C
ATOM     37  C4  GCU B   3       6.927  28.042  -5.5860  0.00  0.00     0.000 C
ATOM     38  C5  GCU B   3       7.723  27.018  -6.3970  0.00  0.00     0.000 C
ATOM     39  O5  GCU B   3       7.410  27.192  -7.7830  0.00  0.00     0.000 O
ATOM     40   O  GCU B   3       7.443  30.855  -8.0050  0.00  0.00     0.000 O
ATOM     42  HD  GCU B   3       7.731  31.624  -7.7320  0.00  0.00     0.000 HD
ATOM     42   O  GCU B   3       6.533  30.420  -5.2950  0.00  0.00     0.000 O
ATOM     44  HD  GCU B   3       6.821  31.190  -5.0220  0.00  0.00     0.000 HD
BRANCH 38 44
ATOM     44   C  GCU B   3       7.406  25.595  -6.0100  0.00  0.00     0.000 C
ATOM     45   O  GCU B   3       8.151  25.019  -5.2030  0.00  0.00     0.000 OA
ATOM     46   O  GCU B   3       6.409  25.029  -6.4980  0.00  0.00     0.000 OA
ENDBRANCH 38 44
BRANCH 34 47
ATOM     47  O3  NAG B   4       7.342  28.481  -9.5520  0.00  0.00     0.000 O
BRANCH 47 50
ATOM     48  C1  NAG B   4       7.806  28.940 -13.2030  0.00  0.00     0.000 C
ATOM     49  C2  NAG B   4       7.727  29.326 -11.7290  0.00  0.00     0.000 C
ATOM     50  C3  NAG B   4       7.864  28.110 -10.8270  0.00  0.00     0.000 C
ATOM     51  C4  NAG B   4       7.120  26.872 -11.3410  0.00  0.00     0.000 C
ATOM     52  C5  NAG B   4       7.626  26.455 -12.7110  0.00  0.00     0.000 C
ATOM     53  O5  NAG B   4       7.859  27.558 -13.6150  0.00  0.00     0.000 O
BRANCH 49 56
ATOM     54   N  NAG B   4       9.102  29.847 -11.6420  0.00  0.00     0.000 N
ATOM     56  HD  NAG B   4       9.822  29.412 -11.8520  0.00  0.00     0.000 HD
ATOM     56   C  NAG B   4      10.922  31.378 -11.1580  0.00  0.00     0.000 C
ATOM     57   O  NAG B   4       8.719  31.736 -10.4380  0.00  0.00     0.000 OA
ATOM     58   C  NAG B   4       9.479  30.994 -11.0430  0.00  0.00     0.000 C
ENDBRANCH 49 56
ATOM     59   O  NAG B   4       7.212  24.744 -14.4420  0.00  0.00     0.000 O
ATOM     61  HD  NAG B   4       7.051  25.535 -14.1280  0.00  0.00     0.000 HD
ATOM     61   O  NAG B   4       7.212  24.744 -14.4420  0.00  0.00     0.000 O
ATOM     63  HD  NAG B   4       7.051  25.535 -14.1280  0.00  0.00     0.000 HD
ENDBRANCH 47 50
ENDBRANCH 34 47
ENDBRANCH 33 37
ENDBRANCH 17 33
ENDBRANCH 16 19
ENDBRANCH 1 16
TORSDOF 10
ENDMDL
MODEL 94
REMARK VINA RESULT:      -6.3      5.511      9.437
ROOT
ATOM      1  C1  GCU B   1       8.033  29.533 -14.0760  0.00  0.00     0.000 C
ATOM      2  C2  GCU B   1       6.939  28.521 -14.3790  0.00  0.00     0.000 C
ATOM      3  C3  GCU B   1       7.415  27.519 -15.4200  0.00  0.00     0.000 C
ATOM      4  C4  GCU B   1       7.978  28.247 -16.6310  0.00  0.00     0.000 C
ATOM      5  C5  GCU B   1       9.023  29.283 -16.2130  0.00  0.00     0.000 C
ATOM      6  O5  GCU B   1       8.430  30.201 -15.2850  0.00  0.00     0.000 O
ATOM      7   O  GCU B   1       6.608  27.863 -13.1600  0.00  0.00     0.000 O
ATOM      9  HD  GCU B   1       5.814  27.776 -12.8260  0.00  0.00     0.000 HD
ATOM      9   O  GCU B   1       6.342  26.665 -15.8250  0.00  0.00     0.000 O
ATOM     11  HD  GCU B   1       5.548  26.578 -15.4910  0.00  0.00     0.000 HD
ATOM     11   O  GCU B   1       8.570  27.291 -17.5100  0.00  0.00     0.000 O
ATOM     13  HD  GCU B   1       7.776  27.203 -17.1760  0.00  0.00     0.000 HD
ENDROOT
BRANCH 5 13
ATOM     13   C  GCU B   1       9.574  29.979 -17.4340  0.00  0.00     0.000 C
ATOM     14   O  GCU B   1       8.952  29.943 -18.5160  0.00  0.00     0.000 OA
ATOM     15   O  GCU B   1      10.645  30.603 -17.3050  0.00  0.00     0.000 OA
ENDBRANCH 5 13
BRANCH 1 16
ATOM     16  O3  NAG B   2       7.885  30.779 -13.6220  0.00  0.00     0.000 O
BRANCH 16 19
ATOM     17  C1  NAG B   2       8.953  32.499 -10.4390  0.00  0.00     0.000 C
ATOM     18  C2  NAG B   2       8.245  31.469 -11.3090  0.00  0.00     0.000 C
ATOM     19  C3  NAG B   2       8.676  31.619 -12.7660  0.00  0.00     0.000 C
ATOM     20  C4  NAG B   2       8.501  33.066 -13.2270  0.00  0.00     0.000 C
ATOM     21  C5  NAG B   2       9.253  34.000 -12.2890  0.00  0.00     0.000 C
ATOM     22  O5  NAG B   2       8.748  33.825 -10.9540  0.00  0.00     0.000 O
ATOM     23   O  NAG B   2       8.990  33.175 -14.5680  0.00  0.00     0.000 O
ATOM     25  HD  NAG B   2       8.137  33.265 -14.4500  0.00  0.00     0.000 HD
ATOM     25   C  NAG B   2       9.136  35.466 -12.6980  0.00  0.00     0.000 C
ATOM     26   O  NAG B   2       7.829  35.992 -12.4200  0.00  0.00     0.000 O
ATOM     28  HD  NAG B   2       6.976  36.082 -12.3020  0.00  0.00     0.000 HD
BRANCH 18 30
ATOM     28   N  NAG B   2       7.453  30.698 -10.3690  0.00  0.00     0.000 N
ATOM     30  HD  NAG B   2       8.038  30.125 -10.6510  0.00  0.00     0.000 HD
ATOM     30   C  NAG B   2       7.597  29.381 -10.1760  0.00  0.00     0.000 C
ATOM     31   C  NAG B   2       6.670  28.714  -9.1990  0.00  0.00     0.000 C
ATOM     32   O  NAG B   2       8.441  28.735 -10.7650  0.00  0.00     0.000 OA
ENDBRANCH 18 30
BRANCH 17 33
ATOM     33  O4  GCU B   3       8.479  32.330  -9.0880  0.00  0.00     0.000 O
BRANCH 33 37
ATOM     34  C1  GCU B   3      10.339  33.030  -5.4300  0.00  0.00     0.000 C
ATOM     35  C2  GCU B   3       9.986  34.244  -6.2910  0.00  0.00     0.000 C
ATOM     36  C3  GCU B   3       8.967  33.844  -7.3370  0.00  0.00     0.000 C
ATOM     37  C4  GCU B   3       9.494  32.665  -8.1410  0.00  0.00     0.000 C
ATOM     38  C5  GCU B   3       9.816  31.503  -7.2000  0.00  0.00     0.000 C
ATOM     39  O5  GCU B   3      10.788  31.944  -6.2460  0.00  0.00     0.000 O
ATOM     40   O  GCU B   3       9.455  35.270  -5.4500  0.00  0.00     0.000 O
ATOM     42  HD  GCU B   3       8.788  35.817  -5.3750  0.00  0.00     0.000 HD
ATOM     42   O  GCU B   3       8.665  34.946  -8.2120  0.00  0.00     0.000 O
ATOM     44  HD  GCU B   3       7.998  35.493  -8.1370  0.00  0.00     0.000 HD
BRANCH 38 44
ATOM     44   C  GCU B   3      10.370  30.303  -7.9260  0.00  0.00     0.000 C
ATOM     45   O  GCU B   3      11.196  30.486  -8.8330  0.00  0.00     0.000 OA
ATOM     46   O  GCU B   3       9.996  29.159  -7.6040  0.00  0.00     0.000 OA
ENDBRANCH 38 44
BRANCH 34 47
ATOM     47  O3  NAG B   4      11.374  33.338  -4.6620  0.00  0.00     0.000 O
BRANCH 47 50
ATOM     48  C1  NAG B   4      14.712  32.721  -3.1680  0.00  0.00     0.000 C
ATOM     49  C2  NAG B   4      13.232  32.497  -3.4610  0.00  0.00     0.000 C
ATOM     50  C3  NAG B   4      12.795  33.230  -4.7180  0.00  0.00     0.000 C
ATOM     51  C4  NAG B   4      13.407  34.629  -4.8620  0.00  0.00     0.000 C
ATOM     52  C5  NAG B   4      14.925  34.565  -4.9010  0.00  0.00     0.000 C
ATOM     53  O5  NAG B   4      15.501  33.642  -3.9510  0.00  0.00     0.000 O
BRANCH 49 56
ATOM     54   N  NAG B   4      13.364  31.151  -4.0460  0.00  0.00     0.000 N
ATOM     56  HD  NAG B   4      13.802  30.954  -4.7670  0.00  0.00     0.000 HD
ATOM     56   C  NAG B   4      13.038  28.764  -4.3440  0.00  0.00     0.000 C
ATOM     57   O  NAG B   4      11.793  30.049  -2.8270  0.00  0.00     0.000 OA
ATOM     58   C  NAG B   4      12.673  30.055  -3.6760  0.00  0.00     0.000 C
ENDBRANCH 49 56
ATOM     59   O  NAG B   4      16.879  36.064  -5.0720  0.00  0.00     0.000 O
ATOM     61  HD  NAG B   4      16.319  35.630  -4.5740  0.00  0.00     0.000 HD
ATOM     61   O  NAG B   4      16.879  36.064  -5.0720  0.00  0.00     0.000 O
ATOM     63  HD  NAG B   4      16.319  35.630  -4.5740  0.00  0.00     0.000 HD
ENDBRANCH 47 50
ENDBRANCH 34 47
ENDBRANCH 33 37
ENDBRANCH 17 33
ENDBRANCH 16 19
ENDBRANCH 1 16
TORSDOF 10
ENDMDL
MODEL 95
REMARK VINA RESULT:      -6.3      9.179     14.317
ROOT
ATOM      1  C1  GCU B   1      15.677  27.037  -0.8230  0.00  0.00     0.000 C
ATOM      2  C2  GCU B   1      16.322  26.847   0.5410  0.00  0.00     0.000 C
ATOM      3  C3  GCU B   1      17.125  25.556   0.5740  0.00  0.00     0.000 C
ATOM      4  C4  GCU B   1      16.271  24.393   0.0940  0.00  0.00     0.000 C
ATOM      5  C5  GCU B   1      15.619  24.709  -1.2540  0.00  0.00     0.000 C
ATOM      6  O5  GCU B   1      14.843  25.909  -1.1310  0.00  0.00     0.000 O
ATOM      7   O  GCU B   1      17.163  27.971   0.7820  0.00  0.00     0.000 O
ATOM      9  HD  GCU B   1      17.152  28.476   1.4850  0.00  0.00     0.000 HD
ATOM      9   O  GCU B   1      17.602  25.293   1.8960  0.00  0.00     0.000 O
ATOM     11  HD  GCU B   1      17.591  25.798   2.5990  0.00  0.00     0.000 HD
ATOM     11   O  GCU B   1      17.095  23.234  -0.0280  0.00  0.00     0.000 O
ATOM     13  HD  GCU B   1      17.084  23.739   0.6750  0.00  0.00     0.000 HD
ENDROOT
BRANCH 5 13
ATOM     13   C  GCU B   1      14.790  23.534  -1.7120  0.00  0.00     0.000 C
ATOM     14   O  GCU B   1      13.992  22.981  -0.9270  0.00  0.00     0.000 OA
ATOM     15   O  GCU B   1      14.917  23.168  -2.8960  0.00  0.00     0.000 OA
ENDBRANCH 5 13
BRANCH 1 16
ATOM     16  O3  NAG B   2      14.574  27.732  -1.1110  0.00  0.00     0.000 O
BRANCH 16 19
ATOM     17  C1  NAG B   2      13.832  30.810  -3.1610  0.00  0.00     0.000 C
ATOM     18  C2  NAG B   2      14.446  29.986  -2.0360  0.00  0.00     0.000 C
ATOM     19  C3  NAG B   2      14.161  28.501  -2.2510  0.00  0.00     0.000 C
ATOM     20  C4  NAG B   2      12.665  28.271  -2.4630  0.00  0.00     0.000 C
ATOM     21  C5  NAG B   2      12.167  29.140  -3.6100  0.00  0.00     0.000 C
ATOM     22  O5  NAG B   2      12.432  30.519  -3.2980  0.00  0.00     0.000 O
ATOM     23   O  NAG B   2      12.456  26.881  -2.7380  0.00  0.00     0.000 O
ATOM     25  HD  NAG B   2      12.152  27.185  -1.9860  0.00  0.00     0.000 HD
ATOM     25   C  NAG B   2      10.678  28.950  -3.8900  0.00  0.00     0.000 C
ATOM     26   O  NAG B   2       9.865  29.558  -2.8750  0.00  0.00     0.000 O
ATOM     28  HD  NAG B   2       9.561  29.863  -2.1230  0.00  0.00     0.000 HD
BRANCH 18 30
ATOM     28   N  NAG B   2      15.122  30.976  -1.2200  0.00  0.00     0.000 N
ATOM     30  HD  NAG B   2      15.774  30.496  -1.5280  0.00  0.00     0.000 HD
ATOM     30   C  NAG B   2      16.436  30.960  -0.9630  0.00  0.00     0.000 C
ATOM     31   C  NAG B   2      16.983  32.030  -0.0610  0.00  0.00     0.000 C
ATOM     32   O  NAG B   2      17.170  30.114  -1.4340  0.00  0.00     0.000 OA
ENDBRANCH 18 30
BRANCH 17 33
ATOM     33  O4  GCU B   3      14.104  32.198  -2.8820  0.00  0.00     0.000 O
BRANCH 33 37
ATOM     34  C1  GCU B   3      13.039  35.660  -4.9360  0.00  0.00     0.000 C
ATOM     35  C2  GCU B   3      11.943  34.930  -4.1580  0.00  0.00     0.000 C
ATOM     36  C3  GCU B   3      12.574  33.983  -3.1600  0.00  0.00     0.000 C
ATOM     37  C4  GCU B   3      13.531  33.044  -3.8810  0.00  0.00     0.000 C
ATOM     38  C5  GCU B   3      14.589  33.860  -4.6260  0.00  0.00     0.000 C
ATOM     39  O5  GCU B   3      13.927  34.725  -5.5550  0.00  0.00     0.000 O
ATOM     40   O  GCU B   3      11.135  35.895  -3.4810  0.00  0.00     0.000 O
ATOM     42  HD  GCU B   3      10.799  36.083  -2.7050  0.00  0.00     0.000 HD
ATOM     42   O  GCU B   3      11.571  33.225  -2.4590  0.00  0.00     0.000 O
ATOM     44  HD  GCU B   3      11.235  33.413  -1.6840  0.00  0.00     0.000 HD
BRANCH 38 44
ATOM     44   C  GCU B   3      15.562  32.995  -5.3880  0.00  0.00     0.000 C
ATOM     45   O  GCU B   3      16.731  32.915  -4.9810  0.00  0.00     0.000 OA
ATOM     46   O  GCU B   3      15.178  32.378  -6.4000  0.00  0.00     0.000 OA
ENDBRANCH 38 44
BRANCH 34 47
ATOM     47  O3  NAG B   4      12.481  36.324  -5.9380  0.00  0.00     0.000 O
BRANCH 47 50
ATOM     48  C1  NAG B   4      11.834  37.279  -9.4630  0.00  0.00     0.000 C
ATOM     49  C2  NAG B   4      12.583  37.193  -8.1380  0.00  0.00     0.000 C
ATOM     50  C3  NAG B   4      12.062  36.055  -7.2750  0.00  0.00     0.000 C
ATOM     51  C4  NAG B   4      10.537  35.902  -7.3100  0.00  0.00     0.000 C
ATOM     52  C5  NAG B   4      10.042  35.639  -8.7220  0.00  0.00     0.000 C
ATOM     53  O5  NAG B   4      10.689  36.443  -9.7330  0.00  0.00     0.000 O
BRANCH 49 56
ATOM     54   N  NAG B   4      13.782  36.584  -8.7400  0.00  0.00     0.000 N
ATOM     56  HD  NAG B   4      13.786  35.937  -9.3150  0.00  0.00     0.000 HD
ATOM     56   C  NAG B   4      16.130  36.142  -9.1690  0.00  0.00     0.000 C
ATOM     57   O  NAG B   4      15.381  37.484  -7.3980  0.00  0.00     0.000 OA
ATOM     58   C  NAG B   4      15.057  36.792  -8.3510  0.00  0.00     0.000 C
ENDBRANCH 49 56
ATOM     59   O  NAG B   4       7.933  35.269  -9.9510  0.00  0.00     0.000 O
ATOM     61  HD  NAG B   4       8.541  35.819  -9.6700  0.00  0.00     0.000 HD
ATOM     61   O  NAG B   4       7.933  35.269  -9.9510  0.00  0.00     0.000 O
ATOM     63  HD  NAG B   4       8.541  35.819  -9.6700  0.00  0.00     0.000 HD
ENDBRANCH 47 50
ENDBRANCH 34 47
ENDBRANCH 33 37
ENDBRANCH 17 33
ENDBRANCH 16 19
ENDBRANCH 1 16
TORSDOF 10
ENDMDL
MODEL 96
REMARK VINA RESULT:      -6.3      7.342     13.718
ROOT
ATOM      1  C1  GCU B   1      11.180  34.819  -6.3370  0.00  0.00     0.000 C
ATOM      2  C2  GCU B   1      11.496  35.689  -5.1300  0.00  0.00     0.000 C
ATOM      3  C3  GCU B   1      12.191  34.871  -4.0530  0.00  0.00     0.000 C
ATOM      4  C4  GCU B   1      11.394  33.611  -3.7530  0.00  0.00     0.000 C
ATOM      5  C5  GCU B   1      11.077  32.842  -5.0370  0.00  0.00     0.000 C
ATOM      6  O5  GCU B   1      10.368  33.703  -5.9370  0.00  0.00     0.000 O
ATOM      7   O  GCU B   1      12.330  36.755  -5.5710  0.00  0.00     0.000 O
ATOM      9  HD  GCU B   1      12.194  37.600  -5.4350  0.00  0.00     0.000 HD
ATOM      9   O  GCU B   1      12.347  35.641  -2.8580  0.00  0.00     0.000 O
ATOM     11  HD  GCU B   1      12.211  36.485  -2.7210  0.00  0.00     0.000 HD
ATOM     11   O  GCU B   1      12.153  32.784  -2.8690  0.00  0.00     0.000 O
ATOM     13  HD  GCU B   1      12.018  33.629  -2.7330  0.00  0.00     0.000 HD
ENDROOT
BRANCH 5 13
ATOM     13   C  GCU B   1      10.299  31.591  -4.7080  0.00  0.00     0.000 C
ATOM     14   O  GCU B   1      10.879  30.595  -4.2260  0.00  0.00     0.000 OA
ATOM     15   O  GCU B   1       9.070  31.610  -4.9090  0.00  0.00     0.000 OA
ENDBRANCH 5 13
BRANCH 1 16
ATOM     16  O3  NAG B   2      10.212  34.999  -7.2390  0.00  0.00     0.000 O
BRANCH 16 19
ATOM     17  C1  NAG B   2      10.098  35.875 -10.9060  0.00  0.00     0.000 C
ATOM     18  C2  NAG B   2      10.378  36.076  -9.4220  0.00  0.00     0.000 C
ATOM     19  C3  NAG B   2      10.130  34.778  -8.6550  0.00  0.00     0.000 C
ATOM     20  C4  NAG B   2       8.738  34.232  -8.9710  0.00  0.00     0.000 C
ATOM     21  C5  NAG B   2       8.576  34.069 -10.4750  0.00  0.00     0.000 C
ATOM     22  O5  NAG B   2       8.778  35.346 -11.1060  0.00  0.00     0.000 O
ATOM     23   O  NAG B   2       8.581  32.980  -8.2940  0.00  0.00     0.000 O
ATOM     25  HD  NAG B   2       8.096  33.642  -8.0170  0.00  0.00     0.000 HD
ATOM     25   C  NAG B   2       7.210  33.510 -10.8660  0.00  0.00     0.000 C
ATOM     26   O  NAG B   2       6.171  34.488 -10.7060  0.00  0.00     0.000 O
ATOM     28  HD  NAG B   2       5.686  35.150 -10.4300  0.00  0.00     0.000 HD
BRANCH 18 30
ATOM     28   N  NAG B   2      11.725  36.539  -9.1470  0.00  0.00     0.000 N
ATOM     30  HD  NAG B   2      11.240  37.241  -8.9960  0.00  0.00     0.000 HD
ATOM     30   C  NAG B   2      12.035  37.813  -8.8740  0.00  0.00     0.000 C
ATOM     31   C  NAG B   2      13.484  38.145  -8.6550  0.00  0.00     0.000 C
ATOM     32   O  NAG B   2      11.185  38.678  -8.8040  0.00  0.00     0.000 OA
ENDBRANCH 18 30
BRANCH 17 33
ATOM     33  O4  GCU B   3      10.315  37.139 -11.5650  0.00  0.00     0.000 O
BRANCH 33 37
ATOM     34  C1  GCU B   3       9.990  38.222 -15.5720  0.00  0.00     0.000 C
ATOM     35  C2  GCU B   3       8.697  38.085 -14.7670  0.00  0.00     0.000 C
ATOM     36  C3  GCU B   3       9.016  38.114 -13.2870  0.00  0.00     0.000 C
ATOM     37  C4  GCU B   3      10.046  37.040 -12.9650  0.00  0.00     0.000 C
ATOM     38  C5  GCU B   3      11.301  37.260 -13.8130  0.00  0.00     0.000 C
ATOM     39  O5  GCU B   3      10.931  37.212 -15.1940  0.00  0.00     0.000 O
ATOM     40   O  GCU B   3       7.824  39.164 -15.1050  0.00  0.00     0.000 O
ATOM     42  HD  GCU B   3       7.332  39.784 -14.7530  0.00  0.00     0.000 HD
ATOM     42   O  GCU B   3       7.830  37.914 -12.4980  0.00  0.00     0.000 O
ATOM     44  HD  GCU B   3       7.338  38.534 -12.1450  0.00  0.00     0.000 HD
BRANCH 38 44
ATOM     44   C  GCU B   3      12.360  36.215 -13.5650  0.00  0.00     0.000 C
ATOM     45   O  GCU B   3      12.243  35.109 -14.1140  0.00  0.00     0.000 OA
ATOM     46   O  GCU B   3      13.326  36.479 -12.8250  0.00  0.00     0.000 OA
ENDBRANCH 38 44
BRANCH 34 47
ATOM     47  O3  NAG B   4       9.724  37.989 -16.8490  0.00  0.00     0.000 O
BRANCH 47 50
ATOM     48  C1  NAG B   4       8.785  39.583 -20.0640  0.00  0.00     0.000 C
ATOM     49  C2  NAG B   4       8.763  39.308 -18.5640  0.00  0.00     0.000 C
ATOM     50  C3  NAG B   4      10.021  38.585 -18.1110  0.00  0.00     0.000 C
ATOM     51  C4  NAG B   4      10.496  37.502 -19.0870  0.00  0.00     0.000 C
ATOM     52  C5  NAG B   4      10.800  38.088 -20.4560  0.00  0.00     0.000 C
ATOM     53  O5  NAG B   4       9.835  39.064 -20.9070  0.00  0.00     0.000 O
BRANCH 49 56
ATOM     54   N  NAG B   4       9.174  40.619 -18.0320  0.00  0.00     0.000 N
ATOM     56  HD  NAG B   4       9.987  40.911 -17.9780  0.00  0.00     0.000 HD
ATOM     56   C  NAG B   4       8.987  42.808 -16.9990  0.00  0.00     0.000 C
ATOM     57   O  NAG B   4       7.220  41.268 -17.0670  0.00  0.00     0.000 OA
ATOM     58   C  NAG B   4       8.385  41.487 -17.3660  0.00  0.00     0.000 C
ENDBRANCH 49 56
ATOM     59   O  NAG B   4      11.562  37.376 -22.6930  0.00  0.00     0.000 O
ATOM     61  HD  NAG B   4      10.907  37.544 -22.1520  0.00  0.00     0.000 HD
ATOM     61   O  NAG B   4      11.562  37.376 -22.6930  0.00  0.00     0.000 O
ATOM     63  HD  NAG B   4      10.907  37.544 -22.1520  0.00  0.00     0.000 HD
ENDBRANCH 47 50
ENDBRANCH 34 47
ENDBRANCH 33 37
ENDBRANCH 17 33
ENDBRANCH 16 19
ENDBRANCH 1 16
TORSDOF 10
ENDMDL
MODEL 97
REMARK VINA RESULT:      -6.3      4.165      6.574
ROOT
ATOM      1  C1  GCU B   1       8.134  31.675  -7.2300  0.00  0.00     0.000 C
ATOM      2  C2  GCU B   1       9.573  31.628  -6.7410  0.00  0.00     0.000 C
ATOM      3  C3  GCU B   1      10.115  33.036  -6.5480  0.00  0.00     0.000 C
ATOM      4  C4  GCU B   1       9.883  33.865  -7.8010  0.00  0.00     0.000 C
ATOM      5  C5  GCU B   1       8.420  33.796  -8.2440  0.00  0.00     0.000 C
ATOM      6  O5  GCU B   1       8.057  32.424  -8.4530  0.00  0.00     0.000 O
ATOM      7   O  GCU B   1       9.589  30.908  -5.5120  0.00  0.00     0.000 O
ATOM      9  HD  GCU B   1      10.097  30.233  -5.3220  0.00  0.00     0.000 HD
ATOM      9   O  GCU B   1      11.511  33.001  -6.2420  0.00  0.00     0.000 O
ATOM     11  HD  GCU B   1      12.019  32.326  -6.0520  0.00  0.00     0.000 HD
ATOM     11   O  GCU B   1      10.243  35.220  -7.5320  0.00  0.00     0.000 O
ATOM     13  HD  GCU B   1      10.751  34.545  -7.3420  0.00  0.00     0.000 HD
ENDROOT
BRANCH 5 13
ATOM     13   C  GCU B   1       8.217  34.638  -9.4810  0.00  0.00     0.000 C
ATOM     14   O  GCU B   1       7.182  35.322  -9.6150  0.00  0.00     0.000 OA
ATOM     15   O  GCU B   1       9.128  34.638 -10.3310  0.00  0.00     0.000 OA
ENDBRANCH 5 13
BRANCH 1 16
ATOM     16  O3  NAG B   2       7.486  30.749  -7.9400  0.00  0.00     0.000 O
BRANCH 16 19
ATOM     17  C1  NAG B   2       4.363  28.867  -6.9730  0.00  0.00     0.000 C
ATOM     18  C2  NAG B   2       5.757  29.458  -6.8010  0.00  0.00     0.000 C
ATOM     19  C3  NAG B   2       6.112  30.333  -8.0010  0.00  0.00     0.000 C
ATOM     20  C4  NAG B   2       5.907  29.560  -9.3030  0.00  0.00     0.000 C
ATOM     21  C5  NAG B   2       4.484  29.023  -9.3650  0.00  0.00     0.000 C
ATOM     22  O5  NAG B   2       4.257  28.174  -8.2270  0.00  0.00     0.000 O
ATOM     23   O  NAG B   2       6.177  30.442 -10.3990  0.00  0.00     0.000 O
ATOM     25  HD  NAG B   2       6.731  29.789 -10.2720  0.00  0.00     0.000 HD
ATOM     25   C  NAG B   2       4.200  28.250 -10.6520  0.00  0.00     0.000 C
ATOM     26   O  NAG B   2       4.847  26.968 -10.6540  0.00  0.00     0.000 O
ATOM     28  HD  NAG B   2       5.401  26.315 -10.5270  0.00  0.00     0.000 HD
BRANCH 18 30
ATOM     28   N  NAG B   2       5.613  29.985  -5.4570  0.00  0.00     0.000 N
ATOM     30  HD  NAG B   2       6.402  29.628  -5.4460  0.00  0.00     0.000 HD
ATOM     30   C  NAG B   2       6.500  29.779  -4.4760  0.00  0.00     0.000 C
ATOM     31   C  NAG B   2       6.189  30.354  -3.1230  0.00  0.00     0.000 C
ATOM     32   O  NAG B   2       7.523  29.149  -4.6590  0.00  0.00     0.000 OA
ENDBRANCH 18 30
BRANCH 17 33
ATOM     33  O4  GCU B   3       4.102  28.026  -5.8310  0.00  0.00     0.000 O
BRANCH 33 37
ATOM     34  C1  GCU B   3       0.629  26.094  -4.5930  0.00  0.00     0.000 C
ATOM     35  C2  GCU B   3       1.362  25.526  -5.8090  0.00  0.00     0.000 C
ATOM     36  C3  GCU B   3       2.776  26.066  -5.8470  0.00  0.00     0.000 C
ATOM     37  C4  GCU B   3       2.743  27.588  -5.8160  0.00  0.00     0.000 C
ATOM     38  C5  GCU B   3       1.995  28.061  -4.5680  0.00  0.00     0.000 C
ATOM     39  O5  GCU B   3       0.669  27.523  -4.6000  0.00  0.00     0.000 O
ATOM     40   O  GCU B   3       1.380  24.100  -5.7160  0.00  0.00     0.000 O
ATOM     42  HD  GCU B   3       1.910  23.418  -5.7640  0.00  0.00     0.000 HD
ATOM     42   O  GCU B   3       3.473  25.610  -7.0200  0.00  0.00     0.000 O
ATOM     44  HD  GCU B   3       4.004  24.928  -7.0680  0.00  0.00     0.000 HD
BRANCH 38 44
ATOM     44   C  GCU B   3       1.900  29.564  -4.4810  0.00  0.00     0.000 C
ATOM     45   O  GCU B   3       2.835  30.189  -3.9580  0.00  0.00     0.000 OA
ATOM     46   O  GCU B   3       0.896  30.146  -4.9350  0.00  0.00     0.000 OA
ENDBRANCH 38 44
BRANCH 34 47
ATOM     47  O3  NAG B   4      -0.656  25.782  -4.6850  0.00  0.00     0.000 O
BRANCH 47 50
ATOM     48  C1  NAG B   4      -1.441  22.580  -2.9850  0.00  0.00     0.000 C
ATOM     49  C2  NAG B   4      -0.709  23.888  -3.2650  0.00  0.00     0.000 C
ATOM     50  C3  NAG B   4      -1.550  24.827  -4.1150  0.00  0.00     0.000 C
ATOM     51  C4  NAG B   4      -2.321  24.120  -5.2360  0.00  0.00     0.000 C
ATOM     52  C5  NAG B   4      -3.270  23.073  -4.6760  0.00  0.00     0.000 C
ATOM     53  O5  NAG B   4      -2.710  22.283  -3.6040  0.00  0.00     0.000 O
BRANCH 49 56
ATOM     54   N  NAG B   4      -0.955  24.575  -1.9840  0.00  0.00     0.000 N
ATOM     56  HD  NAG B   4      -1.711  24.910  -1.7270  0.00  0.00     0.000 HD
ATOM     56   C  NAG B   4      -0.498  25.562   0.1850  0.00  0.00     0.000 C
ATOM     57   O  NAG B   4       1.188  24.846  -1.2790  0.00  0.00     0.000 OA
ATOM     58   C  NAG B   4      -0.015  24.966  -1.1010  0.00  0.00     0.000 C
ENDBRANCH 49 56
ATOM     59   O  NAG B   4      -4.908  21.395  -5.4500  0.00  0.00     0.000 O
ATOM     61  HD  NAG B   4      -4.095  21.586  -5.2190  0.00  0.00     0.000 HD
ATOM     61   O  NAG B   4      -4.908  21.395  -5.4500  0.00  0.00     0.000 O
ATOM     63  HD  NAG B   4      -4.095  21.586  -5.2190  0.00  0.00     0.000 HD
ENDBRANCH 47 50
ENDBRANCH 34 47
ENDBRANCH 33 37
ENDBRANCH 17 33
ENDBRANCH 16 19
ENDBRANCH 1 16
TORSDOF 10
ENDMDL
MODEL 98
REMARK VINA RESULT:      -6.3      7.703     11.672
ROOT
ATOM      1  C1  GCU B   1       9.730  20.640  -2.6510  0.00  0.00     0.000 C
ATOM      2  C2  GCU B   1      11.088  20.704  -3.3330  0.00  0.00     0.000 C
ATOM      3  C3  GCU B   1      11.349  19.428  -4.1190  0.00  0.00     0.000 C
ATOM      4  C4  GCU B   1      11.124  18.211  -3.2360  0.00  0.00     0.000 C
ATOM      5  C5  GCU B   1       9.758  18.273  -2.5500  0.00  0.00     0.000 C
ATOM      6  O5  GCU B   1       9.668  19.488  -1.7940  0.00  0.00     0.000 O
ATOM      7   O  GCU B   1      11.085  21.837  -4.1960  0.00  0.00     0.000 O
ATOM      9  HD  GCU B   1      11.678  22.468  -4.2120  0.00  0.00     0.000 HD
ATOM      9   O  GCU B   1      12.684  19.415  -4.6310  0.00  0.00     0.000 O
ATOM     11  HD  GCU B   1      13.277  20.047  -4.6470  0.00  0.00     0.000 HD
ATOM     11   O  GCU B   1      11.207  17.034  -4.0410  0.00  0.00     0.000 O
ATOM     13  HD  GCU B   1      11.800  17.666  -4.0570  0.00  0.00     0.000 HD
ENDROOT
BRANCH 5 13
ATOM     13   C  GCU B   1       9.558  17.047  -1.6920  0.00  0.00     0.000 C
ATOM     14   O  GCU B   1      10.515  16.285  -1.4460  0.00  0.00     0.000 OA
ATOM     15   O  GCU B   1       8.418  16.853  -1.2260  0.00  0.00     0.000 OA
ENDBRANCH 5 13
BRANCH 1 16
ATOM     16  O3  NAG B   2       9.342  21.286  -1.5490  0.00  0.00     0.000 O
BRANCH 16 19
ATOM     17  C1  NAG B   2       6.609  23.857  -1.1650  0.00  0.00     0.000 C
ATOM     18  C2  NAG B   2       7.840  23.195  -1.7720  0.00  0.00     0.000 C
ATOM     19  C3  NAG B   2       8.088  21.838  -1.1180  0.00  0.00     0.000 C
ATOM     20  C4  NAG B   2       8.129  21.979   0.4030  0.00  0.00     0.000 C
ATOM     21  C5  NAG B   2       6.851  22.645   0.8930  0.00  0.00     0.000 C
ATOM     22  O5  NAG B   2       6.727  23.933   0.2640  0.00  0.00     0.000 O
ATOM     23   O  NAG B   2       8.285  20.675   0.9730  0.00  0.00     0.000 O
ATOM     25  HD  NAG B   2       8.951  21.223   1.0530  0.00  0.00     0.000 HD
ATOM     25   C  NAG B   2       6.814  22.806   2.4120  0.00  0.00     0.000 C
ATOM     26   O  NAG B   2       7.706  23.839   2.8580  0.00  0.00     0.000 O
ATOM     28  HD  NAG B   2       8.371  24.387   2.9370  0.00  0.00     0.000 HD
BRANCH 18 30
ATOM     28   N  NAG B   2       8.231  24.139  -2.8030  0.00  0.00     0.000 N
ATOM     30  HD  NAG B   2       8.029  23.427  -3.2530  0.00  0.00     0.000 HD
ATOM     30   C  NAG B   2       8.350  23.822  -4.0980  0.00  0.00     0.000 C
ATOM     31   C  NAG B   2       8.809  24.899  -5.0400  0.00  0.00     0.000 C
ATOM     32   O  NAG B   2       8.102  22.706  -4.5100  0.00  0.00     0.000 OA
ENDBRANCH 18 30
BRANCH 17 33
ATOM     33  O4  GCU B   3       6.450  25.144  -1.7960  0.00  0.00     0.000 O
BRANCH 33 37
ATOM     34  C1  GCU B   3       3.001  27.240  -2.8140  0.00  0.00     0.000 C
ATOM     35  C2  GCU B   3       3.601  27.490  -1.4300  0.00  0.00     0.000 C
ATOM     36  C3  GCU B   3       5.031  26.996  -1.4010  0.00  0.00     0.000 C
ATOM     37  C4  GCU B   3       5.077  25.535  -1.8250  0.00  0.00     0.000 C
ATOM     38  C5  GCU B   3       4.460  25.384  -3.2170  0.00  0.00     0.000 C
ATOM     39  O5  GCU B   3       3.111  25.860  -3.1720  0.00  0.00     0.000 O
ATOM     40   O  GCU B   3       3.556  28.892  -1.1520  0.00  0.00     0.000 O
ATOM     42  HD  GCU B   3       4.046  29.552  -0.8810  0.00  0.00     0.000 HD
ATOM     42   O  GCU B   3       5.606  27.150  -0.0910  0.00  0.00     0.000 O
ATOM     44  HD  GCU B   3       6.096  27.810   0.1810  0.00  0.00     0.000 HD
BRANCH 38 44
ATOM     44   C  GCU B   3       4.446  23.953  -3.6950  0.00  0.00     0.000 C
ATOM     45   O  GCU B   3       5.017  23.678  -4.7610  0.00  0.00     0.000 OA
ATOM     46   O  GCU B   3       3.872  23.080  -3.0160  0.00  0.00     0.000 OA
ENDBRANCH 38 44
BRANCH 34 47
ATOM     47  O3  NAG B   4       1.699  27.484  -2.7660  0.00  0.00     0.000 O
BRANCH 47 50
ATOM     48  C1  NAG B   4      -1.042  29.303  -4.4800  0.00  0.00     0.000 C
ATOM     49  C2  NAG B   4       0.351  29.060  -3.9080  0.00  0.00     0.000 C
ATOM     50  C3  NAG B   4       0.611  27.579  -3.6840  0.00  0.00     0.000 C
ATOM     51  C4  NAG B   4      -0.596  26.817  -3.1250  0.00  0.00     0.000 C
ATOM     52  C5  NAG B   4      -1.789  26.912  -4.0610  0.00  0.00     0.000 C
ATOM     53  O5  NAG B   4      -1.991  28.225  -4.6280  0.00  0.00     0.000 O
BRANCH 49 56
ATOM     54   N  NAG B   4       1.045  29.265  -5.1910  0.00  0.00     0.000 N
ATOM     56  HD  NAG B   4       0.838  28.891  -5.9440  0.00  0.00     0.000 HD
ATOM     56   C  NAG B   4       2.697  30.081  -6.7720  0.00  0.00     0.000 C
ATOM     57   O  NAG B   4       2.898  30.354  -4.4510  0.00  0.00     0.000 OA
ATOM     58   C  NAG B   4       2.220  29.903  -5.3630  0.00  0.00     0.000 C
ENDBRANCH 49 56
ATOM     59   O  NAG B   4      -4.137  26.164  -4.2170  0.00  0.00     0.000 O
ATOM     61  HD  NAG B   4      -3.567  26.773  -3.9830  0.00  0.00     0.000 HD
ATOM     61   O  NAG B   4      -4.137  26.164  -4.2170  0.00  0.00     0.000 O
ATOM     63  HD  NAG B   4      -3.567  26.773  -3.9830  0.00  0.00     0.000 HD
ENDBRANCH 47 50
ENDBRANCH 34 47
ENDBRANCH 33 37
ENDBRANCH 17 33
ENDBRANCH 16 19
ENDBRANCH 1 16
TORSDOF 10
ENDMDL
MODEL 99
REMARK VINA RESULT:      -6.2      3.255     11.951
ROOT
ATOM      1  C1  GCU B   1       0.744  27.670  -5.7480  0.00  0.00     0.000 C
ATOM      2  C2  GCU B   1       0.128  26.301  -5.9910  0.00  0.00     0.000 C
ATOM      3  C3  GCU B   1      -1.349  26.435  -6.3300  0.00  0.00     0.000 C
ATOM      4  C4  GCU B   1      -2.053  27.285  -5.2850  0.00  0.00     0.000 C
ATOM      5  C5  GCU B   1      -1.321  28.612  -5.0710  0.00  0.00     0.000 C
ATOM      6  O5  GCU B   1       0.036  28.344  -4.6950  0.00  0.00     0.000 O
ATOM      7   O  GCU B   1       0.839  25.692  -7.0640  0.00  0.00     0.000 O
ATOM      9  HD  GCU B   1       1.198  24.904  -7.0570  0.00  0.00     0.000 HD
ATOM      9   O  GCU B   1      -1.967  25.148  -6.4040  0.00  0.00     0.000 O
ATOM     11  HD  GCU B   1      -1.608  24.360  -6.3960  0.00  0.00     0.000 HD
ATOM     11   O  GCU B   1      -3.391  27.535  -5.7170  0.00  0.00     0.000 O
ATOM     13  HD  GCU B   1      -3.031  26.747  -5.7100  0.00  0.00     0.000 HD
ENDROOT
BRANCH 5 13
ATOM     13   C  GCU B   1      -2.050  29.440  -4.0400  0.00  0.00     0.000 C
ATOM     14   O  GCU B   1      -2.372  28.940  -2.9420  0.00  0.00     0.000 OA
ATOM     15   O  GCU B   1      -2.283  30.631  -4.3210  0.00  0.00     0.000 OA
ENDBRANCH 5 13
BRANCH 1 16
ATOM     16  O3  NAG B   2       1.813  27.960  -5.0020  0.00  0.00     0.000 O
BRANCH 16 19
ATOM     17  C1  NAG B   2       5.303  29.113  -5.8460  0.00  0.00     0.000 C
ATOM     18  C2  NAG B   2       4.086  28.198  -5.8560  0.00  0.00     0.000 C
ATOM     19  C3  NAG B   2       2.907  28.876  -5.1610  0.00  0.00     0.000 C
ATOM     20  C4  NAG B   2       3.319  29.369  -3.7740  0.00  0.00     0.000 C
ATOM     21  C5  NAG B   2       4.537  30.274  -3.8890  0.00  0.00     0.000 C
ATOM     22  O5  NAG B   2       5.607  29.538  -4.5070  0.00  0.00     0.000 O
ATOM     23   O  NAG B   2       2.210  30.064  -3.1940  0.00  0.00     0.000 O
ATOM     25  HD  NAG B   2       2.437  29.311  -2.8310  0.00  0.00     0.000 HD
ATOM     25   C  NAG B   2       4.998  30.819  -2.5380  0.00  0.00     0.000 C
ATOM     26   O  NAG B   2       5.636  29.805  -1.7470  0.00  0.00     0.000 O
ATOM     28  HD  NAG B   2       5.863  29.052  -1.3850  0.00  0.00     0.000 HD
BRANCH 18 30
ATOM     28   N  NAG B   2       4.126  27.847  -7.2630  0.00  0.00     0.000 N
ATOM     30  HD  NAG B   2       3.896  27.104  -6.8810  0.00  0.00     0.000 HD
ATOM     30   C  NAG B   2       3.967  26.600  -7.7260  0.00  0.00     0.000 C
ATOM     31   C  NAG B   2       4.080  26.389  -9.2100  0.00  0.00     0.000 C
ATOM     32   O  NAG B   2       3.744  25.665  -6.9840  0.00  0.00     0.000 OA
ENDBRANCH 18 30
BRANCH 17 33
ATOM     33  O4  GCU B   3       6.387  28.405  -6.4810  0.00  0.00     0.000 O
BRANCH 33 37
ATOM     34  C1  GCU B   3       9.906  29.795  -8.2180  0.00  0.00     0.000 C
ATOM     35  C2  GCU B   3       9.881  29.631  -6.6980  0.00  0.00     0.000 C
ATOM     36  C3  GCU B   3       8.723  28.740  -6.3030  0.00  0.00     0.000 C
ATOM     37  C4  GCU B   3       7.428  29.302  -6.8720  0.00  0.00     0.000 C
ATOM     38  C5  GCU B   3       7.545  29.427  -8.3920  0.00  0.00     0.000 C
ATOM     39  O5  GCU B   3       8.649  30.285  -8.6950  0.00  0.00     0.000 O
ATOM     40   O  GCU B   3      11.117  29.053  -6.2740  0.00  0.00     0.000 O
ATOM     42  HD  GCU B   3      11.443  28.415  -5.7880  0.00  0.00     0.000 HD
ATOM     42   O  GCU B   3       8.625  28.623  -4.8720  0.00  0.00     0.000 O
ATOM     44  HD  GCU B   3       8.951  27.984  -4.3860  0.00  0.00     0.000 HD
BRANCH 38 44
ATOM     44   C  GCU B   3       6.304  30.002  -9.0260  0.00  0.00     0.000 C
ATOM     45   O  GCU B   3       5.607  29.267  -9.7430  0.00  0.00     0.000 OA
ATOM     46   O  GCU B   3       5.999  31.193  -8.8190  0.00  0.00     0.000 OA
ENDBRANCH 38 44
BRANCH 34 47
ATOM     47  O3  NAG B   4      10.787  30.733  -8.5330  0.00  0.00     0.000 O
BRANCH 47 50
ATOM     48  C1  NAG B   4      13.369  29.420 -10.8490  0.00  0.00     0.000 C
ATOM     49  C2  NAG B   4      11.987  29.601 -10.2310  0.00  0.00     0.000 C
ATOM     50  C3  NAG B   4      11.908  30.874  -9.4040  0.00  0.00     0.000 C
ATOM     51  C4  NAG B   4      13.167  31.149  -8.5730  0.00  0.00     0.000 C
ATOM     52  C5  NAG B   4      14.394  31.282  -9.4590  0.00  0.00     0.000 C
ATOM     53  O5  NAG B   4      14.457  30.311 -10.5280  0.00  0.00     0.000 O
BRANCH 49 56
ATOM     54   N  NAG B   4      11.183  30.159 -11.3330  0.00  0.00     0.000 N
ATOM     56  HD  NAG B   4      11.058  31.001 -11.4910  0.00  0.00     0.000 HD
ATOM     56   C  NAG B   4       9.712  30.220 -13.2620  0.00  0.00     0.000 C
ATOM     57   O  NAG B   4      10.130  28.269 -12.0300  0.00  0.00     0.000 OA
ATOM     58   C  NAG B   4      10.359  29.464 -12.1430  0.00  0.00     0.000 C
ENDBRANCH 49 56
ATOM     59   O  NAG B   4      16.824  31.677  -9.2810  0.00  0.00     0.000 O
ATOM     61  HD  NAG B   4      16.166  31.116  -9.3270  0.00  0.00     0.000 HD
ATOM     61   O  NAG B   4      16.824  31.677  -9.2810  0.00  0.00     0.000 O
ATOM     63  HD  NAG B   4      16.166  31.116  -9.3270  0.00  0.00     0.000 HD
ENDBRANCH 47 50
ENDBRANCH 34 47
ENDBRANCH 33 37
ENDBRANCH 17 33
ENDBRANCH 16 19
ENDBRANCH 1 16
TORSDOF 10
ENDMDL
MODEL 100
REMARK VINA RESULT:      -6.2      5.997      8.554
ROOT
ATOM      1  C1  GCU B   1       9.852  31.646  -6.1270  0.00  0.00     0.000 C
ATOM      2  C2  GCU B   1      11.346  31.662  -6.4090  0.00  0.00     0.000 C
ATOM      3  C3  GCU B   1      11.971  32.950  -5.8960  0.00  0.00     0.000 C
ATOM      4  C4  GCU B   1      11.199  34.152  -6.4190  0.00  0.00     0.000 C
ATOM      5  C5  GCU B   1       9.702  34.009  -6.1400  0.00  0.00     0.000 C
ATOM      6  O5  GCU B   1       9.229  32.791  -6.7290  0.00  0.00     0.000 O
ATOM      7   O  GCU B   1      11.921  30.531  -5.7620  0.00  0.00     0.000 O
ATOM      9  HD  GCU B   1      12.431  29.935  -6.1310  0.00  0.00     0.000 HD
ATOM      9   O  GCU B   1      13.340  33.042  -6.2980  0.00  0.00     0.000 O
ATOM     11  HD  GCU B   1      13.849  32.447  -6.6670  0.00  0.00     0.000 HD
ATOM     11   O  GCU B   1      11.699  35.332  -5.7880  0.00  0.00     0.000 O
ATOM     13  HD  GCU B   1      12.208  34.736  -6.1560  0.00  0.00     0.000 HD
ENDROOT
BRANCH 5 13
ATOM     13   C  GCU B   1       8.965  35.221  -6.6570  0.00  0.00     0.000 C
ATOM     14   O  GCU B   1       8.730  35.345  -7.8760  0.00  0.00     0.000 OA
ATOM     15   O  GCU B   1       8.585  36.062  -5.8190  0.00  0.00     0.000 OA
ENDBRANCH 5 13
BRANCH 1 16
ATOM     16  O3  NAG B   2       8.906  30.977  -6.7910  0.00  0.00     0.000 O
BRANCH 16 19
ATOM     17  C1  NAG B   2       6.729  28.260  -5.3410  0.00  0.00     0.000 C
ATOM     18  C2  NAG B   2       8.006  29.050  -5.5960  0.00  0.00     0.000 C
ATOM     19  C3  NAG B   2       7.696  30.319  -6.3880  0.00  0.00     0.000 C
ATOM     20  C4  NAG B   2       6.898  29.978  -7.6460  0.00  0.00     0.000 C
ATOM     21  C5  NAG B   2       5.648  29.197  -7.2690  0.00  0.00     0.000 C
ATOM     22  O5  NAG B   2       6.039  27.999  -6.5740  0.00  0.00     0.000 O
ATOM     23   O  NAG B   2       6.564  31.201  -8.3130  0.00  0.00     0.000 O
ATOM     25  HD  NAG B   2       7.129  30.677  -8.7090  0.00  0.00     0.000 HD
ATOM     25   C  NAG B   2       4.790  28.834  -8.4790  0.00  0.00     0.000 C
ATOM     26   O  NAG B   2       5.391  27.791  -9.2620  0.00  0.00     0.000 O
ATOM     28  HD  NAG B   2       5.956  27.267  -9.6580  0.00  0.00     0.000 HD
BRANCH 18 30
ATOM     28   N  NAG B   2       9.038  28.283  -4.9220  0.00  0.00     0.000 N
ATOM     30  HD  NAG B   2       9.004  29.017  -4.4620  0.00  0.00     0.000 HD
ATOM     30   C  NAG B   2       9.791  28.762  -3.9240  0.00  0.00     0.000 C
ATOM     31   C  NAG B   2      10.851  27.859  -3.3570  0.00  0.00     0.000 C
ATOM     32   O  NAG B   2       9.636  29.884  -3.4860  0.00  0.00     0.000 OA
ENDBRANCH 18 30
BRANCH 17 33
ATOM     33  O4  GCU B   3       7.093  27.063  -4.6250  0.00  0.00     0.000 O
BRANCH 33 37
ATOM     34  C1  GCU B   3       5.043  24.874  -1.7360  0.00  0.00     0.000 C
ATOM     35  C2  GCU B   3       4.574  24.750  -3.1860  0.00  0.00     0.000 C
ATOM     36  C3  GCU B   3       5.661  25.248  -4.1150  0.00  0.00     0.000 C
ATOM     37  C4  GCU B   3       6.055  26.666  -3.7260  0.00  0.00     0.000 C
ATOM     38  C5  GCU B   3       6.511  26.692  -2.2660  0.00  0.00     0.000 C
ATOM     39  O5  GCU B   3       5.438  26.218  -1.4460  0.00  0.00     0.000 O
ATOM     40   O  GCU B   3       4.280  23.379  -3.4610  0.00  0.00     0.000 O
ATOM     42  HD  GCU B   3       4.434  22.747  -4.0330  0.00  0.00     0.000 HD
ATOM     42   O  GCU B   3       5.226  25.214  -5.4860  0.00  0.00     0.000 O
ATOM     44  HD  GCU B   3       5.381  24.582  -6.0580  0.00  0.00     0.000 HD
BRANCH 38 44
ATOM     44   C  GCU B   3       6.894  28.074  -1.8010  0.00  0.00     0.000 C
ATOM     45   O  GCU B   3       7.914  28.206  -1.1070  0.00  0.00     0.000 OA
ATOM     46   O  GCU B   3       6.190  29.051  -2.1200  0.00  0.00     0.000 OA
ENDBRANCH 38 44
BRANCH 34 47
ATOM     47  O3  NAG B   4       4.017  24.632  -0.9330  0.00  0.00     0.000 O
BRANCH 47 50
ATOM     48  C1  NAG B   4       2.939  24.780   2.6130  0.00  0.00     0.000 C
ATOM     49  C2  NAG B   4       3.867  24.534   1.4270  0.00  0.00     0.000 C
ATOM     50  C3  NAG B   4       3.383  25.258   0.1810  0.00  0.00     0.000 C
ATOM     51  C4  NAG B   4       1.862  25.214  -0.0070  0.00  0.00     0.000 C
ATOM     52  C5  NAG B   4       1.142  25.849   1.1710  0.00  0.00     0.000 C
ATOM     53  O5  NAG B   4       1.699  25.502   2.4580  0.00  0.00     0.000 O
BRANCH 49 56
ATOM     54   N  NAG B   4       4.909  25.469   1.8870  0.00  0.00     0.000 N
ATOM     56  HD  NAG B   4       4.780  26.291   2.1260  0.00  0.00     0.000 HD
ATOM     56   C  NAG B   4       7.117  26.314   2.4370  0.00  0.00     0.000 C
ATOM     57   O  NAG B   4       6.762  24.286   1.3130  0.00  0.00     0.000 OA
ATOM     58   C  NAG B   4       6.240  25.267   1.8210  0.00  0.00     0.000 C
ENDBRANCH 49 56
ATOM     59   O  NAG B   4      -1.150  26.314   1.9620  0.00  0.00     0.000 O
ATOM     61  HD  NAG B   4      -0.462  25.788   1.9510  0.00  0.00     0.000 HD
ATOM     61   O  NAG B   4      -1.150  26.314   1.9620  0.00  0.00     0.000 O
ATOM     63  HD  NAG B   4      -0.462  25.788   1.9510  0.00  0.00     0.000 HD
ENDBRANCH 47 50
ENDBRANCH 34 47
ENDBRANCH 33 37
ENDBRANCH 17 33
ENDBRANCH 16 19
ENDBRANCH 1 16
TORSDOF 10
ENDMDL
