ROOT
ATOM      1  C1  BGC B   1      18.490 -15.324  -18.230  0.00  0.00     0.000 C
ATOM      2  C2  BGC B   1      19.680 -14.399  -17.980  0.00  0.00     0.000 C
ATOM      3  C3  BGC B   1      19.210 -13.107  -17.340  0.00  0.00     0.000 C
ATOM      4  C4  BGC B   1      18.080 -12.484  -18.150  0.00  0.00     0.000 C
ATOM      5  C5  BGC B   1      16.970 -13.514  -18.300  0.00  0.00     0.000 C
ATOM      6  O5  BGC B   1      17.520 -14.639  -19.010  0.00  0.00     0.000 O
ATOM      7   O  BGC B   1      20.610 -15.052  -17.100  0.00  0.00     0.000 O
ATOM      9  HD  BGC B   1      21.110 -14.552  -16.600  0.00  0.00     0.000 HD
ATOM      9   O  BGC B   1      20.320 -12.210  -17.240  0.00  0.00     0.000 O
ATOM     11  HD  BGC B   1      20.820 -11.710  -16.740  0.00  0.00     0.000 HD
ATOM     11   O  BGC B   1      17.590 -11.343  -17.480  0.00  0.00     0.000 O
ATOM     13  HD  BGC B   1      18.090 -10.843  -16.980  0.00  0.00     0.000 HD
ATOM     13   C  BGC B   1      15.740 -13.023  -19.050  0.00  0.00     0.000 C
ATOM     14   O  BGC B   1      16.060 -12.511  -20.340  0.00  0.00     0.000 O
ATOM     16  HD  BGC B   1      16.560 -12.011  -19.840  0.00  0.00     0.000 HD
ENDROOT
BRANCH 1 16
ATOM     16  O4  BGC B   2      18.970 -16.372  -19.070  0.00  0.00     0.000 O
BRANCH 16 20
ATOM     17  C1  BGC B   2      17.930 -20.006  -20.570  0.00  0.00     0.000 C
ATOM     18  C2  BGC B   2      17.040 -18.869  -21.050  0.00  0.00     0.000 C
ATOM     19  C3  BGC B   2      17.730 -17.545  -20.730  0.00  0.00     0.000 C
ATOM     20  C4  BGC B   2      18.090 -17.477  -19.260  0.00  0.00     0.000 C
ATOM     21  C5  BGC B   2      18.820 -18.732  -18.780  0.00  0.00     0.000 C
ATOM     22  O5  BGC B   2      18.040 -19.879  -19.140  0.00  0.00     0.000 O
ATOM     23   O  BGC B   2      16.840 -18.964  -22.470  0.00  0.00     0.000 O
ATOM     25  HD  BGC B   2      17.340 -18.464  -21.970  0.00  0.00     0.000 HD
ATOM     25   O  BGC B   2      16.880 -16.459  -21.080  0.00  0.00     0.000 O
ATOM     27  HD  BGC B   2      17.380 -15.959  -20.580  0.00  0.00     0.000 HD
ATOM     27   C  BGC B   2      19.020 -18.762  -17.270  0.00  0.00     0.000 C
ATOM     28   O  BGC B   2      17.810 -18.641  -16.540  0.00  0.00     0.000 O
ATOM     30  HD  BGC B   2      18.310 -18.141  -16.040  0.00  0.00     0.000 HD
BRANCH 17 30
ATOM     30  O4  BGC B   3      17.210 -21.206  -20.780  0.00  0.00     0.000 O
BRANCH 30 34
ATOM     31  C1  BGC B   3      17.830 -25.271  -20.910  0.00  0.00     0.000 C
ATOM     32  C2  BGC B   3      18.320 -24.595  -19.630  0.00  0.00     0.000 C
ATOM     33  C3  BGC B   3      17.690 -23.217  -19.530  0.00  0.00     0.000 C
ATOM     34  C4  BGC B   3      17.990 -22.406  -20.790  0.00  0.00     0.000 C
ATOM     35  C5  BGC B   3      17.610 -23.196  -22.030  0.00  0.00     0.000 C
ATOM     36  O5  BGC B   3      18.260 -24.471  -22.000  0.00  0.00     0.000 O
ATOM     37   O  BGC B   3      17.910 -25.362  -18.500  0.00  0.00     0.000 O
ATOM     39  HD  BGC B   3      18.410 -24.862  -18.000  0.00  0.00     0.000 HD
ATOM     39   O  BGC B   3      18.210 -22.567  -18.380  0.00  0.00     0.000 O
ATOM     41  HD  BGC B   3      18.710 -22.067  -17.880  0.00  0.00     0.000 HD
ATOM     41   C  BGC B   3      17.960 -22.499  -23.340  0.00  0.00     0.000 C
ATOM     42   O  BGC B   3      19.340 -22.224  -23.390  0.00  0.00     0.000 O
ATOM     44  HD  BGC B   3      19.840 -21.724  -22.890  0.00  0.00     0.000 HD
BRANCH 31 44
ATOM     44  O4  BGC B   4      18.510 -26.495  -21.020  0.00  0.00     0.000 O
BRANCH 44 48
ATOM     45  C1  BGC B   4      18.200 -30.165  -22.820  0.00  0.00     0.000 C
ATOM     46  C2  BGC B   4      18.370 -28.996  -23.780  0.00  0.00     0.000 C
ATOM     47  C3  BGC B   4      18.860 -27.788  -23.020  0.00  0.00     0.000 C
ATOM     48  C4  BGC B   4      17.930 -27.489  -21.840  0.00  0.00     0.000 C
ATOM     49  C5  BGC B   4      17.730 -28.743  -20.980  0.00  0.00     0.000 C
ATOM     50  O5  BGC B   4      17.260 -29.823  -21.800  0.00  0.00     0.000 O
ATOM     51   O  BGC B   4      19.330 -29.331  -24.800  0.00  0.00     0.000 O
ATOM     53  HD  BGC B   4      19.830 -28.831  -24.300  0.00  0.00     0.000 HD
ATOM     53   O  BGC B   4      18.890 -26.663  -23.910  0.00  0.00     0.000 O
ATOM     55  HD  BGC B   4      19.390 -26.163  -23.410  0.00  0.00     0.000 HD
ATOM     55   C  BGC B   4      16.730 -28.576  -19.850  0.00  0.00     0.000 C
ATOM     56   O  BGC B   4      15.500 -28.125  -20.420  0.00  0.00     0.000 O
ATOM     58  HD  BGC B   4      16.000 -27.625  -19.920  0.00  0.00     0.000 HD
BRANCH 45 58
ATOM     58  O4  BGC B   5      17.500 -31.172  -23.550  0.00  0.00     0.000 O
BRANCH 58 62
ATOM     59  C1  BGC B   5      16.950 -35.271  -23.760  0.00  0.00     0.000 C
ATOM     60  C2  BGC B   5      16.430 -34.609  -22.500  0.00  0.00     0.000 C
ATOM     61  C3  BGC B   5      16.300 -33.111  -22.700  0.00  0.00     0.000 C
ATOM     62  C4  BGC B   5      17.630 -32.544  -23.170  0.00  0.00     0.000 C
ATOM     63  C5  BGC B   5      18.140 -33.309  -24.400  0.00  0.00     0.000 C
ATOM     64  O5  BGC B   5      18.220 -34.694  -24.080  0.00  0.00     0.000 O
ATOM     65   O  BGC B   5      20.370 -33.036  -23.730  0.00  0.00     0.000 O
ATOM     67  HD  BGC B   5      20.870 -32.536  -23.230  0.00  0.00     0.000 HD
ATOM     67   O  BGC B   5      20.370 -33.036  -23.730  0.00  0.00     0.000 O
ATOM     69  HD  BGC B   5      20.870 -32.536  -23.230  0.00  0.00     0.000 HD
ENDBRANCH 58 62
ENDBRANCH 45 58
ENDBRANCH 44 48
ENDBRANCH 31 44
ENDBRANCH 30 34
ENDBRANCH 17 30
ENDBRANCH 16 20
ENDBRANCH 1 16
TORSDOF 8