MODEL 1
REMARK VINA RESULT:      -8.9      0.000      0.000
ROOT
ATOM      1  C1  A00 X   1      28.730  11.305  15.9620  0.00  0.00     0.000 C
ATOM      2  C2  A00 X   1      28.353  10.684  14.5900  0.00  0.00     0.000 C
ATOM      3  C3  A00 X   1      29.443   9.786  13.9190  0.00  0.00     0.000 C
ATOM      4  C4  A00 X   1      30.872   9.919  14.5050  0.00  0.00     0.000 C
ATOM      5  C5  A00 X   1      31.078  11.249  15.2300  0.00  0.00     0.000 C
ATOM      6  O5  A00 X   1      30.131  11.221  16.3220  0.00  0.00     0.000 O
ATOM      7   O  A00 X   1      29.537  10.135  12.5390  0.00  0.00     0.000 O
ATOM      9  HD  A00 X   1      30.345  10.018  12.8290  0.00  0.00     0.000 HD
ATOM      9   O  A00 X   1      31.178   8.837  15.3840  0.00  0.00     0.000 O
ATOM     11  HD  A00 X   1      31.986   8.720  15.6740  0.00  0.00     0.000 HD
ENDROOT
BRANCH 2 11
ATOM     11   O  A00 X   1      27.154   9.907  14.7760  0.00  0.00     0.000 O
ATOM     12   O  A00 X   1      26.312   8.444  13.0680  0.00  0.00     0.000 OA
ATOM     13   O  A00 X   1      26.394  10.838  12.6490  0.00  0.00     0.000 OA
ATOM     14   O  A00 X   1      24.879   9.947  14.2510  0.00  0.00     0.000 OA
ATOM     15   S  A00 X   1      26.142   9.778  13.5850  0.00  0.00     0.000 S
ENDBRANCH 2 11
BRANCH 5 16
ATOM     16   C  A00 X   1      30.957  12.494  14.3460  0.00  0.00     0.000 C
ATOM     17   O  A00 X   1      30.959  12.354  13.1410  0.00  0.00     0.000 OA
ATOM     18   O  A00 X   1      30.853  13.613  14.8080  0.00  0.00     0.000 OA
ENDBRANCH 5 16
BRANCH 1 19
ATOM     19  O4  A00 X   2      28.222  12.651  16.1270  0.00  0.00     0.000 O
BRANCH 19 23
ATOM     20  C1  A00 X   2      24.339  14.232  15.2410  0.00  0.00     0.000 C
ATOM     21  C2  A00 X   2      24.410  12.808  15.8430  0.00  0.00     0.000 C
ATOM     22  C3  A00 X   2      25.785  12.557  16.4970  0.00  0.00     0.000 C
ATOM     23  C4  A00 X   2      26.925  12.841  15.4930  0.00  0.00     0.000 C
ATOM     24  C5  A00 X   2      26.731  14.284  14.9510  0.00  0.00     0.000 C
ATOM     25  O5  A00 X   2      25.437  14.367  14.2990  0.00  0.00     0.000 O
ATOM     26   O  A00 X   2      25.777  11.251  17.1000  0.00  0.00     0.000 O
ATOM     28  HD  A00 X   2      25.478  10.867  16.3840  0.00  0.00     0.000 HD
BRANCH 21 30
ATOM     28   N  A00 X   2      24.112  11.698  16.7530  0.00  0.00     0.000 N
ATOM     30  HD  A00 X   2      23.364  11.925  16.3820  0.00  0.00     0.000 HD
ATOM     30   O  A00 X   2      22.010  10.846  16.1960  0.00  0.00     0.000 OA
ATOM     31   S  A00 X   2      22.632  11.523  17.2780  0.00  0.00     0.000 S
ATOM     32   O  A00 X   2      22.784  10.747  18.4690  0.00  0.00     0.000 OA
ATOM     33   O  A00 X   2      22.138  12.830  17.5950  0.00  0.00     0.000 OA
ENDBRANCH 21 30
BRANCH 24 34
ATOM     34   C  A00 X   2      27.868  14.899  14.1020  0.00  0.00     0.000 C
ATOM     35   O  A00 X   2      28.449  14.115  10.5940  0.00  0.00     0.000 OA
ATOM     36   O  A00 X   2      28.072  14.155  12.8840  0.00  0.00     0.000 O
ATOM     37   O  A00 X   2      26.396  14.923  11.4450  0.00  0.00     0.000 OA
ATOM     38   S  A00 X   2      27.822  14.960  11.5570  0.00  0.00     0.000 S
ATOM     39   O  A00 X   2      28.441  16.239  11.7360  0.00  0.00     0.000 OA
ENDBRANCH 24 34
BRANCH 20 40
ATOM     40  O4  A00 X   3      24.539  15.130  16.3420  0.00  0.00     0.000 O
BRANCH 40 44
ATOM     41  C1  A00 X   3      25.466  17.961  18.4030  0.00  0.00     0.000 C
ATOM     42  C2  A00 X   3      24.412  16.901  18.7880  0.00  0.00     0.000 C
ATOM     43  C3  A00 X   3      23.381  16.704  17.6470  0.00  0.00     0.000 C
ATOM     44  C4  A00 X   3      23.995  16.465  16.2730  0.00  0.00     0.000 C
ATOM     45  C5  A00 X   3      25.039  17.573  15.9570  0.00  0.00     0.000 C
ATOM     46  O5  A00 X   3      25.984  17.732  17.0640  0.00  0.00     0.000 O
ATOM     47   O  A00 X   3      22.307  15.808  17.9260  0.00  0.00     0.000 O
ATOM     49  HD  A00 X   3      22.434  15.577  17.1010  0.00  0.00     0.000 HD
BRANCH 42 49
ATOM     49   O  A00 X   3      25.126  15.677  19.0710  0.00  0.00     0.000 O
ATOM     50   O  A00 X   3      24.546  13.417  19.6040  0.00  0.00     0.000 OA
ATOM     51   O  A00 X   3      23.327  15.175  20.6100  0.00  0.00     0.000 OA
ATOM     52   O  A00 X   3      25.588  14.874  21.2290  0.00  0.00     0.000 OA
ATOM     53   S  A00 X   3      24.628  14.718  20.1910  0.00  0.00     0.000 S
ENDBRANCH 42 49
BRANCH 45 54
ATOM     54   C  A00 X   3      24.365  18.888  15.5460  0.00  0.00     0.000 C
ATOM     55   O  A00 X   3      23.159  19.012  15.6130  0.00  0.00     0.000 OA
ATOM     56   O  A00 X   3      25.027  19.831  15.1440  0.00  0.00     0.000 OA
ENDBRANCH 45 54
BRANCH 41 57
ATOM     57  O4  A00 X   4      24.977  19.304  18.6220  0.00  0.00     0.000 O
BRANCH 57 61
ATOM     58  C1  A00 X   4      26.901  22.971  19.8420  0.00  0.00     0.000 C
ATOM     59  C2  A00 X   4      27.346  22.306  18.5150  0.00  0.00     0.000 C
ATOM     60  C3  A00 X   4      26.366  21.229  18.0080  0.00  0.00     0.000 C
ATOM     61  C4  A00 X   4      25.965  20.246  19.1290  0.00  0.00     0.000 C
ATOM     62  C5  A00 X   4      25.352  21.105  20.2640  0.00  0.00     0.000 C
ATOM     63  O5  A00 X   4      26.364  22.008  20.7770  0.00  0.00     0.000 O
BRANCH 59 66
ATOM     64   N  A00 X   4      28.432  21.860  17.6240  0.00  0.00     0.000 N
ATOM     66  HD  A00 X   4      28.850  21.133  17.8370  0.00  0.00     0.000 HD
ATOM     66   O  A00 X   4      29.713  23.742  18.4060  0.00  0.00     0.000 OA
ATOM     67   S  A00 X   4      29.587  22.903  17.2560  0.00  0.00     0.000 S
ATOM     68   O  A00 X   4      30.681  22.006  17.0240  0.00  0.00     0.000 OA
ATOM     69   O  A00 X   4      29.037  23.480  16.0630  0.00  0.00     0.000 OA
ENDBRANCH 59 66
BRANCH 62 70
ATOM     70   C  A00 X   4      24.784  20.281  21.4440  0.00  0.00     0.000 C
ATOM     71   O  A00 X   4      26.575  18.300  23.8880  0.00  0.00     0.000 OA
ATOM     72   O  A00 X   4      24.701  17.774  22.5620  0.00  0.00     0.000 OA
ATOM     73   O  A00 X   4      25.864  19.862  22.2940  0.00  0.00     0.000 O
ATOM     74   O  A00 X   4      26.917  17.828  21.5480  0.00  0.00     0.000 OA
ATOM     75   S  A00 X   4      26.038  18.326  22.5570  0.00  0.00     0.000 S
ENDBRANCH 62 70
ENDBRANCH 57 61
ENDBRANCH 41 57
ENDBRANCH 40 44
ENDBRANCH 20 40
ENDBRANCH 19 23
ENDBRANCH 1 19
TORSDOF 14
ENDMDL
MODEL 2
REMARK VINA RESULT:      -8.5      2.237     10.488
ROOT
ATOM      1  C1  A00 X   1      25.178  18.247  19.7590  0.00  0.00     0.000 C
ATOM      2  C2  A00 X   1      24.784  17.500  21.0610  0.00  0.00     0.000 C
ATOM      3  C3  A00 X   1      24.087  18.363  22.1640  0.00  0.00     0.000 C
ATOM      4  C4  A00 X   1      24.206  19.899  21.9850  0.00  0.00     0.000 C
ATOM      5  C5  A00 X   1      25.399  20.288  21.1120  0.00  0.00     0.000 C
ATOM      6  O5  A00 X   1      25.121  19.693  19.8250  0.00  0.00     0.000 O
ATOM      7   O  A00 X   1      24.677  18.056  23.4250  0.00  0.00     0.000 O
ATOM      9  HD  A00 X   1      24.562  18.914  23.4000  0.00  0.00     0.000 HD
ATOM      9   O  A00 X   1      23.009  20.455  21.4420  0.00  0.00     0.000 O
ATOM     11  HD  A00 X   1      22.894  21.313  21.4160  0.00  0.00     0.000 HD
ENDROOT
BRANCH 2 11
ATOM     11   O  A00 X   1      23.912  16.413  20.6960  0.00  0.00     0.000 O
ATOM     12   O  A00 X   1      22.784  15.080  22.3450  0.00  0.00     0.000 OA
ATOM     13   O  A00 X   1      25.214  15.041  22.2410  0.00  0.00     0.000 OA
ATOM     14   O  A00 X   1      23.917  14.087  20.4900  0.00  0.00     0.000 OA
ATOM     15   S  A00 X   1      23.969  15.084  21.5250  0.00  0.00     0.000 S
ENDBRANCH 2 11
BRANCH 5 16
ATOM     16   C  A00 X   1      26.769  19.906  21.6810  0.00  0.00     0.000 C
ATOM     17   O  A00 X   1      27.739  19.971  20.9530  0.00  0.00     0.000 OA
ATOM     18   O  A00 X   1      26.921  19.550  22.8320  0.00  0.00     0.000 OA
ENDBRANCH 5 16
BRANCH 1 19
ATOM     19  O4  A00 X   2      26.440  17.792  19.2110  0.00  0.00     0.000 O
BRANCH 19 23
ATOM     20  C1  A00 X   2      27.641  18.320  15.1320  0.00  0.00     0.000 C
ATOM     21  C2  A00 X   2      28.585  18.865  16.2310  0.00  0.00     0.000 C
ATOM     22  C3  A00 X   2      28.255  18.236  17.6000  0.00  0.00     0.000 C
ATOM     23  C4  A00 X   2      26.761  18.431  17.9420  0.00  0.00     0.000 C
ATOM     24  C5  A00 X   2      25.926  17.864  16.7610  0.00  0.00     0.000 C
ATOM     25  O5  A00 X   2      26.276  18.585  15.5520  0.00  0.00     0.000 O
ATOM     26   O  A00 X   2      29.199  18.720  18.5700  0.00  0.00     0.000 O
ATOM     28  HD  A00 X   2      29.077  19.549  18.3500  0.00  0.00     0.000 HD
BRANCH 21 30
ATOM     28   N  A00 X   2      28.933  19.968  15.3300  0.00  0.00     0.000 N
ATOM     30  HD  A00 X   2      29.533  19.956  15.9540  0.00  0.00     0.000 HD
ATOM     30   O  A00 X   2      31.144  20.588  15.7590  0.00  0.00     0.000 OA
ATOM     31   S  A00 X   2      29.841  21.139  15.8800  0.00  0.00     0.000 S
ATOM     32   O  A00 X   2      29.561  22.229  14.9970  0.00  0.00     0.000 OA
ATOM     33   O  A00 X   2      29.385  21.443  17.2040  0.00  0.00     0.000 OA
ENDBRANCH 21 30
BRANCH 24 34
ATOM     34   C  A00 X   2      24.397  17.727  16.9530  0.00  0.00     0.000 C
ATOM     35   O  A00 X   2      22.447  14.864  15.8330  0.00  0.00     0.000 OA
ATOM     36   O  A00 X   2      23.856  16.687  16.1150  0.00  0.00     0.000 O
ATOM     37   O  A00 X   2      24.316  14.708  17.2730  0.00  0.00     0.000 OA
ATOM     38   S  A00 X   2      23.183  15.490  16.8810  0.00  0.00     0.000 S
ATOM     39   O  A00 X   2      22.387  16.070  17.9200  0.00  0.00     0.000 OA
ENDBRANCH 24 34
BRANCH 20 40
ATOM     40  O4  A00 X   3      27.865  16.903  15.0960  0.00  0.00     0.000 O
BRANCH 40 44
ATOM     41  C1  A00 X   3      28.610  13.526  14.0160  0.00  0.00     0.000 C
ATOM     42  C2  A00 X   3      29.148  14.806  13.3390  0.00  0.00     0.000 C
ATOM     43  C3  A00 X   3      27.995  15.795  13.0280  0.00  0.00     0.000 C
ATOM     44  C4  A00 X   3      27.074  16.085  14.2070  0.00  0.00     0.000 C
ATOM     45  C5  A00 X   3      26.572  14.752  14.8300  0.00  0.00     0.000 C
ATOM     46  O5  A00 X   3      27.691  13.846  15.0970  0.00  0.00     0.000 O
ATOM     47   O  A00 X   3      28.364  16.979  12.3220  0.00  0.00     0.000 O
ATOM     49  HD  A00 X   3      27.789  17.342  12.8590  0.00  0.00     0.000 HD
BRANCH 42 49
ATOM     49   O  A00 X   3      30.115  15.387  14.2410  0.00  0.00     0.000 O
ATOM     50   O  A00 X   3      31.428  17.387  14.3180  0.00  0.00     0.000 OA
ATOM     51   O  A00 X   3      31.203  16.248  12.2580  0.00  0.00     0.000 OA
ATOM     52   O  A00 X   3      32.443  15.217  13.9870  0.00  0.00     0.000 OA
ATOM     53   S  A00 X   3      31.376  16.108  13.6830  0.00  0.00     0.000 S
ENDBRANCH 42 49
BRANCH 45 54
ATOM     54   C  A00 X   3      25.465  14.112  13.9840  0.00  0.00     0.000 C
ATOM     55   O  A00 X   3      25.099  14.631  12.9490  0.00  0.00     0.000 OA
ATOM     56   O  A00 X   3      24.932  13.071  14.3360  0.00  0.00     0.000 OA
ENDBRANCH 45 54
BRANCH 41 57
ATOM     57  O4  A00 X   4      28.078  12.594  13.0480  0.00  0.00     0.000 O
BRANCH 57 61
ATOM     58  C1  A00 X   4      28.107   8.277  13.1290  0.00  0.00     0.000 C
ATOM     59  C2  A00 X   4      26.742   9.009  13.1250  0.00  0.00     0.000 C
ATOM     60  C3  A00 X   4      26.844  10.498  12.7360  0.00  0.00     0.000 C
ATOM     61  C4  A00 X   4      27.969  11.218  13.5110  0.00  0.00     0.000 C
ATOM     62  C5  A00 X   4      29.274  10.443  13.2040  0.00  0.00     0.000 C
ATOM     63  O5  A00 X   4      29.155   9.088  13.7070  0.00  0.00     0.000 O
BRANCH 59 66
ATOM     64   N  A00 X   4      25.306   9.114  13.4430  0.00  0.00     0.000 N
ATOM     66  HD  A00 X   4      25.085   9.562  14.1510  0.00  0.00     0.000 HD
ATOM     66   O  A00 X   4      25.361   6.772  14.0010  0.00  0.00     0.000 OA
ATOM     67   S  A00 X   4      24.449   7.767  13.5290  0.00  0.00     0.000 S
ATOM     68   O  A00 X   4      23.434   8.165  14.4590  0.00  0.00     0.000 OA
ATOM     69   O  A00 X   4      23.996   7.668  12.1700  0.00  0.00     0.000 OA
ENDBRANCH 59 66
BRANCH 62 70
ATOM     70   C  A00 X   4      30.546  11.083  13.8090  0.00  0.00     0.000 C
ATOM     71   O  A00 X   4      31.773  10.895  17.2110  0.00  0.00     0.000 OA
ATOM     72   O  A00 X   4      31.464  12.748  15.7920  0.00  0.00     0.000 OA
ATOM     73   O  A00 X   4      30.770  10.545  15.1220  0.00  0.00     0.000 O
ATOM     74   O  A00 X   4      29.530  11.697  16.8370  0.00  0.00     0.000 OA
ATOM     75   S  A00 X   4      30.853  11.550  16.3230  0.00  0.00     0.000 S
ENDBRANCH 62 70
ENDBRANCH 57 61
ENDBRANCH 41 57
ENDBRANCH 40 44
ENDBRANCH 20 40
ENDBRANCH 19 23
ENDBRANCH 1 19
TORSDOF 14
ENDMDL
MODEL 3
REMARK VINA RESULT:      -8.4      4.114      6.706
ROOT
ATOM      1  C1  A00 X   1      29.104  12.813  16.0440  0.00  0.00     0.000 C
ATOM      2  C2  A00 X   1      28.995  11.405  15.3990  0.00  0.00     0.000 C
ATOM      3  C3  A00 X   1      30.151  10.405  15.7340  0.00  0.00     0.000 C
ATOM      4  C4  A00 X   1      31.425  11.038  16.3500  0.00  0.00     0.000 C
ATOM      5  C5  A00 X   1      31.546  12.526  16.0240  0.00  0.00     0.000 C
ATOM      6  O5  A00 X   1      30.387  13.132  16.6380  0.00  0.00     0.000 O
ATOM      7   O  A00 X   1      30.561   9.760  14.5300  0.00  0.00     0.000 O
ATOM      9  HD  A00 X   1      31.279   9.947  14.9770  0.00  0.00     0.000 HD
ATOM      9   O  A00 X   1      31.470  10.849  17.7640  0.00  0.00     0.000 O
ATOM     11  HD  A00 X   1      32.188  11.036  18.2110  0.00  0.00     0.000 HD
ENDROOT
BRANCH 2 11
ATOM     11   O  A00 X   1      27.741  10.829  15.8130  0.00  0.00     0.000 O
ATOM     12   O  A00 X   1      27.178   8.542  15.3430  0.00  0.00     0.000 OA
ATOM     13   O  A00 X   1      27.479  10.098  13.4970  0.00  0.00     0.000 OA
ATOM     14   O  A00 X   1      25.624  10.320  14.9700  0.00  0.00     0.000 OA
ATOM     15   S  A00 X   1      26.984   9.874  14.8270  0.00  0.00     0.000 S
ENDBRANCH 2 11
BRANCH 5 16
ATOM     16   C  A00 X   1      31.692  12.853  14.5340  0.00  0.00     0.000 C
ATOM     17   O  A00 X   1      31.663  14.017  14.1890  0.00  0.00     0.000 OA
ATOM     18   O  A00 X   1      31.842  11.993  13.6900  0.00  0.00     0.000 OA
ENDBRANCH 5 16
BRANCH 1 19
ATOM     19  O4  A00 X   2      28.651  13.870  15.1630  0.00  0.00     0.000 O
BRANCH 19 23
ATOM     20  C1  A00 X   2      24.758  14.473  13.4780  0.00  0.00     0.000 C
ATOM     21  C2  A00 X   2      24.835  13.842  14.8890  0.00  0.00     0.000 C
ATOM     22  C3  A00 X   2      26.220  14.086  15.5240  0.00  0.00     0.000 C
ATOM     23  C4  A00 X   2      27.344  13.594  14.5840  0.00  0.00     0.000 C
ATOM     24  C5  A00 X   2      27.144  14.281  13.2060  0.00  0.00     0.000 C
ATOM     25  O5  A00 X   2      25.840  13.915  12.6860  0.00  0.00     0.000 O
ATOM     26   O  A00 X   2      26.219  13.543  16.8560  0.00  0.00     0.000 O
ATOM     28  HD  A00 X   2      25.907  12.777  16.5970  0.00  0.00     0.000 HD
BRANCH 21 30
ATOM     28   N  A00 X   2      24.424  13.887  16.2960  0.00  0.00     0.000 N
ATOM     30  HD  A00 X   2      23.734  13.628  15.8410  0.00  0.00     0.000 HD
ATOM     30   O  A00 X   2      22.436  12.680  16.5120  0.00  0.00     0.000 OA
ATOM     31   S  A00 X   2      22.886  14.021  16.6330  0.00  0.00     0.000 S
ATOM     32   O  A00 X   2      22.875  14.545  17.9640  0.00  0.00     0.000 OA
ATOM     33   O  A00 X   2      22.334  14.976  15.7180  0.00  0.00     0.000 OA
ENDBRANCH 21 30
BRANCH 24 34
ATOM     34   C  A00 X   2      28.269  14.136  12.1530  0.00  0.00     0.000 C
ATOM     35   O  A00 X   2      29.863  16.944  10.4710  0.00  0.00     0.000 OA
ATOM     36   O  A00 X   2      28.453  15.360  11.4140  0.00  0.00     0.000 O
ATOM     37   O  A00 X   2      29.754  16.700  12.8210  0.00  0.00     0.000 OA
ATOM     38   S  A00 X   2      29.869  16.027  11.5630  0.00  0.00     0.000 S
ATOM     39   O  A00 X   2      30.828  14.969  11.4620  0.00  0.00     0.000 OA
ENDBRANCH 24 34
BRANCH 20 40
ATOM     40  O4  A00 X   3      24.978  15.878  13.6690  0.00  0.00     0.000 O
BRANCH 40 44
ATOM     41  C1  A00 X   3      26.590  18.440  11.6770  0.00  0.00     0.000 C
ATOM     42  C2  A00 X   3      26.165  18.609  13.1520  0.00  0.00     0.000 C
ATOM     43  C3  A00 X   3      24.687  18.188  13.3560  0.00  0.00     0.000 C
ATOM     44  C4  A00 X   3      24.333  16.821  12.7850  0.00  0.00     0.000 C
ATOM     45  C5  A00 X   3      24.786  16.730  11.3010  0.00  0.00     0.000 C
ATOM     46  O5  A00 X   3      26.183  17.145  11.1540  0.00  0.00     0.000 O
ATOM     47   O  A00 X   3      24.158  18.385  14.6660  0.00  0.00     0.000 O
ATOM     49  HD  A00 X   3      23.773  17.627  14.5010  0.00  0.00     0.000 HD
BRANCH 42 49
ATOM     49   O  A00 X   3      27.059  17.797  13.9460  0.00  0.00     0.000 O
ATOM     50   O  A00 X   3      27.286  17.226  16.2590  0.00  0.00     0.000 OA
ATOM     51   O  A00 X   3      26.763  19.458  15.6810  0.00  0.00     0.000 OA
ATOM     52   O  A00 X   3      28.906  18.625  15.1350  0.00  0.00     0.000 OA
ATOM     53   S  A00 X   3      27.539  18.291  15.3410  0.00  0.00     0.000 S
ENDBRANCH 42 49
BRANCH 45 54
ATOM     54   C  A00 X   3      23.831  17.485  10.3690  0.00  0.00     0.000 C
ATOM     55   O  A00 X   3      22.914  18.139  10.8210  0.00  0.00     0.000 OA
ATOM     56   O  A00 X   3      23.975  17.441   9.1570  0.00  0.00     0.000 OA
ENDBRANCH 45 54
BRANCH 41 57
ATOM     57  O4  A00 X   4      26.167  19.559  10.8680  0.00  0.00     0.000 O
BRANCH 57 61
ATOM     58  C1  A00 X   4      27.835  21.438   7.3570  0.00  0.00     0.000 C
ATOM     59  C2  A00 X   4      27.447  19.940   7.2830  0.00  0.00     0.000 C
ATOM     60  C3  A00 X   4      26.546  19.480   8.4470  0.00  0.00     0.000 C
ATOM     61  C4  A00 X   4      27.093  19.946   9.8140  0.00  0.00     0.000 C
ATOM     62  C5  A00 X   4      27.204  21.489   9.7360  0.00  0.00     0.000 C
ATOM     63  O5  A00 X   4      28.160  21.847   8.7060  0.00  0.00     0.000 O
BRANCH 59 66
ATOM     64   N  A00 X   4      27.017  18.926   6.3030  0.00  0.00     0.000 N
ATOM     66  HD  A00 X   4      27.075  18.094   6.5380  0.00  0.00     0.000 HD
ATOM     66   O  A00 X   4      28.965  19.497   5.0080  0.00  0.00     0.000 OA
ATOM     67   S  A00 X   4      27.644  18.979   4.8330  0.00  0.00     0.000 S
ATOM     68   O  A00 X   4      27.567  17.595   4.4680  0.00  0.00     0.000 OA
ATOM     69   O  A00 X   4      26.680  19.815   4.1770  0.00  0.00     0.000 OA
ENDBRANCH 59 66
BRANCH 62 70
ATOM     70   C  A00 X   4      27.636  22.159  11.0620  0.00  0.00     0.000 C
ATOM     71   O  A00 X   4      30.845  22.005  12.7330  0.00  0.00     0.000 OA
ATOM     72   O  A00 X   4      28.666  21.671  13.5610  0.00  0.00     0.000 OA
ATOM     73   O  A00 X   4      29.059  22.033  11.2160  0.00  0.00     0.000 O
ATOM     74   O  A00 X   4      29.718  19.939  12.2090  0.00  0.00     0.000 OA
ATOM     75   S  A00 X   4      29.598  21.329  12.5100  0.00  0.00     0.000 S
ENDBRANCH 62 70
ENDBRANCH 57 61
ENDBRANCH 41 57
ENDBRANCH 40 44
ENDBRANCH 20 40
ENDBRANCH 19 23
ENDBRANCH 1 19
TORSDOF 14
ENDMDL
MODEL 4
REMARK VINA RESULT:      -8.3      2.301      2.668
ROOT
ATOM      1  C1  A00 X   1      29.179  10.950  15.8900  0.00  0.00     0.000 C
ATOM      2  C2  A00 X   1      28.609  10.713  14.4660  0.00  0.00     0.000 C
ATOM      3  C3  A00 X   1      29.465   9.801  13.5260  0.00  0.00     0.000 C
ATOM      4  C4  A00 X   1      30.925   9.552  13.9850  0.00  0.00     0.000 C
ATOM      5  C5  A00 X   1      31.425  10.639  14.9360  0.00  0.00     0.000 C
ATOM      6  O5  A00 X   1      30.557  10.545  16.0880  0.00  0.00     0.000 O
ATOM      7   O  A00 X   1      29.543  10.415  12.2410  0.00  0.00     0.000 O
ATOM      9  HD  A00 X   1      30.329  10.098  12.4210  0.00  0.00     0.000 HD
ATOM      9   O  A00 X   1      31.068   8.271  14.5980  0.00  0.00     0.000 O
ATOM     11  HD  A00 X   1      31.853   7.954  14.7780  0.00  0.00     0.000 HD
ENDROOT
BRANCH 2 11
ATOM     11   O  A00 X   1      27.296  10.138  14.6100  0.00  0.00     0.000 O
ATOM     12   O  A00 X   1      26.099   9.222  12.7400  0.00  0.00     0.000 OA
ATOM     13   O  A00 X   1      26.614  11.599  12.7750  0.00  0.00     0.000 OA
ATOM     14   O  A00 X   1      25.046  10.683  14.3110  0.00  0.00     0.000 OA
ATOM     15   S  A00 X   1      26.215  10.433  13.5130  0.00  0.00     0.000 S
ENDBRANCH 2 11
BRANCH 5 16
ATOM     16   C  A00 X   1      31.495  12.045  14.3340  0.00  0.00     0.000 C
ATOM     17   O  A00 X   1      31.918  12.952  15.0210  0.00  0.00     0.000 OA
ATOM     18   O  A00 X   1      31.149  12.284  13.1940  0.00  0.00     0.000 OA
ENDBRANCH 5 16
BRANCH 1 19
ATOM     19  O4  A00 X   2      28.951  12.298  16.3690  0.00  0.00     0.000 O
BRANCH 19 23
ATOM     20  C1  A00 X   2      25.710  14.999  15.6190  0.00  0.00     0.000 C
ATOM     21  C2  A00 X   2      25.353  13.533  15.9610  0.00  0.00     0.000 C
ATOM     22  C3  A00 X   2      26.551  12.814  16.6160  0.00  0.00     0.000 C
ATOM     23  C4  A00 X   2      27.809  12.933  15.7260  0.00  0.00     0.000 C
ATOM     24  C5  A00 X   2      28.047  14.442  15.4410  0.00  0.00     0.000 C
ATOM     25  O5  A00 X   2      26.882  14.979  14.7620  0.00  0.00     0.000 O
ATOM     26   O  A00 X   2      26.149  11.481  16.9760  0.00  0.00     0.000 O
ATOM     28  HD  A00 X   2      25.824  11.313  16.1910  0.00  0.00     0.000 HD
BRANCH 21 30
ATOM     28   N  A00 X   2      24.701  12.405  16.6340  0.00  0.00     0.000 N
ATOM     30  HD  A00 X   2      24.071  12.889  16.2900  0.00  0.00     0.000 HD
ATOM     30   O  A00 X   2      22.501  12.269  15.8610  0.00  0.00     0.000 OA
ATOM     31   S  A00 X   2      23.189  12.553  17.0700  0.00  0.00     0.000 S
ATOM     32   O  A00 X   2      23.035  11.570  18.0980  0.00  0.00     0.000 OA
ATOM     33   O  A00 X   2      23.032  13.869  17.6130  0.00  0.00     0.000 OA
ENDBRANCH 21 30
BRANCH 24 34
ATOM     34   C  A00 X   2      29.376  14.851  14.7620  0.00  0.00     0.000 C
ATOM     35   O  A00 X   2      29.585  16.852  11.7280  0.00  0.00     0.000 OA
ATOM     36   O  A00 X   2      29.152  15.321  13.4180  0.00  0.00     0.000 O
ATOM     37   O  A00 X   2      28.447  17.535  13.6860  0.00  0.00     0.000 OA
ATOM     38   S  A00 X   2      29.564  16.816  13.1530  0.00  0.00     0.000 S
ATOM     39   O  A00 X   2      30.836  17.004  13.7840  0.00  0.00     0.000 OA
ENDBRANCH 24 34
BRANCH 20 40
ATOM     40  O4  A00 X   3      26.040  15.620  16.8700  0.00  0.00     0.000 O
BRANCH 40 44
ATOM     41  C1  A00 X   3      27.376  17.507  19.6590  0.00  0.00     0.000 C
ATOM     42  C2  A00 X   3      25.881  17.181  19.4520  0.00  0.00     0.000 C
ATOM     43  C3  A00 X   3      25.420  17.570  18.0240  0.00  0.00     0.000 C
ATOM     44  C4  A00 X   3      26.307  17.038  16.9050  0.00  0.00     0.000 C
ATOM     45  C5  A00 X   3      27.792  17.410  17.1810  0.00  0.00     0.000 C
ATOM     46  O5  A00 X   3      28.180  17.034  18.5420  0.00  0.00     0.000 O
ATOM     47   O  A00 X   3      24.032  17.393  17.7480  0.00  0.00     0.000 O
ATOM     49  HD  A00 X   3      24.334  17.130  16.9800  0.00  0.00     0.000 HD
BRANCH 42 49
ATOM     49   O  A00 X   3      25.720  15.766  19.6920  0.00  0.00     0.000 O
ATOM     50   O  A00 X   3      23.954  14.321  20.4170  0.00  0.00     0.000 OA
ATOM     51   O  A00 X   3      24.239  16.406  21.4960  0.00  0.00     0.000 OA
ATOM     52   O  A00 X   3      25.892  14.744  21.7990  0.00  0.00     0.000 OA
ATOM     53   S  A00 X   3      24.903  15.264  20.9190  0.00  0.00     0.000 S
ENDBRANCH 42 49
BRANCH 45 54
ATOM     54   C  A00 X   3      28.078  18.881  16.8560  0.00  0.00     0.000 C
ATOM     55   O  A00 X   3      29.216  19.263  16.6730  0.00  0.00     0.000 OA
ATOM     56   O  A00 X   3      27.169  19.692  16.7770  0.00  0.00     0.000 OA
ENDBRANCH 45 54
BRANCH 41 57
ATOM     57  O4  A00 X   4      27.579  18.901  19.9800  0.00  0.00     0.000 O
BRANCH 57 61
ATOM     58  C1  A00 X   4      30.583  21.005  22.2580  0.00  0.00     0.000 C
ATOM     59  C2  A00 X   4      30.969  20.436  20.8700  0.00  0.00     0.000 C
ATOM     60  C3  A00 X   4      29.753  20.034  20.0100  0.00  0.00     0.000 C
ATOM     61  C4  A00 X   4      28.743  19.182  20.8080  0.00  0.00     0.000 C
ATOM     62  C5  A00 X   4      28.334  20.029  22.0380  0.00  0.00     0.000 C
ATOM     63  O5  A00 X   4      29.501  20.263  22.8660  0.00  0.00     0.000 O
BRANCH 59 66
ATOM     64   N  A00 X   4      31.928  20.367  19.7530  0.00  0.00     0.000 N
ATOM     66  HD  A00 X   4      32.023  19.604  19.3540  0.00  0.00     0.000 HD
ATOM     66   O  A00 X   4      33.687  20.607  21.3810  0.00  0.00     0.000 OA
ATOM     67   S  A00 X   4      33.421  20.884  20.0040  0.00  0.00     0.000 S
ATOM     68   O  A00 X   4      34.137  20.074  19.0620  0.00  0.00     0.000 OA
ATOM     69   O  A00 X   4      33.282  22.258  19.6120  0.00  0.00     0.000 OA
ENDBRANCH 59 66
BRANCH 62 70
ATOM     70   C  A00 X   4      27.232  19.383  22.9120  0.00  0.00     0.000 C
ATOM     71   O  A00 X   4      27.571  17.710  26.1050  0.00  0.00     0.000 OA
ATOM     72   O  A00 X   4      26.457  17.051  24.1380  0.00  0.00     0.000 OA
ATOM     73   O  A00 X   4      27.778  19.060  24.2010  0.00  0.00     0.000 O
ATOM     74   O  A00 X   4      28.888  16.921  24.2450  0.00  0.00     0.000 OA
ATOM     75   S  A00 X   4      27.693  17.569  24.6810  0.00  0.00     0.000 S
ENDBRANCH 62 70
ENDBRANCH 57 61
ENDBRANCH 41 57
ENDBRANCH 40 44
ENDBRANCH 20 40
ENDBRANCH 19 23
ENDBRANCH 1 19
TORSDOF 14
ENDMDL
MODEL 5
REMARK VINA RESULT:      -8.2      3.314      7.627
ROOT
ATOM      1  C1  A00 X   1      25.797  16.662  17.8280  0.00  0.00     0.000 C
ATOM      2  C2  A00 X   1      25.098  17.539  18.9010  0.00  0.00     0.000 C
ATOM      3  C3  A00 X   1      25.176  19.086  18.6810  0.00  0.00     0.000 C
ATOM      4  C4  A00 X   1      26.231  19.562  17.6500  0.00  0.00     0.000 C
ATOM      5  C5  A00 X   1      27.344  18.535  17.4460  0.00  0.00     0.000 C
ATOM      6  O5  A00 X   1      26.674  17.368  16.9170  0.00  0.00     0.000 O
ATOM      7   O  A00 X   1      25.511  19.707  19.9200  0.00  0.00     0.000 O
ATOM      9  HD  A00 X   1      25.966  20.109  19.3010  0.00  0.00     0.000 HD
ATOM      9   O  A00 X   1      25.628  19.876  16.3940  0.00  0.00     0.000 O
ATOM     11  HD  A00 X   1      26.083  20.277  15.7760  0.00  0.00     0.000 HD
ENDROOT
BRANCH 2 11
ATOM     11   O  A00 X   1      23.714  17.142  18.9580  0.00  0.00     0.000 O
ATOM     12   O  A00 X   1      22.192  18.071  20.5670  0.00  0.00     0.000 OA
ATOM     13   O  A00 X   1      24.077  16.742  21.3410  0.00  0.00     0.000 OA
ATOM     14   O  A00 X   1      22.292  15.720  20.1450  0.00  0.00     0.000 OA
ATOM     15   S  A00 X   1      23.044  16.927  20.3590  0.00  0.00     0.000 S
ENDBRANCH 2 11
BRANCH 5 16
ATOM     16   C  A00 X   1      28.192  18.244  18.6890  0.00  0.00     0.000 C
ATOM     17   O  A00 X   1      28.845  17.221  18.7200  0.00  0.00     0.000 OA
ATOM     18   O  A00 X   1      28.240  19.001  19.6370  0.00  0.00     0.000 OA
ENDBRANCH 5 16
BRANCH 1 19
ATOM     19  O4  A00 X   2      26.448  15.497  18.3930  0.00  0.00     0.000 O
BRANCH 19 23
ATOM     20  C1  A00 X   2      25.455  12.925  15.1120  0.00  0.00     0.000 C
ATOM     21  C2  A00 X   2      24.483  12.955  16.3160  0.00  0.00     0.000 C
ATOM     22  C3  A00 X   2      24.726  14.205  17.1870  0.00  0.00     0.000 C
ATOM     23  C4  A00 X   2      26.209  14.291  17.6120  0.00  0.00     0.000 C
ATOM     24  C5  A00 X   2      27.076  14.232  16.3250  0.00  0.00     0.000 C
ATOM     25  O5  A00 X   2      26.808  12.982  15.6370  0.00  0.00     0.000 O
ATOM     26   O  A00 X   2      23.756  14.223  18.2490  0.00  0.00     0.000 O
ATOM     28  HD  A00 X   2      23.919  13.404  18.4790  0.00  0.00     0.000 HD
BRANCH 21 30
ATOM     28   N  A00 X   2      24.252  11.511  16.2060  0.00  0.00     0.000 N
ATOM     30  HD  A00 X   2      23.585  11.838  16.6500  0.00  0.00     0.000 HD
ATOM     30   O  A00 X   2      22.013  11.090  16.7240  0.00  0.00     0.000 OA
ATOM     31   S  A00 X   2      23.300  10.813  17.2570  0.00  0.00     0.000 S
ATOM     32   O  A00 X   2      23.691   9.438  17.2060  0.00  0.00     0.000 OA
ATOM     33   O  A00 X   2      23.606  11.370  18.5410  0.00  0.00     0.000 OA
ENDBRANCH 21 30
BRANCH 24 34
ATOM     34   C  A00 X   2      28.588  14.530  16.4530  0.00  0.00     0.000 C
ATOM     35   O  A00 X   2      31.213  12.101  15.7710  0.00  0.00     0.000 OA
ATOM     36   O  A00 X   2      29.361  13.314  16.4700  0.00  0.00     0.000 O
ATOM     37   O  A00 X   2      29.533  12.703  14.2180  0.00  0.00     0.000 OA
ATOM     38   S  A00 X   2      30.379  13.150  15.2820  0.00  0.00     0.000 S
ATOM     39   O  A00 X   2      31.028  14.417  15.1270  0.00  0.00     0.000 OA
ENDBRANCH 24 34
BRANCH 20 40
ATOM     40  O4  A00 X   3      25.181  14.117  14.3620  0.00  0.00     0.000 O
BRANCH 40 44
ATOM     41  C1  A00 X   3      26.629  17.015  12.7410  0.00  0.00     0.000 C
ATOM     42  C2  A00 X   3      25.115  16.739  12.8620  0.00  0.00     0.000 C
ATOM     43  C3  A00 X   3      24.771  15.307  12.3780  0.00  0.00     0.000 C
ATOM     44  C4  A00 X   3      25.629  14.208  12.9920  0.00  0.00     0.000 C
ATOM     45  C5  A00 X   3      27.135  14.554  12.8270  0.00  0.00     0.000 C
ATOM     46  O5  A00 X   3      27.412  15.917  13.2860  0.00  0.00     0.000 O
ATOM     47   O  A00 X   3      23.385  14.970  12.3630  0.00  0.00     0.000 O
ATOM     49  HD  A00 X   3      23.683  14.207  12.6430  0.00  0.00     0.000 HD
BRANCH 42 49
ATOM     49   O  A00 X   3      24.760  16.927  14.2490  0.00  0.00     0.000 O
ATOM     50   O  A00 X   3      22.845  16.500  15.6210  0.00  0.00     0.000 OA
ATOM     51   O  A00 X   3      22.520  17.370  13.4470  0.00  0.00     0.000 OA
ATOM     52   O  A00 X   3      23.534  18.752  15.0740  0.00  0.00     0.000 OA
ATOM     53   S  A00 X   3      23.333  17.414  14.6370  0.00  0.00     0.000 S
ENDBRANCH 42 49
BRANCH 45 54
ATOM     54   C  A00 X   3      27.626  14.287  11.3990  0.00  0.00     0.000 C
ATOM     55   O  A00 X   3      28.808  14.140  11.1680  0.00  0.00     0.000 OA
ATOM     56   O  A00 X   3      26.836  14.220  10.4690  0.00  0.00     0.000 OA
ENDBRANCH 45 54
BRANCH 41 57
ATOM     57  O4  A00 X   4      26.998  17.388  11.3940  0.00  0.00     0.000 O
BRANCH 57 61
ATOM     58  C1  A00 X   4      30.114  19.904   9.7830  0.00  0.00     0.000 C
ATOM     59  C2  A00 X   4      30.520  18.618  10.5450  0.00  0.00     0.000 C
ATOM     60  C3  A00 X   4      29.352  17.633  10.7530  0.00  0.00     0.000 C
ATOM     61  C4  A00 X   4      28.092  18.343  11.2950  0.00  0.00     0.000 C
ATOM     62  C5  A00 X   4      27.744  19.453  10.2720  0.00  0.00     0.000 C
ATOM     63  O5  A00 X   4      28.832  20.411  10.2190  0.00  0.00     0.000 O
BRANCH 59 66
ATOM     64   N  A00 X   4      31.636  17.703  10.2470  0.00  0.00     0.000 N
ATOM     66  HD  A00 X   4      31.753  17.028  10.7780  0.00  0.00     0.000 HD
ATOM     66   O  A00 X   4      33.130  19.470  10.9130  0.00  0.00     0.000 OA
ATOM     67   S  A00 X   4      33.096  18.327  10.0550  0.00  0.00     0.000 S
ATOM     68   O  A00 X   4      33.907  17.220  10.4710  0.00  0.00     0.000 OA
ATOM     69   O  A00 X   4      33.091  18.553   8.6380  0.00  0.00     0.000 OA
ENDBRANCH 59 66
BRANCH 62 70
ATOM     70   C  A00 X   4      26.434  20.213  10.5860  0.00  0.00     0.000 C
ATOM     71   O  A00 X   4      25.700  22.395  13.3810  0.00  0.00     0.000 OA
ATOM     72   O  A00 X   4      24.486  20.586  12.4870  0.00  0.00     0.000 OA
ATOM     73   O  A00 X   4      26.671  21.148  11.6520  0.00  0.00     0.000 O
ATOM     74   O  A00 X   4      26.468  20.155  13.8380  0.00  0.00     0.000 OA
ATOM     75   S  A00 X   4      25.785  21.031  12.9410  0.00  0.00     0.000 S
ENDBRANCH 62 70
ENDBRANCH 57 61
ENDBRANCH 41 57
ENDBRANCH 40 44
ENDBRANCH 20 40
ENDBRANCH 19 23
ENDBRANCH 1 19
TORSDOF 14
ENDMDL
MODEL 6
REMARK VINA RESULT:      -8.1      2.936     10.312
ROOT
ATOM      1  C1  A00 X   1      24.443  17.753  21.8300  0.00  0.00     0.000 C
ATOM      2  C2  A00 X   1      25.637  17.925  22.8070  0.00  0.00     0.000 C
ATOM      3  C3  A00 X   1      26.327  16.606  23.2870  0.00  0.00     0.000 C
ATOM      4  C4  A00 X   1      25.526  15.302  23.0350  0.00  0.00     0.000 C
ATOM      5  C5  A00 X   1      24.029  15.566  22.8760  0.00  0.00     0.000 C
ATOM      6  O5  A00 X   1      23.927  16.405  21.7030  0.00  0.00     0.000 O
ATOM      7   O  A00 X   1      26.537  16.686  24.6950  0.00  0.00     0.000 O
ATOM      9  HD  A00 X   1      26.267  15.882  24.5230  0.00  0.00     0.000 HD
ATOM      9   O  A00 X   1      26.017  14.602  21.8920  0.00  0.00     0.000 O
ATOM     11  HD  A00 X   1      25.747  13.797  21.7200  0.00  0.00     0.000 HD
ENDROOT
BRANCH 2 11
ATOM     11   O  A00 X   1      26.617  18.759  22.1590  0.00  0.00     0.000 O
ATOM     12   O  A00 X   1      28.854  18.981  23.0040  0.00  0.00     0.000 OA
ATOM     13   O  A00 X   1      26.988  19.776  24.3480  0.00  0.00     0.000 OA
ATOM     14   O  A00 X   1      27.573  20.882  22.3260  0.00  0.00     0.000 OA
ATOM     15   S  A00 X   1      27.570  19.635  23.0420  0.00  0.00     0.000 S
ENDBRANCH 2 11
BRANCH 5 16
ATOM     16   C  A00 X   1      23.340  16.153  24.1110  0.00  0.00     0.000 C
ATOM     17   O  A00 X   1      22.217  16.600  23.9930  0.00  0.00     0.000 OA
ATOM     18   O  A00 X   1      23.872  16.181  25.2030  0.00  0.00     0.000 OA
ENDBRANCH 5 16
BRANCH 1 19
ATOM     19  O4  A00 X   2      23.378  18.706  22.0720  0.00  0.00     0.000 O
BRANCH 19 23
ATOM     20  C1  A00 X   2      23.274  20.028  17.9970  0.00  0.00     0.000 C
ATOM     21  C2  A00 X   2      23.854  21.002  19.0500  0.00  0.00     0.000 C
ATOM     22  C3  A00 X   2      24.224  20.254  20.3470  0.00  0.00     0.000 C
ATOM     23  C4  A00 X   2      23.013  19.451  20.8750  0.00  0.00     0.000 C
ATOM     24  C5  A00 X   2      22.516  18.531  19.7270  0.00  0.00     0.000 C
ATOM     25  O5  A00 X   2      22.133  19.359  18.5980  0.00  0.00     0.000 O
ATOM     26   O  A00 X   2      24.820  21.187  21.2640  0.00  0.00     0.000 O
ATOM     28  HD  A00 X   2      24.178  21.762  21.1750  0.00  0.00     0.000 HD
BRANCH 21 30
ATOM     28   N  A00 X   2      23.290  22.111  18.2740  0.00  0.00     0.000 N
ATOM     30  HD  A00 X   2      23.864  22.456  18.8230  0.00  0.00     0.000 HD
ATOM     30   O  A00 X   2      24.681  23.969  18.5410  0.00  0.00     0.000 OA
ATOM     31   S  A00 X   2      23.360  23.571  18.8760  0.00  0.00     0.000 S
ATOM     32   O  A00 X   2      22.324  24.273  18.1840  0.00  0.00     0.000 OA
ATOM     33   O  A00 X   2      23.046  23.470  20.2710  0.00  0.00     0.000 OA
ENDBRANCH 21 30
BRANCH 24 34
ATOM     34   C  A00 X   2      21.457  17.456  20.0660  0.00  0.00     0.000 C
ATOM     35   O  A00 X   2      17.972  18.192  20.8230  0.00  0.00     0.000 OA
ATOM     36   O  A00 X   2      20.283  18.047  20.6580  0.00  0.00     0.000 O
ATOM     37   O  A00 X   2      19.065  18.871  18.8390  0.00  0.00     0.000 OA
ATOM     38   S  A00 X   2      18.952  17.857  19.8420  0.00  0.00     0.000 S
ATOM     39   O  A00 X   2      18.935  16.493  19.4080  0.00  0.00     0.000 OA
ENDBRANCH 24 34
BRANCH 20 40
ATOM     40  O4  A00 X   3      24.311  19.070  17.7410  0.00  0.00     0.000 O
BRANCH 40 44
ATOM     41  C1  A00 X   3      25.974  15.918  17.0920  0.00  0.00     0.000 C
ATOM     42  C2  A00 X   3      26.632  17.307  16.9420  0.00  0.00     0.000 C
ATOM     43  C3  A00 X   3      25.752  18.247  16.0780  0.00  0.00     0.000 C
ATOM     44  C4  A00 X   3      24.292  18.320  16.5080  0.00  0.00     0.000 C
ATOM     45  C5  A00 X   3      23.701  16.887  16.6310  0.00  0.00     0.000 C
ATOM     46  O5  A00 X   3      24.568  16.033  17.4450  0.00  0.00     0.000 O
ATOM     47   O  A00 X   3      26.302  19.533  15.7990  0.00  0.00     0.000 O
ATOM     49  HD  A00 X   3      25.482  19.785  15.9180  0.00  0.00     0.000 HD
BRANCH 42 49
ATOM     49   O  A00 X   3      26.817  17.833  18.2740  0.00  0.00     0.000 O
ATOM     50   O  A00 X   3      27.689  19.844  19.2370  0.00  0.00     0.000 OA
ATOM     51   O  A00 X   3      28.828  18.866  17.4110  0.00  0.00     0.000 OA
ATOM     52   O  A00 X   3      28.828  17.725  19.4810  0.00  0.00     0.000 OA
ATOM     53   S  A00 X   3      28.111  18.618  18.6370  0.00  0.00     0.000 S
ENDBRANCH 42 49
BRANCH 45 54
ATOM     54   C  A00 X   3      23.379  16.286  15.2580  0.00  0.00     0.000 C
ATOM     55   O  A00 X   3      23.929  16.698  14.2580  0.00  0.00     0.000 OA
ATOM     56   O  A00 X   3      22.563  15.384  15.1470  0.00  0.00     0.000 OA
ENDBRANCH 45 54
BRANCH 41 57
ATOM     57  O4  A00 X   4      26.223  15.082  15.9400  0.00  0.00     0.000 O
BRANCH 57 61
ATOM     58  C1  A00 X   4      26.213  10.808  15.3310  0.00  0.00     0.000 C
ATOM     59  C2  A00 X   4      24.864  11.522  15.5940  0.00  0.00     0.000 C
ATOM     60  C3  A00 X   4      24.939  13.055  15.4370  0.00  0.00     0.000 C
ATOM     61  C4  A00 X   4      26.150  13.649  16.1880  0.00  0.00     0.000 C
ATOM     62  C5  A00 X   4      27.405  12.942  15.6190  0.00  0.00     0.000 C
ATOM     63  O5  A00 X   4      27.327  11.523  15.9120  0.00  0.00     0.000 O
BRANCH 59 66
ATOM     64   N  A00 X   4      24.240  11.377  16.9210  0.00  0.00     0.000 N
ATOM     66  HD  A00 X   4      24.766  11.309  17.6050  0.00  0.00     0.000 HD
ATOM     66   O  A00 X   4      23.562   9.166  16.2500  0.00  0.00     0.000 OA
ATOM     67   S  A00 X   4      23.154  10.220  17.1250  0.00  0.00     0.000 S
ATOM     68   O  A00 X   4      23.317   9.957  18.5250  0.00  0.00     0.000 OA
ATOM     69   O  A00 X   4      21.955  10.937  16.7970  0.00  0.00     0.000 OA
ENDBRANCH 59 66
BRANCH 62 70
ATOM     70   C  A00 X   4      28.743  13.485  16.1750  0.00  0.00     0.000 C
ATOM     71   O  A00 X   4      32.109  12.343  15.4860  0.00  0.00     0.000 OA
ATOM     72   O  A00 X   4      31.029  12.789  17.5300  0.00  0.00     0.000 OA
ATOM     73   O  A00 X   4      29.833  12.899  15.4460  0.00  0.00     0.000 O
ATOM     74   O  A00 X   4      30.497  10.749  16.3080  0.00  0.00     0.000 OA
ATOM     75   S  A00 X   4      30.920  12.112  16.2570  0.00  0.00     0.000 S
ENDBRANCH 62 70
ENDBRANCH 57 61
ENDBRANCH 41 57
ENDBRANCH 40 44
ENDBRANCH 20 40
ENDBRANCH 19 23
ENDBRANCH 1 19
TORSDOF 14
ENDMDL
MODEL 7
REMARK VINA RESULT:      -7.9      2.875     10.262
ROOT
ATOM      1  C1  A00 X   1      29.564  20.841  17.8470  0.00  0.00     0.000 C
ATOM      2  C2  A00 X   1      29.944  20.495  19.3110  0.00  0.00     0.000 C
ATOM      3  C3  A00 X   1      30.783  21.571  20.0760  0.00  0.00     0.000 C
ATOM      4  C4  A00 X   1      31.437  22.662  19.1910  0.00  0.00     0.000 C
ATOM      5  C5  A00 X   1      31.608  22.205  17.7420  0.00  0.00     0.000 C
ATOM      6  O5  A00 X   1      30.262  21.973  17.2700  0.00  0.00     0.000 O
ATOM      7   O  A00 X   1      31.846  20.917  20.7650  0.00  0.00     0.000 O
ATOM      9  HD  A00 X   1      32.172  21.643  20.4230  0.00  0.00     0.000 HD
ATOM      9   O  A00 X   1      30.693  23.880  19.2280  0.00  0.00     0.000 O
ATOM     11  HD  A00 X   1      31.019  24.606  18.8860  0.00  0.00     0.000 HD
ENDROOT
BRANCH 2 11
ATOM     11   O  A00 X   1      28.723  20.250  20.0350  0.00  0.00     0.000 O
ATOM     12   O  A00 X   1      28.721  19.281  22.2330  0.00  0.00     0.000 OA
ATOM     13   O  A00 X   1      29.540  17.970  20.3550  0.00  0.00     0.000 OA
ATOM     14   O  A00 X   1      27.232  18.521  20.5250  0.00  0.00     0.000 OA
ATOM     15   S  A00 X   1      28.577  18.916  20.8460  0.00  0.00     0.000 S
ENDBRANCH 2 11
BRANCH 5 16
ATOM     16   C  A00 X   1      32.541  21.006  17.5470  0.00  0.00     0.000 C
ATOM     17   O  A00 X   1      32.581  20.472  16.4580  0.00  0.00     0.000 OA
ATOM     18   O  A00 X   1      33.246  20.576  18.4390  0.00  0.00     0.000 OA
ENDBRANCH 5 16
BRANCH 1 19
ATOM     19  O4  A00 X   2      29.607  19.690  16.9680  0.00  0.00     0.000 O
BRANCH 19 23
ATOM     20  C1  A00 X   2      27.393  18.808  13.4070  0.00  0.00     0.000 C
ATOM     21  C2  A00 X   2      28.709  19.608  13.2500  0.00  0.00     0.000 C
ATOM     22  C3  A00 X   2      29.588  19.471  14.5110  0.00  0.00     0.000 C
ATOM     23  C4  A00 X   2      28.792  19.868  15.7750  0.00  0.00     0.000 C
ATOM     24  C5  A00 X   2      27.495  19.014  15.8060  0.00  0.00     0.000 C
ATOM     25  O5  A00 X   2      26.726  19.287  14.6050  0.00  0.00     0.000 O
ATOM     26   O  A00 X   2      30.824  20.172  14.2900  0.00  0.00     0.000 O
ATOM     28  HD  A00 X   2      30.425  20.894  14.0250  0.00  0.00     0.000 HD
BRANCH 21 30
ATOM     28   N  A00 X   2      29.656  19.202  12.2070  0.00  0.00     0.000 N
ATOM     30  HD  A00 X   2      29.192  19.859  11.8840  0.00  0.00     0.000 HD
ATOM     30   O  A00 X   2      29.760  20.910  10.6160  0.00  0.00     0.000 OA
ATOM     31   S  A00 X   2      29.326  19.561  10.7030  0.00  0.00     0.000 S
ATOM     32   O  A00 X   2      30.107  18.626   9.9530  0.00  0.00     0.000 OA
ATOM     33   O  A00 X   2      27.929  19.313  10.5050  0.00  0.00     0.000 OA
ENDBRANCH 21 30
BRANCH 24 34
ATOM     34   C  A00 X   2      26.631  19.052  17.0890  0.00  0.00     0.000 C
ATOM     35   O  A00 X   2      22.991  19.140  17.0970  0.00  0.00     0.000 OA
ATOM     36   O  A00 X   2      25.273  19.436  16.7930  0.00  0.00     0.000 O
ATOM     37   O  A00 X   2      24.270  17.473  16.0110  0.00  0.00     0.000 OA
ATOM     38   S  A00 X   2      24.182  18.356  17.1340  0.00  0.00     0.000 S
ATOM     39   O  A00 X   2      24.521  17.829  18.4210  0.00  0.00     0.000 OA
ENDBRANCH 24 34
BRANCH 20 40
ATOM     40  O4  A00 X   3      27.789  17.441  13.5930  0.00  0.00     0.000 O
BRANCH 40 44
ATOM     41  C1  A00 X   3      28.275  13.881  14.0520  0.00  0.00     0.000 C
ATOM     42  C2  A00 X   3      28.857  14.705  12.8830  0.00  0.00     0.000 C
ATOM     43  C3  A00 X   3      27.755  15.552  12.1970  0.00  0.00     0.000 C
ATOM     44  C4  A00 X   3      26.909  16.385  13.1520  0.00  0.00     0.000 C
ATOM     45  C5  A00 X   3      26.356  15.487  14.2940  0.00  0.00     0.000 C
ATOM     46  O5  A00 X   3      27.428  14.699  14.9060  0.00  0.00     0.000 O
ATOM     47   O  A00 X   3      28.161  16.290  11.0460  0.00  0.00     0.000 O
ATOM     49  HD  A00 X   3      27.636  16.889  11.3840  0.00  0.00     0.000 HD
BRANCH 42 49
ATOM     49   O  A00 X   3      29.899  15.541  13.4330  0.00  0.00     0.000 O
ATOM     50   O  A00 X   3      31.487  17.117  12.5810  0.00  0.00     0.000 OA
ATOM     51   O  A00 X   3      31.097  15.123  11.3720  0.00  0.00     0.000 OA
ATOM     52   O  A00 X   3      32.178  14.977  13.4690  0.00  0.00     0.000 OA
ATOM     53   S  A00 X   3      31.250  15.711  12.6800  0.00  0.00     0.000 S
ENDBRANCH 42 49
BRANCH 45 54
ATOM     54   C  A00 X   3      25.173  14.632  13.8220  0.00  0.00     0.000 C
ATOM     55   O  A00 X   3      24.944  14.494  12.6380  0.00  0.00     0.000 OA
ATOM     56   O  A00 X   3      24.442  14.078  14.6280  0.00  0.00     0.000 OA
ENDBRANCH 45 54
BRANCH 41 57
ATOM     57  O4  A00 X   4      27.642  12.668  13.5860  0.00  0.00     0.000 O
BRANCH 57 61
ATOM     58  C1  A00 X   4      26.216   9.128  15.6050  0.00  0.00     0.000 C
ATOM     59  C2  A00 X   4      25.278  10.358  15.5140  0.00  0.00     0.000 C
ATOM     60  C3  A00 X   4      25.739  11.407  14.4820  0.00  0.00     0.000 C
ATOM     61  C4  A00 X   4      27.239  11.739  14.6330  0.00  0.00     0.000 C
ATOM     62  C5  A00 X   4      28.000  10.399  14.4810  0.00  0.00     0.000 C
ATOM     63  O5  A00 X   4      27.611   9.505  15.5560  0.00  0.00     0.000 O
BRANCH 59 66
ATOM     64   N  A00 X   4      24.686  11.317  16.4630  0.00  0.00     0.000 N
ATOM     66  HD  A00 X   4      25.217  11.697  17.0320  0.00  0.00     0.000 HD
ATOM     66   O  A00 X   4      23.622   9.443  17.5380  0.00  0.00     0.000 OA
ATOM     67   S  A00 X   4      23.429  10.845  17.3320  0.00  0.00     0.000 S
ATOM     68   O  A00 X   4      23.594  11.667  18.4950  0.00  0.00     0.000 OA
ATOM     69   O  A00 X   4      22.357  11.254  16.4700  0.00  0.00     0.000 OA
ENDBRANCH 59 66
BRANCH 62 70
ATOM     70   C  A00 X   4      29.541  10.541  14.4940  0.00  0.00     0.000 C
ATOM     71   O  A00 X   4      31.726  11.220  17.2990  0.00  0.00     0.000 OA
ATOM     72   O  A00 X   4      31.608  12.218  15.1690  0.00  0.00     0.000 OA
ATOM     73   O  A00 X   4      30.004  10.561  15.8530  0.00  0.00     0.000 O
ATOM     74   O  A00 X   4      29.922  12.755  16.8450  0.00  0.00     0.000 OA
ATOM     75   S  A00 X   4      30.845  11.798  16.3240  0.00  0.00     0.000 S
ENDBRANCH 62 70
ENDBRANCH 57 61
ENDBRANCH 41 57
ENDBRANCH 40 44
ENDBRANCH 20 40
ENDBRANCH 19 23
ENDBRANCH 1 19
TORSDOF 14
ENDMDL
MODEL 8
REMARK VINA RESULT:      -7.0      2.417     10.286
ROOT
ATOM      1  C1  A00 X   1      25.186  19.033  22.4020  0.00  0.00     0.000 C
ATOM      2  C2  A00 X   1      25.219  17.914  23.4770  0.00  0.00     0.000 C
ATOM      3  C3  A00 X   1      25.924  18.277  24.8260  0.00  0.00     0.000 C
ATOM      4  C4  A00 X   1      26.811  19.548  24.7950  0.00  0.00     0.000 C
ATOM      5  C5  A00 X   1      27.271  19.898  23.3790  0.00  0.00     0.000 C
ATOM      6  O5  A00 X   1      26.050  20.169  22.6540  0.00  0.00     0.000 O
ATOM      7   O  A00 X   1      26.776  17.198  25.2010  0.00  0.00     0.000 O
ATOM      9  HD  A00 X   1      27.206  17.931  25.3670  0.00  0.00     0.000 HD
ATOM      9   O  A00 X   1      26.140  20.667  25.3740  0.00  0.00     0.000 O
ATOM     11  HD  A00 X   1      26.569  21.401  25.5390  0.00  0.00     0.000 HD
ENDROOT
BRANCH 2 11
ATOM     11   O  A00 X   1      23.858  17.527  23.7490  0.00  0.00     0.000 O
ATOM     12   O  A00 X   1      23.233  16.427  25.7900  0.00  0.00     0.000 OA
ATOM     13   O  A00 X   1      24.742  15.305  24.2470  0.00  0.00     0.000 OA
ATOM     14   O  A00 X   1      22.463  15.656  23.6630  0.00  0.00     0.000 OA
ATOM     15   S  A00 X   1      23.585  16.138  24.4230  0.00  0.00     0.000 S
ENDBRANCH 2 11
BRANCH 5 16
ATOM     16   C  A00 X   1      28.161  18.846  22.7100  0.00  0.00     0.000 C
ATOM     17   O  A00 X   1      28.699  18.011  23.4070  0.00  0.00     0.000 OA
ATOM     18   O  A00 X   1      28.343  18.816  21.5090  0.00  0.00     0.000 OA
ENDBRANCH 5 16
BRANCH 1 19
ATOM     19  O4  A00 X   2      25.362  18.524  21.0570  0.00  0.00     0.000 O
BRANCH 19 23
ATOM     20  C1  A00 X   2      23.286  19.390  17.4100  0.00  0.00     0.000 C
ATOM     21  C2  A00 X   2      23.958  20.573  18.1470  0.00  0.00     0.000 C
ATOM     22  C3  A00 X   2      25.001  20.065  19.1650  0.00  0.00     0.000 C
ATOM     23  C4  A00 X   2      24.364  19.040  20.1300  0.00  0.00     0.000 C
ATOM     24  C5  A00 X   2      23.712  17.922  19.2720  0.00  0.00     0.000 C
ATOM     25  O5  A00 X   2      22.704  18.518  18.4150  0.00  0.00     0.000 O
ATOM     26   O  A00 X   2      25.644  21.199  19.7720  0.00  0.00     0.000 O
ATOM     28  HD  A00 X   2      24.893  21.585  19.9650  0.00  0.00     0.000 HD
BRANCH 21 30
ATOM     28   N  A00 X   2      24.908  21.669  17.9320  0.00  0.00     0.000 N
ATOM     30  HD  A00 X   2      24.153  21.922  17.5930  0.00  0.00     0.000 HD
ATOM     30   O  A00 X   2      23.693  23.591  17.3960  0.00  0.00     0.000 OA
ATOM     31   S  A00 X   2      24.618  22.709  16.7780  0.00  0.00     0.000 S
ATOM     32   O  A00 X   2      25.902  23.276  16.5020  0.00  0.00     0.000 OA
ATOM     33   O  A00 X   2      24.150  21.966  15.6460  0.00  0.00     0.000 OA
ENDBRANCH 21 30
BRANCH 24 34
ATOM     34   C  A00 X   2      23.204  16.653  19.9970  0.00  0.00     0.000 C
ATOM     35   O  A00 X   2      24.083  13.256  19.0250  0.00  0.00     0.000 OA
ATOM     36   O  A00 X   2      23.416  15.473  19.1970  0.00  0.00     0.000 O
ATOM     37   O  A00 X   2      25.667  14.935  19.5400  0.00  0.00     0.000 OA
ATOM     38   S  A00 X   2      24.373  14.397  19.8300  0.00  0.00     0.000 S
ATOM     39   O  A00 X   2      23.996  14.280  21.2060  0.00  0.00     0.000 OA
ENDBRANCH 24 34
BRANCH 20 40
ATOM     40  O4  A00 X   3      24.347  18.701  16.7330  0.00  0.00     0.000 O
BRANCH 40 44
ATOM     41  C1  A00 X   3      26.377  15.994  15.4400  0.00  0.00     0.000 C
ATOM     42  C2  A00 X   3      26.525  17.476  15.0340  0.00  0.00     0.000 C
ATOM     43  C3  A00 X   3      25.158  18.077  14.6180  0.00  0.00     0.000 C
ATOM     44  C4  A00 X   3      24.032  17.841  15.6170  0.00  0.00     0.000 C
ATOM     45  C5  A00 X   3      23.943  16.330  15.9710  0.00  0.00     0.000 C
ATOM     46  O5  A00 X   3      25.256  15.803  16.3470  0.00  0.00     0.000 O
ATOM     47   O  A00 X   3      25.188  19.421  14.1400  0.00  0.00     0.000 O
ATOM     49  HD  A00 X   3      24.450  19.478  14.5900  0.00  0.00     0.000 HD
BRANCH 42 49
ATOM     49   O  A00 X   3      27.084  18.172  16.1700  0.00  0.00     0.000 O
ATOM     50   O  A00 X   3      27.600  20.442  16.7290  0.00  0.00     0.000 OA
ATOM     51   O  A00 X   3      28.096  19.662  14.5530  0.00  0.00     0.000 OA
ATOM     52   O  A00 X   3      29.338  18.799  16.3700  0.00  0.00     0.000 OA
ATOM     53   S  A00 X   3      28.089  19.342  15.9590  0.00  0.00     0.000 S
ENDBRANCH 42 49
BRANCH 45 54
ATOM     54   C  A00 X   3      23.267  15.525  14.8550  0.00  0.00     0.000 C
ATOM     55   O  A00 X   3      23.029  14.343  15.0010  0.00  0.00     0.000 OA
ATOM     56   O  A00 X   3      22.957  16.056  13.8000  0.00  0.00     0.000 OA
ENDBRANCH 45 54
BRANCH 41 57
ATOM     57  O4  A00 X   4      26.353  15.124  14.2860  0.00  0.00     0.000 O
BRANCH 57 61
ATOM     58  C1  A00 X   4      28.034  11.215  13.5560  0.00  0.00     0.000 C
ATOM     59  C2  A00 X   4      26.561  11.313  14.0270  0.00  0.00     0.000 C
ATOM     60  C3  A00 X   4      25.970  12.732  13.9070  0.00  0.00     0.000 C
ATOM     61  C4  A00 X   4      26.917  13.799  14.4980  0.00  0.00     0.000 C
ATOM     62  C5  A00 X   4      28.259  13.660  13.7380  0.00  0.00     0.000 C
ATOM     63  O5  A00 X   4      28.819  12.347  13.9950  0.00  0.00     0.000 O
BRANCH 59 66
ATOM     64   N  A00 X   4      25.279  10.588  13.9850  0.00  0.00     0.000 N
ATOM     66  HD  A00 X   4      24.677  10.805  14.5690  0.00  0.00     0.000 HD
ATOM     66   O  A00 X   4      26.463   8.650  14.7880  0.00  0.00     0.000 OA
ATOM     67   S  A00 X   4      25.312   8.989  14.0100  0.00  0.00     0.000 S
ATOM     68   O  A00 X   4      24.047   8.714  14.6280  0.00  0.00     0.000 OA
ATOM     69   O  A00 X   4      25.350   8.714  12.6020  0.00  0.00     0.000 OA
ENDBRANCH 59 66
BRANCH 62 70
ATOM     70   C  A00 X   4      29.314  14.727  14.1160  0.00  0.00     0.000 C
ATOM     71   O  A00 X   4      30.699  17.366  12.0610  0.00  0.00     0.000 OA
ATOM     72   O  A00 X   4      31.760  15.770  13.4300  0.00  0.00     0.000 OA
ATOM     73   O  A00 X   4      29.381  15.718  13.0780  0.00  0.00     0.000 O
ATOM     74   O  A00 X   4      30.850  15.092  11.2730  0.00  0.00     0.000 OA
ATOM     75   S  A00 X   4      30.770  15.971  12.3950  0.00  0.00     0.000 S
ENDBRANCH 62 70
ENDBRANCH 57 61
ENDBRANCH 41 57
ENDBRANCH 40 44
ENDBRANCH 20 40
ENDBRANCH 19 23
ENDBRANCH 1 19
TORSDOF 14
ENDMDL
MODEL 9
REMARK VINA RESULT:      -6.8      2.443     10.168
ROOT
ATOM      1  C1  A00 X   1      26.310  21.112  19.4850  0.00  0.00     0.000 C
ATOM      2  C2  A00 X   1      27.297  20.726  20.6190  0.00  0.00     0.000 C
ATOM      3  C3  A00 X   1      27.761  21.892  21.5520  0.00  0.00     0.000 C
ATOM      4  C4  A00 X   1      27.484  23.323  21.0240  0.00  0.00     0.000 C
ATOM      5  C5  A00 X   1      27.319  23.355  19.5040  0.00  0.00     0.000 C
ATOM      6  O5  A00 X   1      26.159  22.533  19.2440  0.00  0.00     0.000 O
ATOM      7   O  A00 X   1      29.172  21.795  21.7370  0.00  0.00     0.000 O
ATOM      9  HD  A00 X   1      28.985  22.634  21.6310  0.00  0.00     0.000 HD
ATOM      9   O  A00 X   1      26.334  23.895  21.6460  0.00  0.00     0.000 O
ATOM     11  HD  A00 X   1      26.148  24.734  21.5400  0.00  0.00     0.000 HD
ENDROOT
BRANCH 2 11
ATOM     11   O  A00 X   1      26.668  19.706  21.4190  0.00  0.00     0.000 O
ATOM     12   O  A00 X   1      27.931  18.282  22.8840  0.00  0.00     0.000 OA
ATOM     13   O  A00 X   1      28.314  18.162  20.4850  0.00  0.00     0.000 OA
ATOM     14   O  A00 X   1      26.260  17.407  21.4160  0.00  0.00     0.000 OA
ATOM     15   S  A00 X   1      27.369  18.311  21.5570  0.00  0.00     0.000 S
ENDBRANCH 2 11
BRANCH 5 16
ATOM     16   C  A00 X   1      28.559  22.934  18.7090  0.00  0.00     0.000 C
ATOM     17   O  A00 X   1      29.634  22.923  19.2720  0.00  0.00     0.000 OA
ATOM     18   O  A00 X   1      28.503  22.606  17.5400  0.00  0.00     0.000 OA
ENDBRANCH 5 16
BRANCH 1 19
ATOM     19  O4  A00 X   2      26.559  20.391  18.2540  0.00  0.00     0.000 O
BRANCH 19 23
ATOM     20  C1  A00 X   2      23.980  19.354  14.9920  0.00  0.00     0.000 C
ATOM     21  C2  A00 X   2      24.324  20.851  15.1830  0.00  0.00     0.000 C
ATOM     22  C3  A00 X   2      25.564  21.019  16.0850  0.00  0.00     0.000 C
ATOM     23  C4  A00 X   2      25.367  20.273  17.4240  0.00  0.00     0.000 C
ATOM     24  C5  A00 X   2      25.011  18.797  17.0980  0.00  0.00     0.000 C
ATOM     25  O5  A00 X   2      23.792  18.774  16.3110  0.00  0.00     0.000 O
ATOM     26   O  A00 X   2      25.883  22.418  16.1750  0.00  0.00     0.000 O
ATOM     28  HD  A00 X   2      25.072  22.641  16.3800  0.00  0.00     0.000 HD
BRANCH 21 30
ATOM     28   N  A00 X   2      23.287  20.974  14.1530  0.00  0.00     0.000 N
ATOM     30  HD  A00 X   2      23.415  21.767  14.4770  0.00  0.00     0.000 HD
ATOM     30   O  A00 X   2      23.075  23.234  13.6010  0.00  0.00     0.000 OA
ATOM     31   S  A00 X   2      22.304  22.210  14.2110  0.00  0.00     0.000 S
ATOM     32   O  A00 X   2      21.170  21.776  13.4540  0.00  0.00     0.000 OA
ATOM     33   O  A00 X   2      21.942  22.400  15.5840  0.00  0.00     0.000 OA
ENDBRANCH 21 30
BRANCH 24 34
ATOM     34   C  A00 X   2      24.988  17.781  18.2640  0.00  0.00     0.000 C
ATOM     35   O  A00 X   2      21.957  16.249  19.5760  0.00  0.00     0.000 OA
ATOM     36   O  A00 X   2      23.656  17.622  18.7920  0.00  0.00     0.000 O
ATOM     37   O  A00 X   2      22.613  16.148  17.3060  0.00  0.00     0.000 OA
ATOM     38   S  A00 X   2      23.054  16.175  18.6670  0.00  0.00     0.000 S
ATOM     39   O  A00 X   2      24.096  15.268  19.0450  0.00  0.00     0.000 OA
ENDBRANCH 24 34
BRANCH 20 40
ATOM     40  O4  A00 X   3      25.132  18.767  14.3700  0.00  0.00     0.000 O
BRANCH 40 44
ATOM     41  C1  A00 X   3      26.605  15.522  15.0220  0.00  0.00     0.000 C
ATOM     42  C2  A00 X   3      27.300  16.666  14.2530  0.00  0.00     0.000 C
ATOM     43  C3  A00 X   3      26.386  17.216  13.1290  0.00  0.00     0.000 C
ATOM     44  C4  A00 X   3      24.974  17.571  13.5770  0.00  0.00     0.000 C
ATOM     45  C5  A00 X   3      24.340  16.371  14.3370  0.00  0.00     0.000 C
ATOM     46  O5  A00 X   3      25.241  15.879  15.3810  0.00  0.00     0.000 O
ATOM     47   O  A00 X   3      26.960  18.220  12.2940  0.00  0.00     0.000 O
ATOM     49  HD  A00 X   3      26.164  18.559  12.3460  0.00  0.00     0.000 HD
BRANCH 42 49
ATOM     49   O  A00 X   3      27.623  17.690  15.2190  0.00  0.00     0.000 O
ATOM     50   O  A00 X   3      29.551  18.993  15.7850  0.00  0.00     0.000 OA
ATOM     51   O  A00 X   3      29.829  16.697  15.2920  0.00  0.00     0.000 OA
ATOM     52   O  A00 X   3      28.688  17.294  17.2740  0.00  0.00     0.000 OA
ATOM     53   S  A00 X   3      29.002  17.683  15.9420  0.00  0.00     0.000 S
ENDBRANCH 42 49
BRANCH 45 54
ATOM     54   C  A00 X   3      23.874  15.273  13.3740  0.00  0.00     0.000 C
ATOM     55   O  A00 X   3      22.947  14.545  13.6680  0.00  0.00     0.000 OA
ATOM     56   O  A00 X   3      24.426  15.109  12.2980  0.00  0.00     0.000 OA
ENDBRANCH 45 54
BRANCH 41 57
ATOM     57  O4  A00 X   4      26.718  14.263  14.3220  0.00  0.00     0.000 O
BRANCH 57 61
ATOM     58  C1  A00 X   4      26.512  10.146  15.6060  0.00  0.00     0.000 C
ATOM     59  C2  A00 X   4      25.189  10.909  15.3480  0.00  0.00     0.000 C
ATOM     60  C3  A00 X   4      25.380  12.222  14.5630  0.00  0.00     0.000 C
ATOM     61  C4  A00 X   4      26.524  13.078  15.1470  0.00  0.00     0.000 C
ATOM     62  C5  A00 X   4      27.792  12.190  15.1150  0.00  0.00     0.000 C
ATOM     63  O5  A00 X   4      27.589  11.038  15.9720  0.00  0.00     0.000 O
BRANCH 59 66
ATOM     64   N  A00 X   4      24.580  11.299  16.6320  0.00  0.00     0.000 N
ATOM     66  HD  A00 X   4      25.110  11.420  17.3060  0.00  0.00     0.000 HD
ATOM     66   O  A00 X   4      23.670   9.073  16.7620  0.00  0.00     0.000 OA
ATOM     67   S  A00 X   4      23.388  10.401  17.2090  0.00  0.00     0.000 S
ATOM     68   O  A00 X   4      23.551  10.627  18.6150  0.00  0.00     0.000 OA
ATOM     69   O  A00 X   4      22.260  11.076  16.6320  0.00  0.00     0.000 OA
ENDBRANCH 59 66
BRANCH 62 70
ATOM     70   C  A00 X   4      29.083  12.915  15.5640  0.00  0.00     0.000 C
ATOM     71   O  A00 X   4      31.834  14.103  13.5310  0.00  0.00     0.000 OA
ATOM     72   O  A00 X   4      31.827  12.807  15.4970  0.00  0.00     0.000 OA
ATOM     73   O  A00 X   4      29.772  13.419  14.4080  0.00  0.00     0.000 O
ATOM     74   O  A00 X   4      31.205  11.781  13.3750  0.00  0.00     0.000 OA
ATOM     75   S  A00 X   4      31.253  12.960  14.1780  0.00  0.00     0.000 S
ENDBRANCH 62 70
ENDBRANCH 57 61
ENDBRANCH 41 57
ENDBRANCH 40 44
ENDBRANCH 20 40
ENDBRANCH 19 23
ENDBRANCH 1 19
TORSDOF 14
ENDMDL
MODEL 10
REMARK VINA RESULT:      -6.4      4.995     10.464
ROOT
ATOM      1  C1  A00 X   1      23.563  20.790  19.7760  0.00  0.00     0.000 C
ATOM      2  C2  A00 X   1      24.532  21.873  19.2310  0.00  0.00     0.000 C
ATOM      3  C3  A00 X   1      25.078  22.897  20.2800  0.00  0.00     0.000 C
ATOM      4  C4  A00 X   1      24.318  22.940  21.6310  0.00  0.00     0.000 C
ATOM      5  C5  A00 X   1      22.893  22.402  21.5080  0.00  0.00     0.000 C
ATOM      6  O5  A00 X   1      23.054  21.021  21.1130  0.00  0.00     0.000 O
ATOM      7   O  A00 X   1      24.994  24.208  19.7260  0.00  0.00     0.000 O
ATOM      9  HD  A00 X   1      24.748  24.264  20.5540  0.00  0.00     0.000 HD
ATOM      9   O  A00 X   1      25.019  22.223  22.6470  0.00  0.00     0.000 O
ATOM     11  HD  A00 X   1      24.772  22.280  23.4750  0.00  0.00     0.000 HD
ENDROOT
BRANCH 2 11
ATOM     11   O  A00 X   1      25.644  21.195  18.6140  0.00  0.00     0.000 O
ATOM     12   O  A00 X   1      27.578  22.382  17.8300  0.00  0.00     0.000 OA
ATOM     13   O  A00 X   1      25.421  22.800  16.7860  0.00  0.00     0.000 OA
ATOM     14   O  A00 X   1      26.511  20.705  16.5020  0.00  0.00     0.000 OA
ATOM     15   S  A00 X   1      26.326  21.844  17.3610  0.00  0.00     0.000 S
ENDBRANCH 2 11
BRANCH 5 16
ATOM     16   C  A00 X   1      21.976  23.203  20.5780  0.00  0.00     0.000 C
ATOM     17   O  A00 X   1      20.905  22.725  20.2650  0.00  0.00     0.000 OA
ATOM     18   O  A00 X   1      22.279  24.298  20.1490  0.00  0.00     0.000 OA
ENDBRANCH 5 16
BRANCH 1 19
ATOM     19  O4  A00 X   2      22.493  20.478  18.8510  0.00  0.00     0.000 O
BRANCH 19 23
ATOM     20  C1  A00 X   2      22.618  16.270  19.6540  0.00  0.00     0.000 C
ATOM     21  C2  A00 X   2      23.354  16.779  18.3910  0.00  0.00     0.000 C
ATOM     22  C3  A00 X   2      23.590  18.301  18.4680  0.00  0.00     0.000 C
ATOM     23  C4  A00 X   2      22.261  19.045  18.7280  0.00  0.00     0.000 C
ATOM     24  C5  A00 X   2      21.616  18.434  20.0020  0.00  0.00     0.000 C
ATOM     25  O5  A00 X   2      21.379  17.020  19.7730  0.00  0.00     0.000 O
ATOM     26   O  A00 X   2      24.335  18.712  17.3090  0.00  0.00     0.000 O
ATOM     28  HD  A00 X   2      23.800  18.309  16.7600  0.00  0.00     0.000 HD
BRANCH 21 30
ATOM     28   N  A00 X   2      23.022  15.492  17.7720  0.00  0.00     0.000 N
ATOM     30  HD  A00 X   2      23.609  15.871  17.2610  0.00  0.00     0.000 HD
ATOM     30   O  A00 X   2      24.673  14.995  16.1950  0.00  0.00     0.000 OA
ATOM     31   S  A00 X   2      23.287  15.303  16.2250  0.00  0.00     0.000 S
ATOM     32   O  A00 X   2      22.420  14.225  15.8620  0.00  0.00     0.000 OA
ATOM     33   O  A00 X   2      22.876  16.512  15.5750  0.00  0.00     0.000 OA
ENDBRANCH 21 30
BRANCH 24 34
ATOM     34   C  A00 X   2      20.389  19.153  20.6110  0.00  0.00     0.000 C
ATOM     35   O  A00 X   2      17.129  19.346  19.0010  0.00  0.00     0.000 OA
ATOM     36   O  A00 X   2      19.366  19.373  19.6190  0.00  0.00     0.000 O
ATOM     37   O  A00 X   2      18.257  17.319  19.4620  0.00  0.00     0.000 OA
ATOM     38   S  A00 X   2      17.995  18.656  19.9000  0.00  0.00     0.000 S
ATOM     39   O  A00 X   2      17.711  18.856  21.2890  0.00  0.00     0.000 OA
ENDBRANCH 24 34
BRANCH 20 40
ATOM     40  O4  A00 X   3      23.478  16.585  20.7580  0.00  0.00     0.000 O
BRANCH 40 44
ATOM     41  C1  A00 X   3      25.210  17.175  23.8850  0.00  0.00     0.000 C
ATOM     42  C2  A00 X   3      25.835  16.496  22.6470  0.00  0.00     0.000 C
ATOM     43  C3  A00 X   3      24.932  15.348  22.1270  0.00  0.00     0.000 C
ATOM     44  C4  A00 X   3      23.472  15.734  21.9240  0.00  0.00     0.000 C
ATOM     45  C5  A00 X   3      22.914  16.404  23.2110  0.00  0.00     0.000 C
ATOM     46  O5  A00 X   3      23.803  17.473  23.6710  0.00  0.00     0.000 O
ATOM     47   O  A00 X   3      25.452  14.592  21.0360  0.00  0.00     0.000 O
ATOM     49  HD  A00 X   3      24.627  14.614  20.7740  0.00  0.00     0.000 HD
BRANCH 42 49
ATOM     49   O  A00 X   3      26.012  17.523  21.6460  0.00  0.00     0.000 O
ATOM     50   O  A00 X   3      27.863  18.557  20.5340  0.00  0.00     0.000 OA
ATOM     51   O  A00 X   3      28.022  18.124  22.8530  0.00  0.00     0.000 OA
ATOM     52   O  A00 X   3      26.496  19.772  22.1170  0.00  0.00     0.000 OA
ATOM     53   S  A00 X   3      27.163  18.562  21.7810  0.00  0.00     0.000 S
ENDBRANCH 42 49
BRANCH 45 54
ATOM     54   C  A00 X   3      22.601  15.370  24.2990  0.00  0.00     0.000 C
ATOM     55   O  A00 X   3      22.164  15.719  25.3770  0.00  0.00     0.000 OA
ATOM     56   O  A00 X   3      22.787  14.179  24.1020  0.00  0.00     0.000 OA
ENDBRANCH 45 54
BRANCH 41 57
ATOM     57  O4  A00 X   4      25.474  16.428  25.0940  0.00  0.00     0.000 O
BRANCH 57 61
ATOM     58  C1  A00 X   4      26.254  17.598  29.1750  0.00  0.00     0.000 C
ATOM     59  C2  A00 X   4      24.848  17.868  28.5820  0.00  0.00     0.000 C
ATOM     60  C3  A00 X   4      24.575  17.099  27.2740  0.00  0.00     0.000 C
ATOM     61  C4  A00 X   4      25.743  17.237  26.2740  0.00  0.00     0.000 C
ATOM     62  C5  A00 X   4      27.006  16.716  27.0040  0.00  0.00     0.000 C
ATOM     63  O5  A00 X   4      27.275  17.560  28.1530  0.00  0.00     0.000 O
BRANCH 59 66
ATOM     64   N  A00 X   4      23.445  18.010  29.0120  0.00  0.00     0.000 N
ATOM     66  HD  A00 X   4      22.891  18.372  28.4540  0.00  0.00     0.000 HD
ATOM     66   O  A00 X   4      24.194  19.701  30.5550  0.00  0.00     0.000 OA
ATOM     67   S  A00 X   4      23.150  18.735  30.4070  0.00  0.00     0.000 S
ATOM     68   O  A00 X   4      21.846  19.272  30.1480  0.00  0.00     0.000 OA
ATOM     69   O  A00 X   4      23.156  17.602  31.2880  0.00  0.00     0.000 OA
ENDBRANCH 59 66
BRANCH 62 70
ATOM     70   C  A00 X   4      28.275  16.671  26.1190  0.00  0.00     0.000 C
ATOM     71   O  A00 X   4      31.643  15.718  27.0420  0.00  0.00     0.000 OA
ATOM     72   O  A00 X   4      30.847  17.605  25.8800  0.00  0.00     0.000 OA
ATOM     73   O  A00 X   4      29.327  16.001  26.8320  0.00  0.00     0.000 O
ATOM     74   O  A00 X   4      30.556  17.468  28.2960  0.00  0.00     0.000 OA
ATOM     75   S  A00 X   4      30.673  16.776  27.0530  0.00  0.00     0.000 S
ENDBRANCH 62 70
ENDBRANCH 57 61
ENDBRANCH 41 57
ENDBRANCH 40 44
ENDBRANCH 20 40
ENDBRANCH 19 23
ENDBRANCH 1 19
TORSDOF 14
ENDMDL
MODEL 11
REMARK VINA RESULT:      -6.3      2.572     10.172
ROOT
ATOM      1  C1  A00 X   1      26.092  20.231  21.6310  0.00  0.00     0.000 C
ATOM      2  C2  A00 X   1      25.997  19.362  22.9130  0.00  0.00     0.000 C
ATOM      3  C3  A00 X   1      26.901  19.803  24.1110  0.00  0.00     0.000 C
ATOM      4  C4  A00 X   1      28.031  20.806  23.7620  0.00  0.00     0.000 C
ATOM      5  C5  A00 X   1      28.404  20.762  22.2800  0.00  0.00     0.000 C
ATOM      6  O5  A00 X   1      27.201  21.164  21.5870  0.00  0.00     0.000 O
ATOM      7   O  A00 X   1      27.537  18.649  24.6540  0.00  0.00     0.000 O
ATOM      9  HD  A00 X   1      28.129  19.281  24.6360  0.00  0.00     0.000 HD
ATOM      9   O  A00 X   1      27.680  22.138  24.1320  0.00  0.00     0.000 O
ATOM     11  HD  A00 X   1      28.271  22.771  24.1140  0.00  0.00     0.000 HD
ENDROOT
BRANCH 2 11
ATOM     11   O  A00 X   1      24.621  19.358  23.3400  0.00  0.00     0.000 O
ATOM     12   O  A00 X   1      23.972  18.613  25.5280  0.00  0.00     0.000 OA
ATOM     13   O  A00 X   1      24.977  17.028  23.9810  0.00  0.00     0.000 OA
ATOM     14   O  A00 X   1      22.806  17.907  23.5650  0.00  0.00     0.000 OA
ATOM     15   S  A00 X   1      24.088  18.142  24.1720  0.00  0.00     0.000 S
ENDBRANCH 2 11
BRANCH 5 16
ATOM     16   C  A00 X   1      28.974  19.426  21.7940  0.00  0.00     0.000 C
ATOM     17   O  A00 X   1      29.099  19.247  20.6000  0.00  0.00     0.000 OA
ATOM     18   O  A00 X   1      29.311  18.545  22.5590  0.00  0.00     0.000 OA
ENDBRANCH 5 16
BRANCH 1 19
ATOM     19  O4  A00 X   2      26.012  19.448  20.4150  0.00  0.00     0.000 O
BRANCH 19 23
ATOM     20  C1  A00 X   2      22.857  18.964  17.5560  0.00  0.00     0.000 C
ATOM     21  C2  A00 X   2      23.405  20.394  17.7790  0.00  0.00     0.000 C
ATOM     22  C3  A00 X   2      24.781  20.352  18.4780  0.00  0.00     0.000 C
ATOM     23  C4  A00 X   2      24.703  19.529  19.7830  0.00  0.00     0.000 C
ATOM     24  C5  A00 X   2      24.124  18.132  19.4290  0.00  0.00     0.000 C
ATOM     25  O5  A00 X   2      22.804  18.306  18.8490  0.00  0.00     0.000 O
ATOM     26   O  A00 X   2      25.277  21.696  18.6000  0.00  0.00     0.000 O
ATOM     28  HD  A00 X   2      24.540  21.991  18.9470  0.00  0.00     0.000 HD
BRANCH 21 30
ATOM     28   N  A00 X   2      23.793  21.289  16.6840  0.00  0.00     0.000 N
ATOM     30  HD  A00 X   2      22.970  21.474  16.8790  0.00  0.00     0.000 HD
ATOM     30   O  A00 X   2      22.228  23.019  16.5690  0.00  0.00     0.000 OA
ATOM     31   S  A00 X   2      22.659  21.919  15.7810  0.00  0.00     0.000 S
ATOM     32   O  A00 X   2      23.342  22.271  14.5750  0.00  0.00     0.000 OA
ATOM     33   O  A00 X   2      21.699  20.887  15.5260  0.00  0.00     0.000 OA
ENDBRANCH 21 30
BRANCH 24 34
ATOM     34   C  A00 X   2      24.157  17.035  20.5190  0.00  0.00     0.000 C
ATOM     35   O  A00 X   2      24.119  13.462  19.8210  0.00  0.00     0.000 OA
ATOM     36   O  A00 X   2      23.778  15.752  19.9820  0.00  0.00     0.000 O
ATOM     37   O  A00 X   2      25.716  14.965  18.9360  0.00  0.00     0.000 OA
ATOM     38   S  A00 X   2      24.888  14.640  20.0560  0.00  0.00     0.000 S
ATOM     39   O  A00 X   2      25.469  14.735  21.3610  0.00  0.00     0.000 OA
ENDBRANCH 24 34
BRANCH 20 40
ATOM     40  O4  A00 X   3      23.820  18.306  16.7210  0.00  0.00     0.000 O
BRANCH 40 44
ATOM     41  C1  A00 X   3      25.915  16.133  14.7170  0.00  0.00     0.000 C
ATOM     42  C2  A00 X   3      25.464  17.550  14.3010  0.00  0.00     0.000 C
ATOM     43  C3  A00 X   3      23.930  17.711  14.4500  0.00  0.00     0.000 C
ATOM     44  C4  A00 X   3      23.377  17.282  15.8040  0.00  0.00     0.000 C
ATOM     45  C5  A00 X   3      23.869  15.848  16.1490  0.00  0.00     0.000 C
ATOM     46  O5  A00 X   3      25.320  15.739  15.9840  0.00  0.00     0.000 O
ATOM     47   O  A00 X   3      23.388  18.955  14.0110  0.00  0.00     0.000 O
ATOM     49  HD  A00 X   3      22.889  18.856  14.7120  0.00  0.00     0.000 HD
BRANCH 42 49
ATOM     49   O  A00 X   3      26.178  18.484  15.1400  0.00  0.00     0.000 O
ATOM     50   O  A00 X   3      26.315  20.865  15.3550  0.00  0.00     0.000 OA
ATOM     51   O  A00 X   3      26.268  19.915  13.1900  0.00  0.00     0.000 OA
ATOM     52   O  A00 X   3      28.177  19.557  14.5370  0.00  0.00     0.000 OA
ATOM     53   S  A00 X   3      26.774  19.788  14.5340  0.00  0.00     0.000 S
ENDBRANCH 42 49
BRANCH 45 54
ATOM     54   C  A00 X   3      23.091  14.779  15.3720  0.00  0.00     0.000 C
ATOM     55   O  A00 X   3      22.495  15.065  14.3540  0.00  0.00     0.000 OA
ATOM     56   O  A00 X   3      23.057  13.623  15.7640  0.00  0.00     0.000 OA
ENDBRANCH 45 54
BRANCH 41 57
ATOM     57  O4  A00 X   4      25.717  15.175  13.6530  0.00  0.00     0.000 O
BRANCH 57 61
ATOM     58  C1  A00 X   4      27.618  11.387  12.8320  0.00  0.00     0.000 C
ATOM     59  C2  A00 X   4      27.172  11.694  14.2840  0.00  0.00     0.000 C
ATOM     60  C3  A00 X   4      26.202  12.888  14.3890  0.00  0.00     0.000 C
ATOM     61  C4  A00 X   4      26.705  14.108  13.5890  0.00  0.00     0.000 C
ATOM     62  C5  A00 X   4      26.882  13.628  12.1270  0.00  0.00     0.000 C
ATOM     63  O5  A00 X   4      27.898  12.593  12.0850  0.00  0.00     0.000 O
BRANCH 59 66
ATOM     64   N  A00 X   4      28.611  11.943  14.4850  0.00  0.00     0.000 N
ATOM     66  HD  A00 X   4      29.110  12.000  13.7790  0.00  0.00     0.000 HD
ATOM     66   O  A00 X   4      28.773   9.707  15.3630  0.00  0.00     0.000 OA
ATOM     67   S  A00 X   4      29.415  10.979  15.4760  0.00  0.00     0.000 S
ATOM     68   O  A00 X   4      30.729  11.060  14.9060  0.00  0.00     0.000 OA
ATOM     69   O  A00 X   4      29.263  11.699  16.7080  0.00  0.00     0.000 OA
ENDBRANCH 59 66
BRANCH 62 70
ATOM     70   C  A00 X   4      27.281  14.749  11.1380  0.00  0.00     0.000 C
ATOM     71   O  A00 X   4      30.532  16.253  10.6140  0.00  0.00     0.000 OA
ATOM     72   O  A00 X   4      28.421  17.240  10.9500  0.00  0.00     0.000 OA
ATOM     73   O  A00 X   4      28.713  14.857  11.0950  0.00  0.00     0.000 O
ATOM     74   O  A00 X   4      29.605  16.258  12.8400  0.00  0.00     0.000 OA
ATOM     75   S  A00 X   4      29.354  16.247  11.4350  0.00  0.00     0.000 S
ENDBRANCH 62 70
ENDBRANCH 57 61
ENDBRANCH 41 57
ENDBRANCH 40 44
ENDBRANCH 20 40
ENDBRANCH 19 23
ENDBRANCH 1 19
TORSDOF 14
ENDMDL
MODEL 12
REMARK VINA RESULT:      -6.2     11.564     15.759
ROOT
ATOM      1  C1  A00 X   1      38.098  13.271  25.8860  0.00  0.00     0.000 C
ATOM      2  C2  A00 X   1      39.504  13.627  26.4360  0.00  0.00     0.000 C
ATOM      3  C3  A00 X   1      40.513  12.438  26.5680  0.00  0.00     0.000 C
ATOM      4  C4  A00 X   1      39.889  11.021  26.4890  0.00  0.00     0.000 C
ATOM      5  C5  A00 X   1      38.401  11.025  26.8410  0.00  0.00     0.000 C
ATOM      6  O5  A00 X   1      37.787  11.856  25.8310  0.00  0.00     0.000 O
ATOM      7   O  A00 X   1      41.160  12.526  27.8350  0.00  0.00     0.000 O
ATOM      9  HD  A00 X   1      40.978  11.690  27.6990  0.00  0.00     0.000 HD
ATOM      9   O  A00 X   1      40.078  10.438  25.2000  0.00  0.00     0.000 O
ATOM     11  HD  A00 X   1      39.896   9.603  25.0640  0.00  0.00     0.000 HD
ENDROOT
BRANCH 2 11
ATOM     11   O  A00 X   1      40.072  14.630  25.5710  0.00  0.00     0.000 O
ATOM     12   O  A00 X   1      42.378  15.284  25.7270  0.00  0.00     0.000 OA
ATOM     13   O  A00 X   1      40.890  15.712  27.6030  0.00  0.00     0.000 OA
ATOM     14   O  A00 X   1      40.624  16.899  25.5600  0.00  0.00     0.000 OA
ATOM     15   S  A00 X   1      41.067  15.679  26.1780  0.00  0.00     0.000 S
ENDBRANCH 2 11
BRANCH 5 16
ATOM     16   C  A00 X   1      38.075  11.460  28.2740  0.00  0.00     0.000 C
ATOM     17   O  A00 X   1      38.942  11.373  29.1190  0.00  0.00     0.000 OA
ATOM     18   O  A00 X   1      36.986  11.894  28.5910  0.00  0.00     0.000 OA
ENDBRANCH 5 16
BRANCH 1 19
ATOM     19  O4  A00 X   2      37.037  14.020  26.5290  0.00  0.00     0.000 O
BRANCH 19 23
ATOM     20  C1  A00 X   2      36.179  18.218  26.5790  0.00  0.00     0.000 C
ATOM     21  C2  A00 X   2      36.314  17.533  25.1980  0.00  0.00     0.000 C
ATOM     22  C3  A00 X   2      36.187  16.001  25.3290  0.00  0.00     0.000 C
ATOM     23  C4  A00 X   2      37.194  15.459  26.3690  0.00  0.00     0.000 C
ATOM     24  C5  A00 X   2      36.969  16.234  27.6960  0.00  0.00     0.000 C
ATOM     25  O5  A00 X   2      37.189  17.648  27.4530  0.00  0.00     0.000 O
ATOM     26   O  A00 X   2      36.250  15.418  24.0170  0.00  0.00     0.000 O
ATOM     28  HD  A00 X   2      36.969  15.851  23.8040  0.00  0.00     0.000 HD
BRANCH 21 30
ATOM     28   N  A00 X   2      36.444  18.927  24.7620  0.00  0.00     0.000 N
ATOM     30  HD  A00 X   2      36.582  18.433  24.0650  0.00  0.00     0.000 HD
ATOM     30   O  A00 X   2      36.323  18.975  22.4300  0.00  0.00     0.000 OA
ATOM     31   S  A00 X   2      37.272  19.238  23.4520  0.00  0.00     0.000 S
ATOM     32   O  A00 X   2      37.634  20.614  23.6000  0.00  0.00     0.000 OA
ATOM     33   O  A00 X   2      38.441  18.410  23.4830  0.00  0.00     0.000 OA
ENDBRANCH 21 30
BRANCH 24 34
ATOM     34   C  A00 X   2      37.694  15.727  28.9650  0.00  0.00     0.000 C
ATOM     35   O  A00 X   2      36.119  15.430  32.2340  0.00  0.00     0.000 OA
ATOM     36   O  A00 X   2      36.949  16.048  30.1560  0.00  0.00     0.000 O
ATOM     37   O  A00 X   2      35.296  14.397  30.2720  0.00  0.00     0.000 OA
ATOM     38   S  A00 X   2      36.459  14.811  30.9950  0.00  0.00     0.000 S
ATOM     39   O  A00 X   2      37.563  13.900  31.0550  0.00  0.00     0.000 OA
ENDBRANCH 24 34
BRANCH 20 40
ATOM     40  O4  A00 X   3      34.874  17.866  27.0610  0.00  0.00     0.000 O
BRANCH 40 44
ATOM     41  C1  A00 X   3      31.480  18.143  28.2970  0.00  0.00     0.000 C
ATOM     42  C2  A00 X   3      32.219  19.240  27.5010  0.00  0.00     0.000 C
ATOM     43  C3  A00 X   3      33.608  19.536  28.1230  0.00  0.00     0.000 C
ATOM     44  C4  A00 X   3      34.465  18.302  28.3750  0.00  0.00     0.000 C
ATOM     45  C5  A00 X   3      33.656  17.248  29.1820  0.00  0.00     0.000 C
ATOM     46  O5  A00 X   3      32.349  17.008  28.5660  0.00  0.00     0.000 O
ATOM     47   O  A00 X   3      34.347  20.597  27.5210  0.00  0.00     0.000 O
ATOM     49  HD  A00 X   3      35.013  20.063  27.6620  0.00  0.00     0.000 HD
BRANCH 42 49
ATOM     49   O  A00 X   3      32.339  18.769  26.1410  0.00  0.00     0.000 O
ATOM     50   O  A00 X   3      33.356  19.551  24.1200  0.00  0.00     0.000 OA
ATOM     51   O  A00 X   3      32.215  21.099  25.4960  0.00  0.00     0.000 OA
ATOM     52   O  A00 X   3      30.953  19.447  24.3710  0.00  0.00     0.000 OA
ATOM     53   S  A00 X   3      32.212  19.764  24.9510  0.00  0.00     0.000 S
ENDBRANCH 42 49
BRANCH 45 54
ATOM     54   C  A00 X   3      33.564  17.620  30.6670  0.00  0.00     0.000 C
ATOM     55   O  A00 X   3      33.835  18.742  31.0420  0.00  0.00     0.000 OA
ATOM     56   O  A00 X   3      33.217  16.794  31.4980  0.00  0.00     0.000 OA
ENDBRANCH 45 54
BRANCH 41 57
ATOM     57  O4  A00 X   4      30.833  18.679  29.4720  0.00  0.00     0.000 O
BRANCH 57 61
ATOM     58  C1  A00 X   4      27.907  17.022  32.1800  0.00  0.00     0.000 C
ATOM     59  C2  A00 X   4      29.404  16.949  32.5710  0.00  0.00     0.000 C
ATOM     60  C3  A00 X   4      30.306  17.872  31.7270  0.00  0.00     0.000 C
ATOM     61  C4  A00 X   4      30.018  17.730  30.2170  0.00  0.00     0.000 C
ATOM     62  C5  A00 X   4      28.514  18.051  30.0280  0.00  0.00     0.000 C
ATOM     63  O5  A00 X   4      27.723  17.070  30.7470  0.00  0.00     0.000 O
BRANCH 59 66
ATOM     64   N  A00 X   4      30.295  15.777  32.6310  0.00  0.00     0.000 N
ATOM     66  HD  A00 X   4      30.240  15.200  31.9880  0.00  0.00     0.000 HD
ATOM     66   O  A00 X   4      28.972  14.991  34.4830  0.00  0.00     0.000 OA
ATOM     67   S  A00 X   4      30.302  14.898  33.9680  0.00  0.00     0.000 S
ATOM     68   O  A00 X   4      30.669  13.619  33.4340  0.00  0.00     0.000 OA
ATOM     69   O  A00 X   4      31.350  15.554  34.6970  0.00  0.00     0.000 OA
ENDBRANCH 59 66
BRANCH 62 70
ATOM     70   C  A00 X   4      28.052  18.068  28.5510  0.00  0.00     0.000 C
ATOM     71   O  A00 X   4      27.271  15.267  26.3940  0.00  0.00     0.000 OA
ATOM     72   O  A00 X   4      28.642  17.147  26.0320  0.00  0.00     0.000 OA
ATOM     73   O  A00 X   4      27.621  16.750  28.1730  0.00  0.00     0.000 O
ATOM     74   O  A00 X   4      29.434  15.335  27.4560  0.00  0.00     0.000 OA
ATOM     75   S  A00 X   4      28.324  16.072  26.9460  0.00  0.00     0.000 S
ENDBRANCH 62 70
ENDBRANCH 57 61
ENDBRANCH 41 57
ENDBRANCH 40 44
ENDBRANCH 20 40
ENDBRANCH 19 23
ENDBRANCH 1 19
TORSDOF 14
ENDMDL
MODEL 13
REMARK VINA RESULT:      -5.9      2.550     10.409
ROOT
ATOM      1  C1  A00 X   1      27.091  20.786  19.5440  0.00  0.00     0.000 C
ATOM      2  C2  A00 X   1      25.740  20.810  20.3080  0.00  0.00     0.000 C
ATOM      3  C3  A00 X   1      25.834  20.907  21.8670  0.00  0.00     0.000 C
ATOM      4  C4  A00 X   1      27.227  20.599  22.4730  0.00  0.00     0.000 C
ATOM      5  C5  A00 X   1      28.089  19.750  21.5390  0.00  0.00     0.000 C
ATOM      6  O5  A00 X   1      28.268  20.567  20.3610  0.00  0.00     0.000 O
ATOM      7   O  A00 X   1      24.927  19.967  22.4390  0.00  0.00     0.000 O
ATOM      9  HD  A00 X   1      25.656  19.935  22.9050  0.00  0.00     0.000 HD
ATOM      9   O  A00 X   1      27.923  21.798  22.8150  0.00  0.00     0.000 O
ATOM     11  HD  A00 X   1      28.652  21.765  23.2820  0.00  0.00     0.000 HD
ENDROOT
BRANCH 2 11
ATOM     11   O  A00 X   1      24.977  21.927  19.8130  0.00  0.00     0.000 O
ATOM     12   O  A00 X   1      26.008  23.749  18.6370  0.00  0.00     0.000 OA
ATOM     13   O  A00 X   1      26.589  23.354  20.9650  0.00  0.00     0.000 OA
ATOM     14   O  A00 X   1      24.415  24.121  20.3800  0.00  0.00     0.000 OA
ATOM     15   S  A00 X   1      25.567  23.372  19.9560  0.00  0.00     0.000 S
ENDBRANCH 2 11
BRANCH 5 16
ATOM     16   C  A00 X   1      27.535  18.353  21.2380  0.00  0.00     0.000 C
ATOM     17   O  A00 X   1      26.714  17.878  21.9960  0.00  0.00     0.000 OA
ATOM     18   O  A00 X   1      27.881  17.710  20.2670  0.00  0.00     0.000 OA
ENDBRANCH 5 16
BRANCH 1 19
ATOM     19  O4  A00 X   2      27.072  19.900  18.3980  0.00  0.00     0.000 O
BRANCH 19 23
ATOM     20  C1  A00 X   2      24.169  19.365  15.2910  0.00  0.00     0.000 C
ATOM     21  C2  A00 X   2      24.732  20.791  15.5050  0.00  0.00     0.000 C
ATOM     22  C3  A00 X   2      26.038  20.749  16.3250  0.00  0.00     0.000 C
ATOM     23  C4  A00 X   2      25.825  19.982  17.6490  0.00  0.00     0.000 C
ATOM     24  C5  A00 X   2      25.245  18.584  17.3010  0.00  0.00     0.000 C
ATOM     25  O5  A00 X   2      23.987  18.762  16.6000  0.00  0.00     0.000 O
ATOM     26   O  A00 X   2      26.555  22.086  16.4370  0.00  0.00     0.000 O
ATOM     28  HD  A00 X   2      25.798  22.410  16.7050  0.00  0.00     0.000 HD
BRANCH 21 30
ATOM     28   N  A00 X   2      23.419  21.300  15.0950  0.00  0.00     0.000 N
ATOM     30  HD  A00 X   2      23.965  21.973  15.0810  0.00  0.00     0.000 HD
ATOM     30   O  A00 X   2      23.731  23.387  14.0920  0.00  0.00     0.000 OA
ATOM     31   S  A00 X   2      23.122  22.845  15.2540  0.00  0.00     0.000 S
ATOM     32   O  A00 X   2      21.693  22.914  15.2760  0.00  0.00     0.000 OA
ATOM     33   O  A00 X   2      23.659  23.251  16.5180  0.00  0.00     0.000 OA
ENDBRANCH 21 30
BRANCH 24 34
ATOM     34   C  A00 X   2      25.155  17.534  18.4320  0.00  0.00     0.000 C
ATOM     35   O  A00 X   2      23.030  17.874  21.3690  0.00  0.00     0.000 OA
ATOM     36   O  A00 X   2      24.527  18.084  19.6080  0.00  0.00     0.000 O
ATOM     37   O  A00 X   2      22.236  17.983  19.1440  0.00  0.00     0.000 OA
ATOM     38   S  A00 X   2      23.183  17.388  20.0370  0.00  0.00     0.000 S
ATOM     39   O  A00 X   2      23.404  15.978  19.9270  0.00  0.00     0.000 OA
ENDBRANCH 24 34
BRANCH 20 40
ATOM     40  O4  A00 X   3      25.186  18.651  14.5720  0.00  0.00     0.000 O
BRANCH 40 44
ATOM     41  C1  A00 X   3      26.584  15.315  14.7660  0.00  0.00     0.000 C
ATOM     42  C2  A00 X   3      27.177  16.471  13.9300  0.00  0.00     0.000 C
ATOM     43  C3  A00 X   3      26.091  17.122  13.0350  0.00  0.00     0.000 C
ATOM     44  C4  A00 X   3      24.814  17.510  13.7700  0.00  0.00     0.000 C
ATOM     45  C5  A00 X   3      24.278  16.297  14.5810  0.00  0.00     0.000 C
ATOM     46  O5  A00 X   3      25.337  15.708  15.4030  0.00  0.00     0.000 O
ATOM     47   O  A00 X   3      26.544  18.147  12.1530  0.00  0.00     0.000 O
ATOM     49  HD  A00 X   3      25.792  18.515  12.3760  0.00  0.00     0.000 HD
BRANCH 42 49
ATOM     49   O  A00 X   3      27.735  17.423  14.8610  0.00  0.00     0.000 O
ATOM     50   O  A00 X   3      28.868  19.527  14.7170  0.00  0.00     0.000 OA
ATOM     51   O  A00 X   3      29.437  17.817  13.1870  0.00  0.00     0.000 OA
ATOM     52   O  A00 X   3      30.002  17.525  15.4630  0.00  0.00     0.000 OA
ATOM     53   S  A00 X   3      29.089  18.125  14.5520  0.00  0.00     0.000 S
ENDBRANCH 42 49
BRANCH 45 54
ATOM     54   C  A00 X   3      23.576  15.276  13.6780  0.00  0.00     0.000 C
ATOM     55   O  A00 X   3      23.958  15.089  12.5410  0.00  0.00     0.000 OA
ATOM     56   O  A00 X   3      22.620  14.633  14.0860  0.00  0.00     0.000 OA
ENDBRANCH 45 54
BRANCH 41 57
ATOM     57  O4  A00 X   4      26.493  14.094  13.9980  0.00  0.00     0.000 O
BRANCH 57 61
ATOM     58  C1  A00 X   4      26.074   9.946  15.1190  0.00  0.00     0.000 C
ATOM     59  C2  A00 X   4      24.958  10.940  15.5270  0.00  0.00     0.000 C
ATOM     60  C3  A00 X   4      25.031  12.286  14.7780  0.00  0.00     0.000 C
ATOM     61  C4  A00 X   4      26.461  12.870  14.7860  0.00  0.00     0.000 C
ATOM     62  C5  A00 X   4      27.374  11.796  14.1450  0.00  0.00     0.000 C
ATOM     63  O5  A00 X   4      27.355  10.601  14.9670  0.00  0.00     0.000 O
BRANCH 59 66
ATOM     64   N  A00 X   4      24.361  11.492  16.7560  0.00  0.00     0.000 N
ATOM     66  HD  A00 X   4      24.895  11.852  17.3330  0.00  0.00     0.000 HD
ATOM     66   O  A00 X   4      23.910   9.226  17.4350  0.00  0.00     0.000 OA
ATOM     67   S  A00 X   4      23.401  10.549  17.6210  0.00  0.00     0.000 S
ATOM     68   O  A00 X   4      23.599  11.108  18.9270  0.00  0.00     0.000 OA
ATOM     69   O  A00 X   4      22.133  10.868  17.0300  0.00  0.00     0.000 OA
ENDBRANCH 59 66
BRANCH 62 70
ATOM     70   C  A00 X   4      28.844  12.243  13.9620  0.00  0.00     0.000 C
ATOM     71   O  A00 X   4      31.826  10.898  15.5120  0.00  0.00     0.000 OA
ATOM     72   O  A00 X   4      31.078  13.120  15.2960  0.00  0.00     0.000 OA
ATOM     73   O  A00 X   4      29.714  11.276  14.5730  0.00  0.00     0.000 O
ATOM     74   O  A00 X   4      30.029  11.650  16.9320  0.00  0.00     0.000 OA
ATOM     75   S  A00 X   4      30.704  11.777  15.6810  0.00  0.00     0.000 S
ENDBRANCH 62 70
ENDBRANCH 57 61
ENDBRANCH 41 57
ENDBRANCH 40 44
ENDBRANCH 20 40
ENDBRANCH 19 23
ENDBRANCH 1 19
TORSDOF 14
ENDMDL
MODEL 14
REMARK VINA RESULT:      -5.8      5.541     10.589
ROOT
ATOM      1  C1  A00 X   1      22.765  21.284  20.1580  0.00  0.00     0.000 C
ATOM      2  C2  A00 X   1      23.263  22.580  19.4640  0.00  0.00     0.000 C
ATOM      3  C3  A00 X   1      24.265  23.457  20.2840  0.00  0.00     0.000 C
ATOM      4  C4  A00 X   1      24.353  23.133  21.7980  0.00  0.00     0.000 C
ATOM      5  C5  A00 X   1      23.099  22.425  22.3110  0.00  0.00     0.000 C
ATOM      6  O5  A00 X   1      23.053  21.182  21.5750  0.00  0.00     0.000 O
ATOM      7   O  A00 X   1      23.866  24.822  20.1850  0.00  0.00     0.000 O
ATOM      9  HD  A00 X   1      24.104  24.685  21.0060  0.00  0.00     0.000 HD
ATOM      9   O  A00 X   1      25.507  22.348  22.0980  0.00  0.00     0.000 O
ATOM     11  HD  A00 X   1      25.745  22.211  22.9190  0.00  0.00     0.000 HD
ENDROOT
BRANCH 2 11
ATOM     11   O  A00 X   1      23.881  22.201  18.2190  0.00  0.00     0.000 O
ATOM     12   O  A00 X   1      24.254  23.784  16.4530  0.00  0.00     0.000 OA
ATOM     13   O  A00 X   1      21.974  23.259  17.1180  0.00  0.00     0.000 OA
ATOM     14   O  A00 X   1      23.318  21.627  16.0270  0.00  0.00     0.000 OA
ATOM     15   S  A00 X   1      23.310  22.784  16.8810  0.00  0.00     0.000 S
ENDBRANCH 2 11
BRANCH 5 16
ATOM     16   C  A00 X   1      21.808  23.244  22.2140  0.00  0.00     0.000 C
ATOM     17   O  A00 X   1      20.753  22.698  22.4660  0.00  0.00     0.000 OA
ATOM     18   O  A00 X   1      21.802  24.417  21.9010  0.00  0.00     0.000 OA
ENDBRANCH 5 16
BRANCH 1 19
ATOM     19  O4  A00 X   2      21.372  20.998  19.8800  0.00  0.00     0.000 O
BRANCH 19 23
ATOM     20  C1  A00 X   2      21.768  16.748  20.2620  0.00  0.00     0.000 C
ATOM     21  C2  A00 X   2      22.024  17.367  18.8660  0.00  0.00     0.000 C
ATOM     22  C3  A00 X   2      22.271  18.886  18.9760  0.00  0.00     0.000 C
ATOM     23  C4  A00 X   2      21.112  19.573  19.7340  0.00  0.00     0.000 C
ATOM     24  C5  A00 X   2      20.947  18.853  21.1000  0.00  0.00     0.000 C
ATOM     25  O5  A00 X   2      20.647  17.454  20.8580  0.00  0.00     0.000 O
ATOM     26   O  A00 X   2      22.570  19.401  17.6670  0.00  0.00     0.000 O
ATOM     28  HD  A00 X   2      21.879  19.024  17.3060  0.00  0.00     0.000 HD
BRANCH 21 30
ATOM     28   N  A00 X   2      22.799  16.177  18.5030  0.00  0.00     0.000 N
ATOM     30  HD  A00 X   2      22.242  16.320  17.8560  0.00  0.00     0.000 HD
ATOM     30   O  A00 X   2      22.504  15.785  16.2190  0.00  0.00     0.000 OA
ATOM     31   S  A00 X   2      22.188  15.163  17.4560  0.00  0.00     0.000 S
ATOM     32   O  A00 X   2      22.888  13.944  17.7160  0.00  0.00     0.000 OA
ATOM     33   O  A00 X   2      20.798  15.016  17.7710  0.00  0.00     0.000 OA
ENDBRANCH 21 30
BRANCH 24 34
ATOM     34   C  A00 X   2      20.005  19.492  22.1480  0.00  0.00     0.000 C
ATOM     35   O  A00 X   2      16.484  20.209  21.5600  0.00  0.00     0.000 OA
ATOM     36   O  A00 X   2      18.794  19.977  21.5350  0.00  0.00     0.000 O
ATOM     37   O  A00 X   2      17.460  18.070  21.2970  0.00  0.00     0.000 OA
ATOM     38   S  A00 X   2      17.469  19.295  22.0380  0.00  0.00     0.000 S
ATOM     39   O  A00 X   2      17.574  19.207  23.4630  0.00  0.00     0.000 OA
ENDBRANCH 24 34
BRANCH 20 40
ATOM     40  O4  A00 X   3      22.957  17.006  21.0230  0.00  0.00     0.000 O
BRANCH 40 44
ATOM     41  C1  A00 X   3      26.085  16.978  22.8500  0.00  0.00     0.000 C
ATOM     42  C2  A00 X   3      25.855  16.287  21.4890  0.00  0.00     0.000 C
ATOM     43  C3  A00 X   3      24.589  15.393  21.5270  0.00  0.00     0.000 C
ATOM     44  C4  A00 X   3      23.342  16.083  22.0650  0.00  0.00     0.000 C
ATOM     45  C5  A00 X   3      23.651  16.748  23.4360  0.00  0.00     0.000 C
ATOM     46  O5  A00 X   3      24.858  17.574  23.3560  0.00  0.00     0.000 O
ATOM     47   O  A00 X   3      24.326  14.636  20.3470  0.00  0.00     0.000 O
ATOM     49  HD  A00 X   3      23.506  14.847  20.5300  0.00  0.00     0.000 HD
BRANCH 42 49
ATOM     49   O  A00 X   3      25.733  17.333  20.4990  0.00  0.00     0.000 O
ATOM     50   O  A00 X   3      25.270  17.452  18.1530  0.00  0.00     0.000 OA
ATOM     51   O  A00 X   3      26.709  15.753  18.9470  0.00  0.00     0.000 OA
ATOM     52   O  A00 X   3      27.453  17.994  19.0430  0.00  0.00     0.000 OA
ATOM     53   S  A00 X   3      26.319  17.135  19.0710  0.00  0.00     0.000 S
ENDBRANCH 42 49
BRANCH 45 54
ATOM     54   C  A00 X   3      23.700  15.716  24.5690  0.00  0.00     0.000 C
ATOM     55   O  A00 X   3      23.581  14.532  24.3330  0.00  0.00     0.000 OA
ATOM     56   O  A00 X   3      23.857  16.068  25.7280  0.00  0.00     0.000 OA
ENDBRANCH 45 54
BRANCH 41 57
ATOM     57  O4  A00 X   4      26.742  16.099  23.7910  0.00  0.00     0.000 O
BRANCH 57 61
ATOM     58  C1  A00 X   4      29.214  16.982  27.2180  0.00  0.00     0.000 C
ATOM     59  C2  A00 X   4      27.786  16.431  27.4560  0.00  0.00     0.000 C
ATOM     60  C3  A00 X   4      27.144  15.822  26.1930  0.00  0.00     0.000 C
ATOM     61  C4  A00 X   4      27.288  16.754  24.9710  0.00  0.00     0.000 C
ATOM     62  C5  A00 X   4      28.806  17.004  24.7910  0.00  0.00     0.000 C
ATOM     63  O5  A00 X   4      29.319  17.690  25.9620  0.00  0.00     0.000 O
BRANCH 59 66
ATOM     64   N  A00 X   4      26.875  17.512  27.8730  0.00  0.00     0.000 N
ATOM     66  HD  A00 X   4      27.056  18.314  27.6010  0.00  0.00     0.000 HD
ATOM     66   O  A00 X   4      27.742  17.246  30.1040  0.00  0.00     0.000 OA
ATOM     67   S  A00 X   4      26.555  17.674  29.4320  0.00  0.00     0.000 S
ATOM     68   O  A00 X   4      26.283  19.080  29.4960  0.00  0.00     0.000 OA
ATOM     69   O  A00 X   4      25.389  16.843  29.5380  0.00  0.00     0.000 OA
ENDBRANCH 59 66
BRANCH 62 70
ATOM     70   C  A00 X   4      29.165  17.837  23.5370  0.00  0.00     0.000 C
ATOM     71   O  A00 X   4      29.002  21.425  23.0820  0.00  0.00     0.000 OA
ATOM     72   O  A00 X   4      28.191  19.670  21.7380  0.00  0.00     0.000 OA
ATOM     73   O  A00 X   4      29.187  19.231  23.8830  0.00  0.00     0.000 O
ATOM     74   O  A00 X   4      27.011  20.261  23.7860  0.00  0.00     0.000 OA
ATOM     75   S  A00 X   4      28.251  20.201  23.0820  0.00  0.00     0.000 S
ENDBRANCH 62 70
ENDBRANCH 57 61
ENDBRANCH 41 57
ENDBRANCH 40 44
ENDBRANCH 20 40
ENDBRANCH 19 23
ENDBRANCH 1 19
TORSDOF 14
ENDMDL
MODEL 15
REMARK VINA RESULT:      -5.7      5.841     11.198
ROOT
ATOM      1  C1  A00 X   1      22.662  21.473  21.3260  0.00  0.00     0.000 C
ATOM      2  C2  A00 X   1      22.915  22.852  20.6600  0.00  0.00     0.000 C
ATOM      3  C3  A00 X   1      23.811  23.850  21.4650  0.00  0.00     0.000 C
ATOM      4  C4  A00 X   1      24.028  23.498  22.9590  0.00  0.00     0.000 C
ATOM      5  C5  A00 X   1      22.928  22.586  23.5030  0.00  0.00     0.000 C
ATOM      6  O5  A00 X   1      23.037  21.375  22.7230  0.00  0.00     0.000 O
ATOM      7   O  A00 X   1      23.200  25.138  21.4370  0.00  0.00     0.000 O
ATOM      9  HD  A00 X   1      23.500  25.015  22.2400  0.00  0.00     0.000 HD
ATOM      9   O  A00 X   1      25.304  22.895  23.1730  0.00  0.00     0.000 O
ATOM     11  HD  A00 X   1      25.604  22.772  23.9770  0.00  0.00     0.000 HD
ENDROOT
BRANCH 2 11
ATOM     11   O  A00 X   1      23.518  22.613  19.3730  0.00  0.00     0.000 O
ATOM     12   O  A00 X   1      23.665  24.330  17.7010  0.00  0.00     0.000 OA
ATOM     13   O  A00 X   1      21.476  23.540  18.4060  0.00  0.00     0.000 OA
ATOM     14   O  A00 X   1      22.928  22.120  17.1690  0.00  0.00     0.000 OA
ATOM     15   S  A00 X   1      22.841  23.216  18.0950  0.00  0.00     0.000 S
ENDBRANCH 2 11
BRANCH 5 16
ATOM     16   C  A00 X   1      21.522  23.194  23.4990  0.00  0.00     0.000 C
ATOM     17   O  A00 X   1      20.570  22.457  23.6510  0.00  0.00     0.000 OA
ATOM     18   O  A00 X   1      21.327  24.385  23.3560  0.00  0.00     0.000 OA
ENDBRANCH 5 16
BRANCH 1 19
ATOM     19  O4  A00 X   2      21.318  20.981  21.1040  0.00  0.00     0.000 O
BRANCH 19 23
ATOM     20  C1  A00 X   2      22.449  16.849  21.0070  0.00  0.00     0.000 C
ATOM     21  C2  A00 X   2      22.457  17.623  19.6670  0.00  0.00     0.000 C
ATOM     22  C3  A00 X   2      22.459  19.146  19.9130  0.00  0.00     0.000 C
ATOM     23  C4  A00 X   2      21.285  19.551  20.8330  0.00  0.00     0.000 C
ATOM     24  C5  A00 X   2      21.378  18.695  22.1260  0.00  0.00     0.000 C
ATOM     25  O5  A00 X   2      21.292  17.292  21.7650  0.00  0.00     0.000 O
ATOM     26   O  A00 X   2      22.536  19.818  18.6440  0.00  0.00     0.000 O
ATOM     28  HD  A00 X   2      21.884  19.360  18.3050  0.00  0.00     0.000 HD
BRANCH 21 30
ATOM     28   N  A00 X   2      23.143  16.429  19.1650  0.00  0.00     0.000 N
ATOM     30  HD  A00 X   2      22.632  16.712  18.5260  0.00  0.00     0.000 HD
ATOM     30   O  A00 X   2      22.925  16.388  16.8390  0.00  0.00     0.000 OA
ATOM     31   S  A00 X   2      22.498  15.632  17.9620  0.00  0.00     0.000 S
ATOM     32   O  A00 X   2      23.078  14.329  18.0690  0.00  0.00     0.000 OA
ATOM     33   O  A00 X   2      21.087  15.570  18.2050  0.00  0.00     0.000 OA
ENDBRANCH 21 30
BRANCH 24 34
ATOM     34   C  A00 X   2      20.454  19.066  23.3090  0.00  0.00     0.000 C
ATOM     35   O  A00 X   2      21.140  18.208  26.7810  0.00  0.00     0.000 OA
ATOM     36   O  A00 X   2      20.785  18.306  24.4890  0.00  0.00     0.000 O
ATOM     37   O  A00 X   2      22.629  19.421  25.4000  0.00  0.00     0.000 OA
ATOM     38   S  A00 X   2      21.260  19.157  25.7230  0.00  0.00     0.000 S
ATOM     39   O  A00 X   2      20.371  20.276  25.8090  0.00  0.00     0.000 OA
ENDBRANCH 24 34
BRANCH 20 40
ATOM     40  O4  A00 X   3      23.648  17.241  21.6890  0.00  0.00     0.000 O
BRANCH 40 44
ATOM     41  C1  A00 X   3      26.854  17.657  23.3250  0.00  0.00     0.000 C
ATOM     42  C2  A00 X   3      26.659  17.093  21.9010  0.00  0.00     0.000 C
ATOM     43  C3  A00 X   3      25.604  15.956  21.8940  0.00  0.00     0.000 C
ATOM     44  C4  A00 X   3      24.291  16.307  22.5830  0.00  0.00     0.000 C
ATOM     45  C5  A00 X   3      24.569  16.862  24.0080  0.00  0.00     0.000 C
ATOM     46  O5  A00 X   3      25.577  17.924  23.9680  0.00  0.00     0.000 O
ATOM     47   O  A00 X   3      25.405  15.299  20.6440  0.00  0.00     0.000 O
ATOM     49  HD  A00 X   3      24.576  15.314  20.8970  0.00  0.00     0.000 HD
BRANCH 42 49
ATOM     49   O  A00 X   3      26.253  18.195  21.0610  0.00  0.00     0.000 O
ATOM     50   O  A00 X   3      25.610  18.484  18.7730  0.00  0.00     0.000 OA
ATOM     51   O  A00 X   3      27.423  17.053  19.2770  0.00  0.00     0.000 OA
ATOM     52   O  A00 X   3      27.690  19.375  19.6270  0.00  0.00     0.000 OA
ATOM     53   S  A00 X   3      26.765  18.295  19.5940  0.00  0.00     0.000 S
ENDBRANCH 42 49
BRANCH 45 54
ATOM     54   C  A00 X   3      24.912  15.741  24.9970  0.00  0.00     0.000 C
ATOM     55   O  A00 X   3      24.989  15.967  26.1870  0.00  0.00     0.000 OA
ATOM     56   O  A00 X   3      25.116  14.602  24.6050  0.00  0.00     0.000 OA
ENDBRANCH 45 54
BRANCH 41 57
ATOM     57  O4  A00 X   4      27.745  16.833  24.1090  0.00  0.00     0.000 O
BRANCH 57 61
ATOM     58  C1  A00 X   4      30.126  17.880  27.5550  0.00  0.00     0.000 C
ATOM     59  C2  A00 X   4      29.000  16.829  27.7230  0.00  0.00     0.000 C
ATOM     60  C3  A00 X   4      28.470  16.277  26.3840  0.00  0.00     0.000 C
ATOM     61  C4  A00 X   4      28.162  17.408  25.3800  0.00  0.00     0.000 C
ATOM     62  C5  A00 X   4      29.479  18.204  25.2020  0.00  0.00     0.000 C
ATOM     63  O5  A00 X   4      29.852  18.798  26.4720  0.00  0.00     0.000 O
BRANCH 59 66
ATOM     64   N  A00 X   4      29.574  15.759  28.5600  0.00  0.00     0.000 N
ATOM     66  HD  A00 X   4      29.147  15.006  28.5940  0.00  0.00     0.000 HD
ATOM     66   O  A00 X   4      28.966  17.074  30.4830  0.00  0.00     0.000 OA
ATOM     67   S  A00 X   4      29.928  16.096  30.0820  0.00  0.00     0.000 S
ATOM     68   O  A00 X   4      29.775  14.800  30.6770  0.00  0.00     0.000 OA
ATOM     69   O  A00 X   4      31.293  16.518  29.9370  0.00  0.00     0.000 OA
ENDBRANCH 59 66
BRANCH 62 70
ATOM     70   C  A00 X   4      29.401  19.325  24.1390  0.00  0.00     0.000 C
ATOM     71   O  A00 X   4      28.110  22.689  24.4900  0.00  0.00     0.000 OA
ATOM     72   O  A00 X   4      27.693  21.049  22.8530  0.00  0.00     0.000 OA
ATOM     73   O  A00 X   4      29.050  20.563  24.7790  0.00  0.00     0.000 O
ATOM     74   O  A00 X   4      26.672  20.838  25.0560  0.00  0.00     0.000 OA
ATOM     75   S  A00 X   4      27.768  21.312  24.2730  0.00  0.00     0.000 S
ENDBRANCH 62 70
ENDBRANCH 57 61
ENDBRANCH 41 57
ENDBRANCH 40 44
ENDBRANCH 20 40
ENDBRANCH 19 23
ENDBRANCH 1 19
TORSDOF 14
ENDMDL
MODEL 16
REMARK VINA RESULT:      -5.5     13.156     16.693
ROOT
ATOM      1  C1  A00 X   1      37.600  13.426  26.2330  0.00  0.00     0.000 C
ATOM      2  C2  A00 X   1      39.102  13.813  26.2950  0.00  0.00     0.000 C
ATOM      3  C3  A00 X   1      40.119  12.683  25.9280  0.00  0.00     0.000 C
ATOM      4  C4  A00 X   1      39.541  11.244  25.9080  0.00  0.00     0.000 C
ATOM      5  C5  A00 X   1      38.275  11.119  26.7550  0.00  0.00     0.000 C
ATOM      6  O5  A00 X   1      37.324  12.007  26.1260  0.00  0.00     0.000 O
ATOM      7   O  A00 X   1      41.171  12.684  26.8900  0.00  0.00     0.000 O
ATOM      9  HD  A00 X   1      40.972  11.856  26.7300  0.00  0.00     0.000 HD
ATOM      9   O  A00 X   1      39.276  10.807  24.5760  0.00  0.00     0.000 O
ATOM     11  HD  A00 X   1      39.077   9.979  24.4150  0.00  0.00     0.000 HD
ENDROOT
BRANCH 2 11
ATOM     11   O  A00 X   1      39.303  14.932  25.4090  0.00  0.00     0.000 O
ATOM     12   O  A00 X   1      41.495  15.759  24.8860  0.00  0.00     0.000 OA
ATOM     13   O  A00 X   1      40.687  15.896  27.1760  0.00  0.00     0.000 OA
ATOM     14   O  A00 X   1      39.705  17.231  25.4690  0.00  0.00     0.000 OA
ATOM     15   S  A00 X   1      40.388  16.002  25.7740  0.00  0.00     0.000 S
ENDBRANCH 2 11
BRANCH 5 16
ATOM     16   C  A00 X   1      38.467  11.387  28.2510  0.00  0.00     0.000 C
ATOM     17   O  A00 X   1      37.490  11.637  28.9270  0.00  0.00     0.000 OA
ATOM     18   O  A00 X   1      39.558  11.350  28.7850  0.00  0.00     0.000 OA
ENDBRANCH 5 16
BRANCH 1 19
ATOM     19  O4  A00 X   2      36.818  14.038  27.2880  0.00  0.00     0.000 O
BRANCH 19 23
ATOM     20  C1  A00 X   2      36.745  18.116  28.6020  0.00  0.00     0.000 C
ATOM     21  C2  A00 X   2      36.889  17.858  27.0830  0.00  0.00     0.000 C
ATOM     22  C3  A00 X   2      36.470  16.415  26.7290  0.00  0.00     0.000 C
ATOM     23  C4  A00 X   2      37.251  15.396  27.5880  0.00  0.00     0.000 C
ATOM     24  C5  A00 X   2      37.042  15.773  29.0800  0.00  0.00     0.000 C
ATOM     25  O5  A00 X   2      37.541  17.119  29.2960  0.00  0.00     0.000 O
ATOM     26   O  A00 X   2      36.556  16.247  25.3030  0.00  0.00     0.000 O
ATOM     28  HD  A00 X   2      37.360  16.566  25.2630  0.00  0.00     0.000 HD
BRANCH 21 30
ATOM     28   N  A00 X   2      36.648  17.949  25.6390  0.00  0.00     0.000 N
ATOM     30  HD  A00 X   2      36.811  18.753  25.9170  0.00  0.00     0.000 HD
ATOM     30   O  A00 X   2      37.439  20.019  24.8990  0.00  0.00     0.000 OA
ATOM     31   S  A00 X   2      36.201  19.337  25.0310  0.00  0.00     0.000 S
ATOM     32   O  A00 X   2      35.574  18.980  23.7960  0.00  0.00     0.000 OA
ATOM     33   O  A00 X   2      35.240  19.904  25.9310  0.00  0.00     0.000 OA
ENDBRANCH 21 30
BRANCH 24 34
ATOM     34   C  A00 X   2      37.530  14.776  30.1560  0.00  0.00     0.000 C
ATOM     35   O  A00 X   2      35.700  14.009  33.2090  0.00  0.00     0.000 OA
ATOM     36   O  A00 X   2      36.801  14.938  31.3890  0.00  0.00     0.000 O
ATOM     37   O  A00 X   2      34.796  13.788  31.0360  0.00  0.00     0.000 OA
ATOM     38   S  A00 X   2      35.970  13.685  31.8470  0.00  0.00     0.000 S
ATOM     39   O  A00 X   2      36.815  12.545  31.6510  0.00  0.00     0.000 OA
ENDBRANCH 24 34
BRANCH 20 40
ATOM     40  O4  A00 X   3      35.356  17.914  28.9000  0.00  0.00     0.000 O
BRANCH 40 44
ATOM     41  C1  A00 X   3      32.354  17.046  30.7320  0.00  0.00     0.000 C
ATOM     42  C2  A00 X   3      32.376  17.807  29.3890  0.00  0.00     0.000 C
ATOM     43  C3  A00 X   3      33.352  19.010  29.4490  0.00  0.00     0.000 C
ATOM     44  C4  A00 X   3      34.744  18.671  29.9660  0.00  0.00     0.000 C
ATOM     45  C5  A00 X   3      34.639  17.912  31.3190  0.00  0.00     0.000 C
ATOM     46  O5  A00 X   3      33.700  16.793  31.2190  0.00  0.00     0.000 O
ATOM     47   O  A00 X   3      33.390  19.840  28.2900  0.00  0.00     0.000 O
ATOM     49  HD  A00 X   3      34.237  19.855  28.4660  0.00  0.00     0.000 HD
BRANCH 42 49
ATOM     49   O  A00 X   3      32.767  16.860  28.3720  0.00  0.00     0.000 O
ATOM     50   O  A00 X   3      33.149  16.914  26.0090  0.00  0.00     0.000 OA
ATOM     51   O  A00 X   3      31.297  18.088  26.8930  0.00  0.00     0.000 OA
ATOM     52   O  A00 X   3      31.270  15.726  26.9620  0.00  0.00     0.000 OA
ATOM     53   S  A00 X   3      32.091  16.887  26.9700  0.00  0.00     0.000 S
ENDBRANCH 42 49
BRANCH 45 54
ATOM     54   C  A00 X   3      34.323  18.863  32.4800  0.00  0.00     0.000 C
ATOM     55   O  A00 X   3      34.173  18.436  33.6060  0.00  0.00     0.000 OA
ATOM     56   O  A00 X   3      34.215  20.065  32.2920  0.00  0.00     0.000 OA
ENDBRANCH 45 54
BRANCH 41 57
ATOM     57  O4  A00 X   4      31.492  17.689  31.6970  0.00  0.00     0.000 O
BRANCH 57 61
ATOM     58  C1  A00 X   4      29.118  16.147  34.9570  0.00  0.00     0.000 C
ATOM     59  C2  A00 X   4      30.623  15.786  34.9000  0.00  0.00     0.000 C
ATOM     60  C3  A00 X   4      31.430  16.665  33.9240  0.00  0.00     0.000 C
ATOM     61  C4  A00 X   4      30.735  16.785  32.5510  0.00  0.00     0.000 C
ATOM     62  C5  A00 X   4      29.324  17.361  32.8250  0.00  0.00     0.000 C
ATOM     63  O5  A00 X   4      28.577  16.426  33.6450  0.00  0.00     0.000 O
BRANCH 59 66
ATOM     64   N  A00 X   4      30.905  14.412  34.4460  0.00  0.00     0.000 N
ATOM     66  HD  A00 X   4      30.350  14.054  33.8860  0.00  0.00     0.000 HD
ATOM     66   O  A00 X   4      30.343  13.669  36.6660  0.00  0.00     0.000 OA
ATOM     67   S  A00 X   4      31.152  13.284  35.5530  0.00  0.00     0.000 S
ATOM     68   O  A00 X   4      30.708  12.121  34.8400  0.00  0.00     0.000 OA
ATOM     69   O  A00 X   4      32.577  13.377  35.6960  0.00  0.00     0.000 OA
ENDBRANCH 59 66
BRANCH 62 70
ATOM     70   C  A00 X   4      28.503  17.659  31.5480  0.00  0.00     0.000 C
ATOM     71   O  A00 X   4      24.908  17.684  31.1240  0.00  0.00     0.000 OA
ATOM     72   O  A00 X   4      26.595  16.648  29.8500  0.00  0.00     0.000 OA
ATOM     73   O  A00 X   4      27.116  17.800  31.8960  0.00  0.00     0.000 O
ATOM     74   O  A00 X   4      25.951  15.694  31.9980  0.00  0.00     0.000 OA
ATOM     75   S  A00 X   4      26.082  16.860  31.1850  0.00  0.00     0.000 S
ENDBRANCH 62 70
ENDBRANCH 57 61
ENDBRANCH 41 57
ENDBRANCH 40 44
ENDBRANCH 20 40
ENDBRANCH 19 23
ENDBRANCH 1 19
TORSDOF 14
ENDMDL
MODEL 17
REMARK VINA RESULT:      -5.1      6.744     11.613
ROOT
ATOM      1  C1  A00 X   1      23.320  21.543  22.2320  0.00  0.00     0.000 C
ATOM      2  C2  A00 X   1      23.267  22.917  21.5110  0.00  0.00     0.000 C
ATOM      3  C3  A00 X   1      24.646  23.595  21.2220  0.00  0.00     0.000 C
ATOM      4  C4  A00 X   1      25.854  23.012  22.0010  0.00  0.00     0.000 C
ATOM      5  C5  A00 X   1      25.422  22.281  23.2720  0.00  0.00     0.000 C
ATOM      6  O5  A00 X   1      24.602  21.187  22.8060  0.00  0.00     0.000 O
ATOM      7   O  A00 X   1      24.562  24.973  21.5790  0.00  0.00     0.000 O
ATOM      9  HD  A00 X   1      25.333  24.686  21.8490  0.00  0.00     0.000 HD
ATOM      9   O  A00 X   1      26.630  22.138  21.1820  0.00  0.00     0.000 O
ATOM     11  HD  A00 X   1      27.401  21.851  21.4510  0.00  0.00     0.000 HD
ENDROOT
BRANCH 2 11
ATOM     11   O  A00 X   1      22.565  22.732  20.2660  0.00  0.00     0.000 O
ATOM     12   O  A00 X   1      21.348  24.516  19.2160  0.00  0.00     0.000 OA
ATOM     13   O  A00 X   1      20.619  23.692  21.3860  0.00  0.00     0.000 OA
ATOM     14   O  A00 X   1      20.416  22.327  19.4490  0.00  0.00     0.000 OA
ATOM     15   S  A00 X   1      21.152  23.385  20.0880  0.00  0.00     0.000 S
ENDBRANCH 2 11
BRANCH 5 16
ATOM     16   C  A00 X   1      24.734  23.159  24.3220  0.00  0.00     0.000 C
ATOM     17   O  A00 X   1      24.235  22.624  25.2910  0.00  0.00     0.000 OA
ATOM     18   O  A00 X   1      24.677  24.369  24.2240  0.00  0.00     0.000 OA
ENDBRANCH 5 16
BRANCH 1 19
ATOM     19  O4  A00 X   2      22.246  21.370  23.1890  0.00  0.00     0.000 O
BRANCH 19 23
ATOM     20  C1  A00 X   2      22.272  17.086  23.2780  0.00  0.00     0.000 C
ATOM     21  C2  A00 X   2      21.640  17.771  22.0420  0.00  0.00     0.000 C
ATOM     22  C3  A00 X   2      22.082  19.246  21.9450  0.00  0.00     0.000 C
ATOM     23  C4  A00 X   2      21.782  19.992  23.2650  0.00  0.00     0.000 C
ATOM     24  C5  A00 X   2      22.451  19.200  24.4210  0.00  0.00     0.000 C
ATOM     25  O5  A00 X   2      21.898  17.858  24.4490  0.00  0.00     0.000 O
ATOM     26   O  A00 X   2      21.526  19.817  20.7490  0.00  0.00     0.000 O
ATOM     28  HD  A00 X   2      20.726  19.538  20.9280  0.00  0.00     0.000 HD
BRANCH 21 30
ATOM     28   N  A00 X   2      21.559  17.950  20.5890  0.00  0.00     0.000 N
ATOM     30  HD  A00 X   2      21.239  17.164  20.7630  0.00  0.00     0.000 HD
ATOM     30   O  A00 X   2      20.101  16.336  19.7380  0.00  0.00     0.000 OA
ATOM     31   S  A00 X   2      21.480  16.666  19.6700  0.00  0.00     0.000 S
ATOM     32   O  A00 X   2      21.927  17.134  18.3950  0.00  0.00     0.000 OA
ATOM     33   O  A00 X   2      22.404  15.708  20.2010  0.00  0.00     0.000 OA
ENDBRANCH 21 30
BRANCH 24 34
ATOM     34   C  A00 X   2      22.496  19.857  25.8210  0.00  0.00     0.000 C
ATOM     35   O  A00 X   2      19.540  20.796  27.7290  0.00  0.00     0.000 OA
ATOM     36   O  A00 X   2      21.220  20.431  26.1690  0.00  0.00     0.000 O
ATOM     37   O  A00 X   2      19.947  18.614  26.9110  0.00  0.00     0.000 OA
ATOM     38   S  A00 X   2      20.529  19.811  27.4380  0.00  0.00     0.000 S
ATOM     39   O  A00 X   2      21.554  19.669  28.4280  0.00  0.00     0.000 OA
ENDBRANCH 24 34
BRANCH 20 40
ATOM     40  O4  A00 X   3      23.692  17.168  23.0820  0.00  0.00     0.000 O
BRANCH 40 44
ATOM     41  C1  A00 X   3      27.203  17.622  23.8510  0.00  0.00     0.000 C
ATOM     42  C2  A00 X   3      26.658  17.069  22.5160  0.00  0.00     0.000 C
ATOM     43  C3  A00 X   3      25.653  15.915  22.7620  0.00  0.00     0.000 C
ATOM     44  C4  A00 X   3      24.554  16.236  23.7680  0.00  0.00     0.000 C
ATOM     45  C5  A00 X   3      25.179  16.780  25.0830  0.00  0.00     0.000 C
ATOM     46  O5  A00 X   3      26.129  17.860  24.8030  0.00  0.00     0.000 O
ATOM     47   O  A00 X   3      25.149  15.268  21.5950  0.00  0.00     0.000 O
ATOM     49  HD  A00 X   3      24.413  15.265  22.0510  0.00  0.00     0.000 HD
BRANCH 42 49
ATOM     49   O  A00 X   3      26.036  18.173  21.8230  0.00  0.00     0.000 O
ATOM     50   O  A00 X   3      24.751  18.460  19.8240  0.00  0.00     0.000 OA
ATOM     51   O  A00 X   3      26.615  17.006  19.7830  0.00  0.00     0.000 OA
ATOM     52   O  A00 X   3      27.000  19.326  20.0200  0.00  0.00     0.000 OA
ATOM     53   S  A00 X   3      26.094  18.259  20.2700  0.00  0.00     0.000 S
ENDBRANCH 42 49
BRANCH 45 54
ATOM     54   C  A00 X   3      25.779  15.655  25.9350  0.00  0.00     0.000 C
ATOM     55   O  A00 X   3      26.115  15.861  27.0840  0.00  0.00     0.000 OA
ATOM     56   O  A00 X   3      25.931  14.535  25.4740  0.00  0.00     0.000 OA
ENDBRANCH 45 54
BRANCH 41 57
ATOM     57  O4  A00 X   4      28.276  16.805  24.3690  0.00  0.00     0.000 O
BRANCH 57 61
ATOM     58  C1  A00 X   4      31.647  17.764  26.8900  0.00  0.00     0.000 C
ATOM     59  C2  A00 X   4      30.423  17.058  27.5260  0.00  0.00     0.000 C
ATOM     60  C3  A00 X   4      29.457  16.451  26.4890  0.00  0.00     0.000 C
ATOM     61  C4  A00 X   4      29.121  17.452  25.3630  0.00  0.00     0.000 C
ATOM     62  C5  A00 X   4      30.473  17.864  24.7290  0.00  0.00     0.000 C
ATOM     63  O5  A00 X   4      31.281  18.540  25.7270  0.00  0.00     0.000 O
BRANCH 59 66
ATOM     64   N  A00 X   4      31.802  16.795  27.9780  0.00  0.00     0.000 N
ATOM     66  HD  A00 X   4      32.033  15.969  28.0970  0.00  0.00     0.000 HD
ATOM     66   O  A00 X   4      31.175  17.732  30.1060  0.00  0.00     0.000 OA
ATOM     67   S  A00 X   4      32.330  17.558  29.2810  0.00  0.00     0.000 S
ATOM     68   O  A00 X   4      33.294  16.612  29.7610  0.00  0.00     0.000 OA
ATOM     69   O  A00 X   4      32.902  18.727  28.6760  0.00  0.00     0.000 OA
ENDBRANCH 59 66
BRANCH 62 70
ATOM     70   C  A00 X   4      30.338  18.791  23.4970  0.00  0.00     0.000 C
ATOM     71   O  A00 X   4      29.993  22.393  23.4030  0.00  0.00     0.000 OA
ATOM     72   O  A00 X   4      28.755  20.705  22.3250  0.00  0.00     0.000 OA
ATOM     73   O  A00 X   4      30.476  20.159  23.9140  0.00  0.00     0.000 O
ATOM     74   O  A00 X   4      28.411  21.118  24.7010  0.00  0.00     0.000 OA
ATOM     75   S  A00 X   4      29.303  21.147  23.5880  0.00  0.00     0.000 S
ENDBRANCH 62 70
ENDBRANCH 57 61
ENDBRANCH 41 57
ENDBRANCH 40 44
ENDBRANCH 20 40
ENDBRANCH 19 23
ENDBRANCH 1 19
TORSDOF 14
ENDMDL
MODEL 18
REMARK VINA RESULT:      -4.9      2.697     11.008
ROOT
ATOM      1  C1  A00 X   1      29.374  21.074  20.9130  0.00  0.00     0.000 C
ATOM      2  C2  A00 X   1      28.421  21.549  22.0420  0.00  0.00     0.000 C
ATOM      3  C3  A00 X   1      29.071  21.755  23.4500  0.00  0.00     0.000 C
ATOM      4  C4  A00 X   1      30.473  21.121  23.6380  0.00  0.00     0.000 C
ATOM      5  C5  A00 X   1      30.728  19.981  22.6510  0.00  0.00     0.000 C
ATOM      6  O5  A00 X   1      30.674  20.605  21.3480  0.00  0.00     0.000 O
ATOM      7   O  A00 X   1      28.225  21.167  24.4350  0.00  0.00     0.000 O
ATOM      9  HD  A00 X   1      29.041  20.971  24.6490  0.00  0.00     0.000 HD
ATOM      9   O  A00 X   1      31.508  22.097  23.5240  0.00  0.00     0.000 O
ATOM     11  HD  A00 X   1      32.324  21.902  23.7380  0.00  0.00     0.000 HD
ENDROOT
BRANCH 2 11
ATOM     11   O  A00 X   1      27.820  22.788  21.6170  0.00  0.00     0.000 O
ATOM     12   O  A00 X   1      28.835  24.183  19.9460  0.00  0.00     0.000 OA
ATOM     13   O  A00 X   1      29.989  23.822  22.0570  0.00  0.00     0.000 OA
ATOM     14   O  A00 X   1      27.976  25.088  21.9850  0.00  0.00     0.000 OA
ATOM     15   S  A00 X   1      28.741  24.033  21.3760  0.00  0.00     0.000 S
ENDBRANCH 2 11
BRANCH 5 16
ATOM     16   C  A00 X   1      29.790  18.778  22.7940  0.00  0.00     0.000 C
ATOM     17   O  A00 X   1      29.734  17.974  21.8870  0.00  0.00     0.000 OA
ATOM     18   O  A00 X   1      29.107  18.598  23.7830  0.00  0.00     0.000 OA
ENDBRANCH 5 16
BRANCH 1 19
ATOM     19  O4  A00 X   2      28.748  20.131  20.0090  0.00  0.00     0.000 O
BRANCH 19 23
ATOM     20  C1  A00 X   2      24.983  20.288  17.9660  0.00  0.00     0.000 C
ATOM     21  C2  A00 X   2      25.910  21.522  17.8520  0.00  0.00     0.000 C
ATOM     22  C3  A00 X   2      27.356  21.163  18.2520  0.00  0.00     0.000 C
ATOM     23  C4  A00 X   2      27.388  20.516  19.6550  0.00  0.00     0.000 C
ATOM     24  C5  A00 X   2      26.410  19.309  19.6440  0.00  0.00     0.000 C
ATOM     25  O5  A00 X   2      25.078  19.790  19.3280  0.00  0.00     0.000 O
ATOM     26   O  A00 X   2      28.188  22.320  18.0640  0.00  0.00     0.000 O
ATOM     28  HD  A00 X   2      27.653  22.838  18.5060  0.00  0.00     0.000 HD
BRANCH 21 30
ATOM     28   N  A00 X   2      24.686  22.324  17.7550  0.00  0.00     0.000 N
ATOM     30  HD  A00 X   2      25.344  22.844  17.5400  0.00  0.00     0.000 HD
ATOM     30   O  A00 X   2      25.174  24.249  16.5250  0.00  0.00     0.000 OA
ATOM     31   S  A00 X   2      24.801  23.898  17.8490  0.00  0.00     0.000 S
ATOM     32   O  A00 X   2      23.487  24.310  18.2360  0.00  0.00     0.000 OA
ATOM     33   O  A00 X   2      25.741  24.192  18.8890  0.00  0.00     0.000 OA
ENDBRANCH 21 30
BRANCH 24 34
ATOM     34   C  A00 X   2      26.427  18.351  20.8580  0.00  0.00     0.000 C
ATOM     35   O  A00 X   2      25.676  19.369  24.2720  0.00  0.00     0.000 OA
ATOM     36   O  A00 X   2      26.444  19.081  22.1000  0.00  0.00     0.000 O
ATOM     37   O  A00 X   2      24.214  19.699  22.4430  0.00  0.00     0.000 OA
ATOM     38   S  A00 X   2      25.200  18.846  23.0340  0.00  0.00     0.000 S
ATOM     39   O  A00 X   2      24.949  17.437  23.0260  0.00  0.00     0.000 OA
ENDBRANCH 24 34
BRANCH 20 40
ATOM     40  O4  A00 X   3      25.523  19.313  17.0610  0.00  0.00     0.000 O
BRANCH 40 44
ATOM     41  C1  A00 X   3      26.418  16.176  15.4860  0.00  0.00     0.000 C
ATOM     42  C2  A00 X   3      26.475  17.556  14.7950  0.00  0.00     0.000 C
ATOM     43  C3  A00 X   3      25.137  18.319  14.9680  0.00  0.00     0.000 C
ATOM     44  C4  A00 X   3      24.629  18.390  16.4030  0.00  0.00     0.000 C
ATOM     45  C5  A00 X   3      24.595  16.967  17.0270  0.00  0.00     0.000 C
ATOM     46  O5  A00 X   3      25.874  16.280  16.8310  0.00  0.00     0.000 O
ATOM     47   O  A00 X   3      25.044  19.573  14.2950  0.00  0.00     0.000 O
ATOM     49  HD  A00 X   3      24.629  19.804  15.0200  0.00  0.00     0.000 HD
BRANCH 42 49
ATOM     49   O  A00 X   3      27.576  18.280  15.3870  0.00  0.00     0.000 O
ATOM     50   O  A00 X   3      28.617  20.412  15.0690  0.00  0.00     0.000 OA
ATOM     51   O  A00 X   3      27.975  19.161  13.1680  0.00  0.00     0.000 OA
ATOM     52   O  A00 X   3      29.750  18.352  14.5020  0.00  0.00     0.000 OA
ATOM     53   S  A00 X   3      28.545  19.106  14.4910  0.00  0.00     0.000 S
ENDBRANCH 42 49
BRANCH 45 54
ATOM     54   C  A00 X   3      23.393  16.157  16.5270  0.00  0.00     0.000 C
ATOM     55   O  A00 X   3      22.837  16.450  15.4880  0.00  0.00     0.000 OA
ATOM     56   O  A00 X   3      22.972  15.204  17.1660  0.00  0.00     0.000 OA
ENDBRANCH 45 54
BRANCH 41 57
ATOM     57  O4  A00 X   4      25.756  15.192  14.6600  0.00  0.00     0.000 O
BRANCH 57 61
ATOM     58  C1  A00 X   4      25.877  10.876  14.6590  0.00  0.00     0.000 C
ATOM     59  C2  A00 X   4      24.686  11.585  15.3520  0.00  0.00     0.000 C
ATOM     60  C3  A00 X   4      24.560  13.077  14.9840  0.00  0.00     0.000 C
ATOM     61  C4  A00 X   4      25.912  13.812  15.0970  0.00  0.00     0.000 C
ATOM     62  C5  A00 X   4      26.895  13.062  14.1640  0.00  0.00     0.000 C
ATOM     63  O5  A00 X   4      27.063  11.703  14.6420  0.00  0.00     0.000 O
BRANCH 59 66
ATOM     64   N  A00 X   4      24.136  11.721  16.7130  0.00  0.00     0.000 N
ATOM     66  HD  A00 X   4      24.677  11.975  17.3400  0.00  0.00     0.000 HD
ATOM     66   O  A00 X   4      23.962   9.320  16.7750  0.00  0.00     0.000 OA
ATOM     67   S  A00 X   4      23.344  10.480  17.3380  0.00  0.00     0.000 S
ATOM     68   O  A00 X   4      23.589  10.693  18.7340  0.00  0.00     0.000 OA
ATOM     69   O  A00 X   4      22.008  10.796  16.9190  0.00  0.00     0.000 OA
ENDBRANCH 59 66
BRANCH 62 70
ATOM     70   C  A00 X   4      28.291  13.721  14.0550  0.00  0.00     0.000 C
ATOM     71   O  A00 X   4      29.418  16.263  11.7370  0.00  0.00     0.000 OA
ATOM     72   O  A00 X   4      30.388  14.207  12.3500  0.00  0.00     0.000 OA
ATOM     73   O  A00 X   4      28.217  14.846  13.1650  0.00  0.00     0.000 O
ATOM     74   O  A00 X   4      28.469  14.232  10.8480  0.00  0.00     0.000 OA
ATOM     75   S  A00 X   4      29.172  14.860  11.9200  0.00  0.00     0.000 S
ENDBRANCH 62 70
ENDBRANCH 57 61
ENDBRANCH 41 57
ENDBRANCH 40 44
ENDBRANCH 20 40
ENDBRANCH 19 23
ENDBRANCH 1 19
TORSDOF 14
ENDMDL
MODEL 19
REMARK VINA RESULT:      -4.7      3.087     11.200
ROOT
ATOM      1  C1  A00 X   1      30.964  20.429  21.8000  0.00  0.00     0.000 C
ATOM      2  C2  A00 X   1      30.225  21.467  22.6860  0.00  0.00     0.000 C
ATOM      3  C3  A00 X   1      30.791  21.665  24.1300  0.00  0.00     0.000 C
ATOM      4  C4  A00 X   1      31.765  20.564  24.6240  0.00  0.00     0.000 C
ATOM      5  C5  A00 X   1      31.579  19.249  23.8680  0.00  0.00     0.000 C
ATOM      6  O5  A00 X   1      31.898  19.566  22.4950  0.00  0.00     0.000 O
ATOM      7   O  A00 X   1      29.702  21.685  25.0500  0.00  0.00     0.000 O
ATOM      9  HD  A00 X   1      30.335  21.219  25.4140  0.00  0.00     0.000 HD
ATOM      9   O  A00 X   1      33.124  20.988  24.5270  0.00  0.00     0.000 O
ATOM     11  HD  A00 X   1      33.758  20.523  24.8900  0.00  0.00     0.000 HD
ENDROOT
BRANCH 2 11
ATOM     11   O  A00 X   1      30.251  22.731  21.9940  0.00  0.00     0.000 O
ATOM     12   O  A00 X   1      31.787  23.166  20.2000  0.00  0.00     0.000 OA
ATOM     13   O  A00 X   1      32.653  22.760  22.4360  0.00  0.00     0.000 OA
ATOM     14   O  A00 X   1      31.432  24.744  21.9590  0.00  0.00     0.000 OA
ATOM     15   S  A00 X   1      31.636  23.362  21.6190  0.00  0.00     0.000 S
ENDBRANCH 2 11
BRANCH 5 16
ATOM     16   C  A00 X   1      30.206  18.590  24.0420  0.00  0.00     0.000 C
ATOM     17   O  A00 X   1      29.506  18.943  24.9680  0.00  0.00     0.000 OA
ATOM     18   O  A00 X   1      29.793  17.735  23.2840  0.00  0.00     0.000 OA
ENDBRANCH 5 16
BRANCH 1 19
ATOM     19  O4  A00 X   2      30.064  19.665  20.9600  0.00  0.00     0.000 O
BRANCH 19 23
ATOM     20  C1  A00 X   2      26.815  20.904  18.4550  0.00  0.00     0.000 C
ATOM     21  C2  A00 X   2      28.191  21.573  18.2230  0.00  0.00     0.000 C
ATOM     22  C3  A00 X   2      29.321  20.745  18.8700  0.00  0.00     0.000 C
ATOM     23  C4  A00 X   2      29.022  20.490  20.3640  0.00  0.00     0.000 C
ATOM     24  C5  A00 X   2      27.616  19.837  20.4620  0.00  0.00     0.000 C
ATOM     25  O5  A00 X   2      26.639  20.744  19.8880  0.00  0.00     0.000 O
ATOM     26   O  A00 X   2      30.581  21.369  18.5690  0.00  0.00     0.000 O
ATOM     28  HD  A00 X   2      30.313  22.151  18.8290  0.00  0.00     0.000 HD
BRANCH 21 30
ATOM     28   N  A00 X   2      28.728  21.699  16.8650  0.00  0.00     0.000 N
ATOM     30  HD  A00 X   2      28.343  22.452  17.0530  0.00  0.00     0.000 HD
ATOM     30   O  A00 X   2      28.765  23.967  16.3050  0.00  0.00     0.000 OA
ATOM     31   S  A00 X   2      28.100  22.781  15.8980  0.00  0.00     0.000 S
ATOM     32   O  A00 X   2      28.447  22.311  14.5930  0.00  0.00     0.000 OA
ATOM     33   O  A00 X   2      26.679  22.738  16.0810  0.00  0.00     0.000 OA
ENDBRANCH 21 30
BRANCH 24 34
ATOM     34   C  A00 X   2      27.172  19.271  21.8310  0.00  0.00     0.000 C
ATOM     35   O  A00 X   2      26.773  21.283  24.8390  0.00  0.00     0.000 OA
ATOM     36   O  A00 X   2      27.442  20.205  22.8950  0.00  0.00     0.000 O
ATOM     37   O  A00 X   2      25.669  21.728  22.7960  0.00  0.00     0.000 OA
ATOM     38   S  A00 X   2      26.175  20.718  23.6740  0.00  0.00     0.000 S
ATOM     39   O  A00 X   2      25.352  19.570  23.9100  0.00  0.00     0.000 OA
ENDBRANCH 24 34
BRANCH 20 40
ATOM     40  O4  A00 X   3      26.903  19.612  17.8350  0.00  0.00     0.000 O
BRANCH 40 44
ATOM     41  C1  A00 X   3      26.608  16.293  16.4140  0.00  0.00     0.000 C
ATOM     42  C2  A00 X   3      27.060  17.547  15.6350  0.00  0.00     0.000 C
ATOM     43  C3  A00 X   3      26.060  18.715  15.8340  0.00  0.00     0.000 C
ATOM     44  C4  A00 X   3      25.711  19.009  17.2880  0.00  0.00     0.000 C
ATOM     45  C5  A00 X   3      25.262  17.703  18.0020  0.00  0.00     0.000 C
ATOM     46  O5  A00 X   3      26.229  16.626  17.7780  0.00  0.00     0.000 O
ATOM     47   O  A00 X   3      26.331  19.901  15.0900  0.00  0.00     0.000 O
ATOM     49  HD  A00 X   3      26.069  20.285  15.8210  0.00  0.00     0.000 HD
BRANCH 42 49
ATOM     49   O  A00 X   3      28.377  17.892  16.1160  0.00  0.00     0.000 O
ATOM     50   O  A00 X   3      30.032  19.544  15.6020  0.00  0.00     0.000 OA
ATOM     51   O  A00 X   3      28.878  18.494  13.8260  0.00  0.00     0.000 OA
ATOM     52   O  A00 X   3      30.384  17.203  15.1100  0.00  0.00     0.000 OA
ATOM     53   S  A00 X   3      29.494  18.312  15.1160  0.00  0.00     0.000 S
ENDBRANCH 42 49
BRANCH 45 54
ATOM     54   C  A00 X   3      23.828  17.314  17.6240  0.00  0.00     0.000 C
ATOM     55   O  A00 X   3      23.380  17.589  16.5290  0.00  0.00     0.000 OA
ATOM     56   O  A00 X   3      23.111  16.723  18.4160  0.00  0.00     0.000 OA
ENDBRANCH 45 54
BRANCH 41 57
ATOM     57  O4  A00 X   4      25.603  15.548  15.6900  0.00  0.00     0.000 O
BRANCH 57 61
ATOM     58  C1  A00 X   4      25.661  11.348  14.6930  0.00  0.00     0.000 C
ATOM     59  C2  A00 X   4      24.431  11.915  15.4450  0.00  0.00     0.000 C
ATOM     60  C3  A00 X   4      24.354  13.455  15.4260  0.00  0.00     0.000 C
ATOM     61  C4  A00 X   4      25.705  14.100  15.8040  0.00  0.00     0.000 C
ATOM     62  C5  A00 X   4      26.746  13.556  14.7950  0.00  0.00     0.000 C
ATOM     63  O5  A00 X   4      26.857  12.118  14.9530  0.00  0.00     0.000 O
BRANCH 59 66
ATOM     64   N  A00 X   4      23.925  11.718  16.8150  0.00  0.00     0.000 N
ATOM     66  HD  A00 X   4      24.498  11.758  17.4630  0.00  0.00     0.000 HD
ATOM     66   O  A00 X   4      23.567   9.406  16.2450  0.00  0.00     0.000 OA
ATOM     67   S  A00 X   4      23.054  10.412  17.1210  0.00  0.00     0.000 S
ATOM     68   O  A00 X   4      23.346  10.226  18.5130  0.00  0.00     0.000 OA
ATOM     69   O  A00 X   4      21.736  10.920  16.8600  0.00  0.00     0.000 OA
ENDBRANCH 59 66
BRANCH 62 70
ATOM     70   C  A00 X   4      28.155  14.177  14.9430  0.00  0.00     0.000 C
ATOM     71   O  A00 X   4      30.875  14.208  12.5540  0.00  0.00     0.000 OA
ATOM     72   O  A00 X   4      30.844  13.628  14.8360  0.00  0.00     0.000 OA
ATOM     73   O  A00 X   4      28.814  14.170  13.6660  0.00  0.00     0.000 O
ATOM     74   O  A00 X   4      29.923  12.085  13.1890  0.00  0.00     0.000 OA
ATOM     75   S  A00 X   4      30.196  13.437  13.5570  0.00  0.00     0.000 S
ENDBRANCH 62 70
ENDBRANCH 57 61
ENDBRANCH 41 57
ENDBRANCH 40 44
ENDBRANCH 20 40
ENDBRANCH 19 23
ENDBRANCH 1 19
TORSDOF 14
ENDMDL
MODEL 20
REMARK VINA RESULT:      -4.5     16.091     19.201
ROOT
ATOM      1  C1  A00 X   1      42.859  11.927  24.5820  0.00  0.00     0.000 C
ATOM      2  C2  A00 X   1      41.668  12.430  23.7230  0.00  0.00     0.000 C
ATOM      3  C3  A00 X   1      42.024  12.952  22.2920  0.00  0.00     0.000 C
ATOM      4  C4  A00 X   1      43.526  13.246  22.0430  0.00  0.00     0.000 C
ATOM      5  C5  A00 X   1      44.288  13.499  23.3440  0.00  0.00     0.000 C
ATOM      6  O5  A00 X   1      44.177  12.261  24.0810  0.00  0.00     0.000 O
ATOM      7   O  A00 X   1      41.329  14.175  22.0650  0.00  0.00     0.000 O
ATOM      9  HD  A00 X   1      42.128  14.273  21.7460  0.00  0.00     0.000 HD
ATOM      9   O  A00 X   1      44.151  12.190  21.3150  0.00  0.00     0.000 O
ATOM     11  HD  A00 X   1      44.951  12.288  20.9960  0.00  0.00     0.000 HD
ENDROOT
BRANCH 2 11
ATOM     11   O  A00 X   1      40.724  11.348  23.6070  0.00  0.00     0.000 O
ATOM     12   O  A00 X   1      41.329   9.076  24.0950  0.00  0.00     0.000 OA
ATOM     13   O  A00 X   1      42.404  10.221  22.2380  0.00  0.00     0.000 OA
ATOM     14   O  A00 X   1      40.097   9.652  22.1290  0.00  0.00     0.000 OA
ATOM     15   S  A00 X   1      41.200   9.989  22.9880  0.00  0.00     0.000 S
ENDBRANCH 2 11
BRANCH 5 16
ATOM     16   C  A00 X   1      43.829  14.727  24.1360  0.00  0.00     0.000 C
ATOM     17   O  A00 X   1      44.294  14.913  25.2420  0.00  0.00     0.000 OA
ATOM     18   O  A00 X   1      43.024  15.523  23.6950  0.00  0.00     0.000 OA
ENDBRANCH 5 16
BRANCH 1 19
ATOM     19  O4  A00 X   2      42.725  12.269  25.9830  0.00  0.00     0.000 O
BRANCH 19 23
ATOM     20  C1  A00 X   2      40.731  10.285  29.2170  0.00  0.00     0.000 C
ATOM     21  C2  A00 X   2      41.954   9.575  28.5880  0.00  0.00     0.000 C
ATOM     22  C3  A00 X   2      42.804  10.567  27.7680  0.00  0.00     0.000 C
ATOM     23  C4  A00 X   2      41.931  11.297  26.7220  0.00  0.00     0.000 C
ATOM     24  C5  A00 X   2      40.737  11.948  27.4720  0.00  0.00     0.000 C
ATOM     25  O5  A00 X   2      39.979  10.905  28.1390  0.00  0.00     0.000 O
ATOM     26   O  A00 X   2      43.960   9.877  27.2630  0.00  0.00     0.000 O
ATOM     28  HD  A00 X   2      43.492   9.223  26.9410  0.00  0.00     0.000 HD
BRANCH 21 30
ATOM     28   N  A00 X   2      41.287   8.292  28.8300  0.00  0.00     0.000 N
ATOM     30  HD  A00 X   2      42.120   8.115  28.6710  0.00  0.00     0.000 HD
ATOM     30   O  A00 X   2      42.932   6.685  29.2450  0.00  0.00     0.000 OA
ATOM     31   S  A00 X   2      41.950   6.974  28.2610  0.00  0.00     0.000 S
ATOM     32   O  A00 X   2      40.862   6.046  28.2030  0.00  0.00     0.000 OA
ATOM     33   O  A00 X   2      42.420   7.272  26.9410  0.00  0.00     0.000 OA
ENDBRANCH 21 30
BRANCH 24 34
ATOM     34   C  A00 X   2      39.836  12.931  26.6880  0.00  0.00     0.000 C
ATOM     35   O  A00 X   2      36.372  12.256  25.7950  0.00  0.00     0.000 OA
ATOM     36   O  A00 X   2      38.661  12.270  26.1780  0.00  0.00     0.000 O
ATOM     37   O  A00 X   2      37.205  12.179  28.0070  0.00  0.00     0.000 OA
ATOM     38   S  A00 X   2      37.293  12.816  26.7280  0.00  0.00     0.000 S
ATOM     39   O  A00 X   2      37.388  14.245  26.7040  0.00  0.00     0.000 OA
ENDBRANCH 24 34
BRANCH 20 40
ATOM     40  O4  A00 X   3      41.272  11.304  30.0720  0.00  0.00     0.000 O
BRANCH 40 44
ATOM     41  C1  A00 X   3      40.390  14.656  31.1240  0.00  0.00     0.000 C
ATOM     42  C2  A00 X   3      41.740  13.968  31.4190  0.00  0.00     0.000 C
ATOM     43  C3  A00 X   3      41.524  12.563  32.0390  0.00  0.00     0.000 C
ATOM     44  C4  A00 X   3      40.555  11.674  31.2690  0.00  0.00     0.000 C
ATOM     45  C5  A00 X   3      39.222  12.432  31.0170  0.00  0.00     0.000 C
ATOM     46  O5  A00 X   3      39.474  13.755  30.4410  0.00  0.00     0.000 O
ATOM     47   O  A00 X   3      42.705  11.868  32.4330  0.00  0.00     0.000 O
ATOM     49  HD  A00 X   3      42.273  11.186  32.1180  0.00  0.00     0.000 HD
BRANCH 42 49
ATOM     49   O  A00 X   3      42.456  13.888  30.1670  0.00  0.00     0.000 O
ATOM     50   O  A00 X   3      44.592  13.086  29.4400  0.00  0.00     0.000 OA
ATOM     51   O  A00 X   3      44.455  14.288  31.4710  0.00  0.00     0.000 OA
ATOM     52   O  A00 X   3      44.060  15.445  29.4490  0.00  0.00     0.000 OA
ATOM     53   S  A00 X   3      43.982  14.190  30.1130  0.00  0.00     0.000 S
ENDBRANCH 42 49
BRANCH 45 54
ATOM     54   C  A00 X   3      38.348  12.479  32.2760  0.00  0.00     0.000 C
ATOM     55   O  A00 X   3      37.150  12.653  32.1910  0.00  0.00     0.000 OA
ATOM     56   O  A00 X   3      38.841  12.342  33.3850  0.00  0.00     0.000 OA
ENDBRANCH 45 54
BRANCH 41 57
ATOM     57  O4  A00 X   4      39.834  15.271  32.3080  0.00  0.00     0.000 O
BRANCH 57 61
ATOM     58  C1  A00 X   4      36.544  18.011  32.8620  0.00  0.00     0.000 C
ATOM     59  C2  A00 X   4      36.306  16.503  33.1250  0.00  0.00     0.000 C
ATOM     60  C3  A00 X   4      37.608  15.686  33.2470  0.00  0.00     0.000 C
ATOM     61  C4  A00 X   4      38.592  16.002  32.1010  0.00  0.00     0.000 C
ATOM     62  C5  A00 X   4      38.853  17.528  32.1570  0.00  0.00     0.000 C
ATOM     63  O5  A00 X   4      37.609  18.233  31.9100  0.00  0.00     0.000 O
BRANCH 59 66
ATOM     64   N  A00 X   4      35.505  15.448  32.4770  0.00  0.00     0.000 N
ATOM     66  HD  A00 X   4      35.566  15.372  31.6160  0.00  0.00     0.000 HD
ATOM     66   O  A00 X   4      33.549  16.755  32.9940  0.00  0.00     0.000 OA
ATOM     67   S  A00 X   4      33.935  15.395  32.7800  0.00  0.00     0.000 S
ATOM     68   O  A00 X   4      33.457  14.802  31.5650  0.00  0.00     0.000 OA
ATOM     69   O  A00 X   4      33.926  14.510  33.9100  0.00  0.00     0.000 OA
ENDBRANCH 59 66
BRANCH 62 70
ATOM     70   C  A00 X   4      39.910  18.026  31.1430  0.00  0.00     0.000 C
ATOM     71   O  A00 X   4      39.532  18.634  27.5940  0.00  0.00     0.000 OA
ATOM     72   O  A00 X   4      41.171  17.428  28.7780  0.00  0.00     0.000 OA
ATOM     73   O  A00 X   4      39.262  18.359  29.9050  0.00  0.00     0.000 O
ATOM     74   O  A00 X   4      38.959  16.457  28.4580  0.00  0.00     0.000 OA
ATOM     75   S  A00 X   4      39.751  17.636  28.6030  0.00  0.00     0.000 S
ENDBRANCH 62 70
ENDBRANCH 57 61
ENDBRANCH 41 57
ENDBRANCH 40 44
ENDBRANCH 20 40
ENDBRANCH 19 23
ENDBRANCH 1 19
TORSDOF 14
ENDMDL
MODEL 21
REMARK VINA RESULT:      -4.1     10.878     15.895
ROOT
ATOM      1  C1  A00 X   1      34.894  21.968  18.9170  0.00  0.00     0.000 C
ATOM      2  C2  A00 X   1      34.369  21.033  17.7950  0.00  0.00     0.000 C
ATOM      3  C3  A00 X   1      32.984  21.414  17.1760  0.00  0.00     0.000 C
ATOM      4  C4  A00 X   1      32.146  22.434  17.9890  0.00  0.00     0.000 C
ATOM      5  C5  A00 X   1      32.549  22.467  19.4630  0.00  0.00     0.000 C
ATOM      6  O5  A00 X   1      33.927  22.902  19.4570  0.00  0.00     0.000 O
ATOM      7   O  A00 X   1      32.191  20.233  17.0680  0.00  0.00     0.000 O
ATOM      9  HD  A00 X   1      31.670  20.866  17.3460  0.00  0.00     0.000 HD
ATOM      9   O  A00 X   1      32.238  23.745  17.4340  0.00  0.00     0.000 O
ATOM     11  HD  A00 X   1      31.716  24.379  17.7110  0.00  0.00     0.000 HD
ENDROOT
BRANCH 2 11
ATOM     11   O  A00 X   1      35.359  21.007  16.7480  0.00  0.00     0.000 O
ATOM     12   O  A00 X   1      37.090  22.665  16.5940  0.00  0.00     0.000 OA
ATOM     13   O  A00 X   1      34.768  23.339  16.3280  0.00  0.00     0.000 OA
ATOM     14   O  A00 X   1      35.826  21.988  14.6810  0.00  0.00     0.000 OA
ATOM     15   S  A00 X   1      35.783  22.355  16.0710  0.00  0.00     0.000 S
ENDBRANCH 2 11
BRANCH 5 16
ATOM     16   C  A00 X   1      32.323  21.158  20.2270  0.00  0.00     0.000 C
ATOM     17   O  A00 X   1      32.824  21.031  21.3250  0.00  0.00     0.000 OA
ATOM     18   O  A00 X   1      31.656  20.247  19.7760  0.00  0.00     0.000 OA
ENDBRANCH 5 16
BRANCH 1 19
ATOM     19  O4  A00 X   2      35.579  21.248  19.9720  0.00  0.00     0.000 O
BRANCH 19 23
ATOM     20  C1  A00 X   2      38.538  22.497  22.8080  0.00  0.00     0.000 C
ATOM     21  C2  A00 X   2      37.092  23.008  23.0140  0.00  0.00     0.000 C
ATOM     22  C3  A00 X   2      36.089  22.155  22.2090  0.00  0.00     0.000 C
ATOM     23  C4  A00 X   2      36.498  22.095  20.7200  0.00  0.00     0.000 C
ATOM     24  C5  A00 X   2      37.965  21.589  20.6510  0.00  0.00     0.000 C
ATOM     25  O5  A00 X   2      38.813  22.513  21.3820  0.00  0.00     0.000 O
ATOM     26   O  A00 X   2      34.758  22.623  22.4860  0.00  0.00     0.000 O
ATOM     28  HD  A00 X   2      34.962  23.450  22.3290  0.00  0.00     0.000 HD
BRANCH 21 30
ATOM     28   N  A00 X   2      36.030  23.058  24.0240  0.00  0.00     0.000 N
ATOM     30  HD  A00 X   2      36.594  23.686  24.2210  0.00  0.00     0.000 HD
ATOM     30   O  A00 X   2      36.173  25.113  25.1270  0.00  0.00     0.000 OA
ATOM     31   S  A00 X   2      36.343  23.733  25.4190  0.00  0.00     0.000 S
ATOM     32   O  A00 X   2      35.358  23.176  26.2930  0.00  0.00     0.000 OA
ATOM     33   O  A00 X   2      37.654  23.309  25.8110  0.00  0.00     0.000 OA
ENDBRANCH 21 30
BRANCH 24 34
ATOM     34   C  A00 X   2      38.541  21.220  19.2640  0.00  0.00     0.000 C
ATOM     35   O  A00 X   2      41.641  22.574  17.9160  0.00  0.00     0.000 OA
ATOM     36   O  A00 X   2      39.560  22.154  18.8560  0.00  0.00     0.000 O
ATOM     37   O  A00 X   2      41.481  21.454  19.9930  0.00  0.00     0.000 OA
ATOM     38   S  A00 X   2      40.992  21.538  18.6500  0.00  0.00     0.000 S
ATOM     39   O  A00 X   2      40.806  20.312  17.9340  0.00  0.00     0.000 OA
ENDBRANCH 24 34
BRANCH 20 40
ATOM     40  O4  A00 X   3      38.543  21.143  23.2830  0.00  0.00     0.000 O
BRANCH 40 44
ATOM     41  C1  A00 X   3      39.323  17.624  23.6430  0.00  0.00     0.000 C
ATOM     42  C2  A00 X   3      38.570  18.470  24.6920  0.00  0.00     0.000 C
ATOM     43  C3  A00 X   3      39.346  19.774  25.0150  0.00  0.00     0.000 C
ATOM     44  C4  A00 X   3      39.770  20.577  23.7920  0.00  0.00     0.000 C
ATOM     45  C5  A00 X   3      40.524  19.660  22.7880  0.00  0.00     0.000 C
ATOM     46  O5  A00 X   3      39.761  18.439  22.5210  0.00  0.00     0.000 O
ATOM     47   O  A00 X   3      38.786  20.595  26.0370  0.00  0.00     0.000 O
ATOM     49  HD  A00 X   3      39.039  21.232  25.5080  0.00  0.00     0.000 HD
BRANCH 42 49
ATOM     49   O  A00 X   3      37.263  18.755  24.1470  0.00  0.00     0.000 O
ATOM     50   O  A00 X   3      35.332  19.992  24.8330  0.00  0.00     0.000 OA
ATOM     51   O  A00 X   3      36.473  18.678  26.4330  0.00  0.00     0.000 OA
ATOM     52   O  A00 X   3      35.307  17.578  24.6970  0.00  0.00     0.000 OA
ATOM     53   S  A00 X   3      36.010  18.756  25.0700  0.00  0.00     0.000 S
ENDBRANCH 42 49
BRANCH 45 54
ATOM     54   C  A00 X   3      41.963  19.386  23.2400  0.00  0.00     0.000 C
ATOM     55   O  A00 X   3      42.781  18.938  22.4630  0.00  0.00     0.000 OA
ATOM     56   O  A00 X   3      42.311  19.612  24.3890  0.00  0.00     0.000 OA
ENDBRANCH 45 54
BRANCH 41 57
ATOM     57  O4  A00 X   4      40.378  16.840  24.2460  0.00  0.00     0.000 O
BRANCH 57 61
ATOM     58  C1  A00 X   4      42.185  13.049  23.2470  0.00  0.00     0.000 C
ATOM     59  C2  A00 X   4      42.468  14.269  22.3350  0.00  0.00     0.000 C
ATOM     60  C3  A00 X   4      42.079  15.618  22.9740  0.00  0.00     0.000 C
ATOM     61  C4  A00 X   4      40.663  15.575  23.5850  0.00  0.00     0.000 C
ATOM     62  C5  A00 X   4      40.668  14.420  24.6180  0.00  0.00     0.000 C
ATOM     63  O5  A00 X   4      40.917  13.167  23.9310  0.00  0.00     0.000 O
BRANCH 59 66
ATOM     64   N  A00 X   4      42.129  14.635  20.9480  0.00  0.00     0.000 N
ATOM     66  HD  A00 X   4      41.304  14.543  20.7010  0.00  0.00     0.000 HD
ATOM     66   O  A00 X   4      43.364  12.693  20.2390  0.00  0.00     0.000 OA
ATOM     67   S  A00 X   4      42.984  13.986  19.7620  0.00  0.00     0.000 S
ATOM     68   O  A00 X   4      42.012  13.994  18.7080  0.00  0.00     0.000 OA
ATOM     69   O  A00 X   4      44.013  14.977  19.6210  0.00  0.00     0.000 OA
ENDBRANCH 59 66
BRANCH 62 70
ATOM     70   C  A00 X   4      39.355  14.287  25.4250  0.00  0.00     0.000 C
ATOM     71   O  A00 X   4      38.149  11.456  27.3320  0.00  0.00     0.000 OA
ATOM     72   O  A00 X   4      37.072  12.787  25.7150  0.00  0.00     0.000 OA
ATOM     73   O  A00 X   4      39.405  13.091  26.2190  0.00  0.00     0.000 O
ATOM     74   O  A00 X   4      38.710  11.126  25.0100  0.00  0.00     0.000 OA
ATOM     75   S  A00 X   4      38.266  12.031  26.0210  0.00  0.00     0.000 S
ENDBRANCH 62 70
ENDBRANCH 57 61
ENDBRANCH 41 57
ENDBRANCH 40 44
ENDBRANCH 20 40
ENDBRANCH 19 23
ENDBRANCH 1 19
TORSDOF 14
ENDMDL
MODEL 22
REMARK VINA RESULT:      -4.1      6.945     11.341
ROOT
ATOM      1  C1  A00 X   1      25.872  21.951  23.2450  0.00  0.00     0.000 C
ATOM      2  C2  A00 X   1      25.504  22.582  24.6150  0.00  0.00     0.000 C
ATOM      3  C3  A00 X   1      24.634  23.881  24.5610  0.00  0.00     0.000 C
ATOM      4  C4  A00 X   1      24.557  24.577  23.1780  0.00  0.00     0.000 C
ATOM      5  C5  A00 X   1      25.738  24.208  22.2800  0.00  0.00     0.000 C
ATOM      6  O5  A00 X   1      25.618  22.781  22.0850  0.00  0.00     0.000 O
ATOM      7   O  A00 X   1      25.183  24.836  25.4660  0.00  0.00     0.000 O
ATOM      9  HD  A00 X   1      24.957  25.265  24.7480  0.00  0.00     0.000 HD
ATOM      9   O  A00 X   1      23.331  24.279  22.5110  0.00  0.00     0.000 O
ATOM     11  HD  A00 X   1      23.105  24.707  21.7930  0.00  0.00     0.000 HD
ENDROOT
BRANCH 2 11
ATOM     11   O  A00 X   1      24.808  21.582  25.3850  0.00  0.00     0.000 O
ATOM     12   O  A00 X   1      23.622  22.130  27.4000  0.00  0.00     0.000 OA
ATOM     13   O  A00 X   1      26.035  22.427  27.3200  0.00  0.00     0.000 OA
ATOM     14   O  A00 X   1      25.088  20.246  27.2790  0.00  0.00     0.000 OA
ATOM     15   S  A00 X   1      24.897  21.633  26.9490  0.00  0.00     0.000 S
ENDBRANCH 2 11
BRANCH 5 16
ATOM     16   C  A00 X   1      27.110  24.643  22.8020  0.00  0.00     0.000 C
ATOM     17   O  A00 X   1      27.161  25.499  23.6620  0.00  0.00     0.000 OA
ATOM     18   O  A00 X   1      28.147  24.159  22.3930  0.00  0.00     0.000 OA
ENDBRANCH 5 16
BRANCH 1 19
ATOM     19  O4  A00 X   2      27.213  21.405  23.2210  0.00  0.00     0.000 O
BRANCH 19 23
ATOM     20  C1  A00 X   2      25.881  17.479  22.1340  0.00  0.00     0.000 C
ATOM     21  C2  A00 X   2      26.473  17.666  23.5520  0.00  0.00     0.000 C
ATOM     22  C3  A00 X   2      26.498  19.157  23.9460  0.00  0.00     0.000 C
ATOM     23  C4  A00 X   2      27.235  19.991  22.8730  0.00  0.00     0.000 C
ATOM     24  C5  A00 X   2      26.562  19.703  21.5030  0.00  0.00     0.000 C
ATOM     25  O5  A00 X   2      26.670  18.284  21.2180  0.00  0.00     0.000 O
ATOM     26   O  A00 X   2      26.990  19.271  25.2920  0.00  0.00     0.000 O
ATOM     28  HD  A00 X   2      27.684  18.777  25.1330  0.00  0.00     0.000 HD
BRANCH 21 30
ATOM     28   N  A00 X   2      25.654  16.831  24.4360  0.00  0.00     0.000 N
ATOM     30  HD  A00 X   2      26.429  16.450  24.3790  0.00  0.00     0.000 HD
ATOM     30   O  A00 X   2      27.076  15.389  25.6000  0.00  0.00     0.000 OA
ATOM     31   S  A00 X   2      26.047  15.312  24.6250  0.00  0.00     0.000 S
ATOM     32   O  A00 X   2      24.834  14.702  25.0740  0.00  0.00     0.000 OA
ATOM     33   O  A00 X   2      26.411  14.806  23.3350  0.00  0.00     0.000 OA
ENDBRANCH 21 30
BRANCH 24 34
ATOM     34   C  A00 X   2      26.963  20.587  20.2980  0.00  0.00     0.000 C
ATOM     35   O  A00 X   2      24.869  21.110  17.3660  0.00  0.00     0.000 OA
ATOM     36   O  A00 X   2      26.120  20.327  19.1570  0.00  0.00     0.000 O
ATOM     37   O  A00 X   2      24.172  21.550  19.5820  0.00  0.00     0.000 OA
ATOM     38   S  A00 X   2      25.268  21.552  18.6610  0.00  0.00     0.000 S
ATOM     39   O  A00 X   2      26.142  22.686  18.6730  0.00  0.00     0.000 OA
ENDBRANCH 24 34
BRANCH 20 40
ATOM     40  O4  A00 X   3      24.545  17.999  22.2000  0.00  0.00     0.000 O
BRANCH 40 44
ATOM     41  C1  A00 X   3      21.042  18.915  22.0940  0.00  0.00     0.000 C
ATOM     42  C2  A00 X   3      21.630  17.784  22.9650  0.00  0.00     0.000 C
ATOM     43  C3  A00 X   3      22.509  16.830  22.1160  0.00  0.00     0.000 C
ATOM     44  C4  A00 X   3      23.557  17.529  21.2590  0.00  0.00     0.000 C
ATOM     45  C5  A00 X   3      22.889  18.647  20.4100  0.00  0.00     0.000 C
ATOM     46  O5  A00 X   3      22.061  19.517  21.2490  0.00  0.00     0.000 O
ATOM     47   O  A00 X   3      23.036  15.695  22.8010  0.00  0.00     0.000 O
ATOM     49  HD  A00 X   3      23.735  15.870  22.3200  0.00  0.00     0.000 HD
BRANCH 42 49
ATOM     49   O  A00 X   3      22.395  18.413  24.0160  0.00  0.00     0.000 O
ATOM     50   O  A00 X   3      23.338  17.743  26.1120  0.00  0.00     0.000 OA
ATOM     51   O  A00 X   3      21.174  16.983  25.5390  0.00  0.00     0.000 OA
ATOM     52   O  A00 X   3      21.476  19.283  25.9940  0.00  0.00     0.000 OA
ATOM     53   S  A00 X   3      22.091  18.095  25.5090  0.00  0.00     0.000 S
ENDBRANCH 42 49
BRANCH 45 54
ATOM     54   C  A00 X   3      22.133  18.072  19.2070  0.00  0.00     0.000 C
ATOM     55   O  A00 X   3      21.478  18.795  18.4840  0.00  0.00     0.000 OA
ATOM     56   O  A00 X   3      22.174  16.877  18.9560  0.00  0.00     0.000 OA
ENDBRANCH 45 54
BRANCH 41 57
ATOM     57  O4  A00 X   4      19.866  18.479  21.3750  0.00  0.00     0.000 O
BRANCH 57 61
ATOM     58  C1  A00 X   4      16.041  20.362  20.6940  0.00  0.00     0.000 C
ATOM     59  C2  A00 X   4      17.110  20.428  19.5740  0.00  0.00     0.000 C
ATOM     60  C3  A00 X   4      18.273  19.436  19.7760  0.00  0.00     0.000 C
ATOM     61  C4  A00 X   4      18.830  19.490  21.2140  0.00  0.00     0.000 C
ATOM     62  C5  A00 X   4      17.637  19.189  22.1550  0.00  0.00     0.000 C
ATOM     63  O5  A00 X   4      16.637  20.228  22.0050  0.00  0.00     0.000 O
BRANCH 59 66
ATOM     64   N  A00 X   4      16.885  21.705  20.2760  0.00  0.00     0.000 N
ATOM     66  HD  A00 X   4      16.300  21.713  20.9140  0.00  0.00     0.000 HD
ATOM     66   O  A00 X   4      15.835  22.510  18.2630  0.00  0.00     0.000 OA
ATOM     67   S  A00 X   4      16.550  23.001  19.4000  0.00  0.00     0.000 S
ATOM     68   O  A00 X   4      15.771  23.753  20.3400  0.00  0.00     0.000 OA
ATOM     69   O  A00 X   4      17.874  23.513  19.1890  0.00  0.00     0.000 OA
ENDBRANCH 59 66
BRANCH 62 70
ATOM     70   C  A00 X   4      18.021  19.090  23.6510  0.00  0.00     0.000 C
ATOM     71   O  A00 X   4      15.908  19.505  26.5610  0.00  0.00     0.000 OA
ATOM     72   O  A00 X   4      18.004  20.443  26.0400  0.00  0.00     0.000 OA
ATOM     73   O  A00 X   4      16.826  19.078  24.4480  0.00  0.00     0.000 O
ATOM     74   O  A00 X   4      16.000  21.288  24.9400  0.00  0.00     0.000 OA
ATOM     75   S  A00 X   4      16.669  20.184  25.5500  0.00  0.00     0.000 S
ENDBRANCH 62 70
ENDBRANCH 57 61
ENDBRANCH 41 57
ENDBRANCH 40 44
ENDBRANCH 20 40
ENDBRANCH 19 23
ENDBRANCH 1 19
TORSDOF 14
ENDMDL
MODEL 23
REMARK VINA RESULT:      -3.9     16.267     20.113
ROOT
ATOM      1  C1  A00 X   1      43.305  10.134  23.5040  0.00  0.00     0.000 C
ATOM      2  C2  A00 X   1      43.133   9.034  22.4220  0.00  0.00     0.000 C
ATOM      3  C3  A00 X   1      42.589   9.512  21.0360  0.00  0.00     0.000 C
ATOM      4  C4  A00 X   1      41.949  10.925  21.0200  0.00  0.00     0.000 C
ATOM      5  C5  A00 X   1      41.477  11.360  22.4080  0.00  0.00     0.000 C
ATOM      6  O5  A00 X   1      42.680  11.407  23.2070  0.00  0.00     0.000 O
ATOM      7   O  A00 X   1      41.578   8.605  20.6040  0.00  0.00     0.000 O
ATOM      9  HD  A00 X   1      41.300   9.404  20.4170  0.00  0.00     0.000 HD
ATOM      9   O  A00 X   1      42.846  11.899  20.4890  0.00  0.00     0.000 O
ATOM     11  HD  A00 X   1      42.569  12.698  20.3020  0.00  0.00     0.000 HD
ENDROOT
BRANCH 2 11
ATOM     11   O  A00 X   1      44.414   8.403  22.2310  0.00  0.00     0.000 O
ATOM     12   O  A00 X   1      44.633   6.278  21.1330  0.00  0.00     0.000 OA
ATOM     13   O  A00 X   1      43.422   6.412  23.2390  0.00  0.00     0.000 OA
ATOM     14   O  A00 X   1      45.775   6.759  23.1770  0.00  0.00     0.000 OA
ATOM     15   S  A00 X   1      44.538   6.856  22.4500  0.00  0.00     0.000 S
ENDBRANCH 2 11
BRANCH 5 16
ATOM     16   C  A00 X   1      40.370  10.493  23.0170  0.00  0.00     0.000 C
ATOM     17   O  A00 X   1      40.037  10.698  24.1660  0.00  0.00     0.000 OA
ATOM     18   O  A00 X   1      39.811   9.614  22.3910  0.00  0.00     0.000 OA
ENDBRANCH 5 16
BRANCH 1 19
ATOM     19  O4  A00 X   2      42.959   9.673  24.8330  0.00  0.00     0.000 O
BRANCH 19 23
ATOM     20  C1  A00 X   2      45.614  12.381  26.8300  0.00  0.00     0.000 C
ATOM     21  C2  A00 X   2      46.148  10.964  26.5080  0.00  0.00     0.000 C
ATOM     22  C3  A00 X   2      45.274  10.277  25.4370  0.00  0.00     0.000 C
ATOM     23  C4  A00 X   2      43.789  10.276  25.8670  0.00  0.00     0.000 C
ATOM     24  C5  A00 X   2      43.384  11.743  26.1770  0.00  0.00     0.000 C
ATOM     25  O5  A00 X   2      44.229  12.245  27.2450  0.00  0.00     0.000 O
ATOM     26   O  A00 X   2      45.848   8.997  25.1240  0.00  0.00     0.000 O
ATOM     28  HD  A00 X   2      45.908   8.764  25.9560  0.00  0.00     0.000 HD
BRANCH 21 30
ATOM     28   N  A00 X   2      47.233  10.230  25.8490  0.00  0.00     0.000 N
ATOM     30  HD  A00 X   2      47.548  10.521  26.6010  0.00  0.00     0.000 HD
ATOM     30   O  A00 X   2      48.878   9.777  27.4450  0.00  0.00     0.000 OA
ATOM     31   S  A00 X   2      48.725  10.549  26.2630  0.00  0.00     0.000 S
ATOM     32   O  A00 X   2      49.491  10.097  25.1430  0.00  0.00     0.000 OA
ATOM     33   O  A00 X   2      48.832  11.971  26.3970  0.00  0.00     0.000 OA
ENDBRANCH 21 30
BRANCH 24 34
ATOM     34   C  A00 X   2      41.885  12.048  26.4080  0.00  0.00     0.000 C
ATOM     35   O  A00 X   2      39.918  10.663  29.1420  0.00  0.00     0.000 OA
ATOM     36   O  A00 X   2      41.295  11.106  27.3260  0.00  0.00     0.000 O
ATOM     37   O  A00 X   2      41.922  11.884  29.4410  0.00  0.00     0.000 OA
ATOM     38   S  A00 X   2      40.735  11.727  28.6570  0.00  0.00     0.000 S
ATOM     39   O  A00 X   2      40.025  12.914  28.2830  0.00  0.00     0.000 OA
ENDBRANCH 24 34
BRANCH 20 40
ATOM     40  O4  A00 X   3      45.676  13.108  25.5940  0.00  0.00     0.000 O
BRANCH 40 44
ATOM     41  C1  A00 X   3      44.719  15.322  22.8910  0.00  0.00     0.000 C
ATOM     42  C2  A00 X   3      46.133  14.732  23.0870  0.00  0.00     0.000 C
ATOM     43  C3  A00 X   3      46.638  14.970  24.5330  0.00  0.00     0.000 C
ATOM     44  C4  A00 X   3      45.659  14.552  25.6230  0.00  0.00     0.000 C
ATOM     45  C5  A00 X   3      44.265  15.188  25.3600  0.00  0.00     0.000 C
ATOM     46  O5  A00 X   3      43.833  14.947  23.9820  0.00  0.00     0.000 O
ATOM     47   O  A00 X   3      47.971  14.543  24.8060  0.00  0.00     0.000 O
ATOM     49  HD  A00 X   3      47.620  14.302  25.5600  0.00  0.00     0.000 HD
BRANCH 42 49
ATOM     49   O  A00 X   3      46.048  13.322  22.7830  0.00  0.00     0.000 O
ATOM     50   O  A00 X   3      47.519  11.436  22.8890  0.00  0.00     0.000 OA
ATOM     51   O  A00 X   3      48.363  13.498  22.0990  0.00  0.00     0.000 OA
ATOM     52   O  A00 X   3      46.779  12.348  20.7750  0.00  0.00     0.000 OA
ATOM     53   S  A00 X   3      47.241  12.594  22.0980  0.00  0.00     0.000 S
ENDBRANCH 42 49
BRANCH 45 54
ATOM     54   C  A00 X   3      44.235  16.670  25.7520  0.00  0.00     0.000 C
ATOM     55   O  A00 X   3      43.192  17.291  25.7390  0.00  0.00     0.000 OA
ATOM     56   O  A00 X   3      45.257  17.251  26.0820  0.00  0.00     0.000 OA
ENDBRANCH 45 54
BRANCH 41 57
ATOM     57  O4  A00 X   4      44.765  16.744  22.6340  0.00  0.00     0.000 O
BRANCH 57 61
ATOM     58  C1  A00 X   4      42.270  19.347  20.2610  0.00  0.00     0.000 C
ATOM     59  C2  A00 X   4      41.983  19.226  21.7780  0.00  0.00     0.000 C
ATOM     60  C3  A00 X   4      43.132  18.571  22.5710  0.00  0.00     0.000 C
ATOM     61  C4  A00 X   4      43.629  17.275  21.8950  0.00  0.00     0.000 C
ATOM     62  C5  A00 X   4      44.061  17.670  20.4610  0.00  0.00     0.000 C
ATOM     63  O5  A00 X   4      42.906  18.161  19.7330  0.00  0.00     0.000 O
BRANCH 59 66
ATOM     64   N  A00 X   4      41.423  20.035  22.8750  0.00  0.00     0.000 N
ATOM     66  HD  A00 X   4      41.213  19.625  23.6080  0.00  0.00     0.000 HD
ATOM     66   O  A00 X   4      39.434  20.288  21.5410  0.00  0.00     0.000 OA
ATOM     67   S  A00 X   4      40.166  20.973  22.5600  0.00  0.00     0.000 S
ATOM     68   O  A00 X   4      39.541  21.010  23.8490  0.00  0.00     0.000 OA
ATOM     69   O  A00 X   4      40.841  22.187  22.1980  0.00  0.00     0.000 OA
ENDBRANCH 59 66
BRANCH 62 70
ATOM     70   C  A00 X   4      44.698  16.515  19.6510  0.00  0.00     0.000 C
ATOM     71   O  A00 X   4      43.191  14.453  17.0850  0.00  0.00     0.000 OA
ATOM     72   O  A00 X   4      44.438  13.861  18.9930  0.00  0.00     0.000 OA
ATOM     73   O  A00 X   4      43.819  16.148  18.5760  0.00  0.00     0.000 O
ATOM     74   O  A00 X   4      42.121  14.574  19.2420  0.00  0.00     0.000 OA
ATOM     75   S  A00 X   4      43.336  14.658  18.4990  0.00  0.00     0.000 S
ENDBRANCH 62 70
ENDBRANCH 57 61
ENDBRANCH 41 57
ENDBRANCH 40 44
ENDBRANCH 20 40
ENDBRANCH 19 23
ENDBRANCH 1 19
TORSDOF 14
ENDMDL
MODEL 24
REMARK VINA RESULT:      -3.9      7.327     11.855
ROOT
ATOM      1  C1  A00 X   1      26.037  22.223  23.5170  0.00  0.00     0.000 C
ATOM      2  C2  A00 X   1      25.574  23.302  24.5320  0.00  0.00     0.000 C
ATOM      3  C3  A00 X   1      25.117  24.668  23.9220  0.00  0.00     0.000 C
ATOM      4  C4  A00 X   1      25.522  24.910  22.4450  0.00  0.00     0.000 C
ATOM      5  C5  A00 X   1      26.721  24.058  22.0290  0.00  0.00     0.000 C
ATOM      6  O5  A00 X   1      26.266  22.693  22.1650  0.00  0.00     0.000 O
ATOM      7   O  A00 X   1      25.701  25.726  24.6800  0.00  0.00     0.000 O
ATOM      9  HD  A00 X   1      25.754  25.951  23.8460  0.00  0.00     0.000 HD
ATOM      9   O  A00 X   1      24.429  24.672  21.5590  0.00  0.00     0.000 O
ATOM     11  HD  A00 X   1      24.482  24.897  20.7240  0.00  0.00     0.000 HD
ENDROOT
BRANCH 2 11
ATOM     11   O  A00 X   1      24.489  22.745  25.3000  0.00  0.00     0.000 O
ATOM     12   O  A00 X   1      23.165  24.087  26.7870  0.00  0.00     0.000 OA
ATOM     13   O  A00 X   1      25.532  23.778  27.2520  0.00  0.00     0.000 OA
ATOM     14   O  A00 X   1      24.018  21.954  27.4450  0.00  0.00     0.000 OA
ATOM     15   S  A00 X   1      24.301  23.201  26.7870  0.00  0.00     0.000 S
ENDBRANCH 2 11
BRANCH 5 16
ATOM     16   C  A00 X   1      28.019  24.350  22.7880  0.00  0.00     0.000 C
ATOM     17   O  A00 X   1      28.948  23.579  22.6680  0.00  0.00     0.000 OA
ATOM     18   O  A00 X   1      28.153  25.327  23.4980  0.00  0.00     0.000 OA
ENDBRANCH 5 16
BRANCH 1 19
ATOM     19  O4  A00 X   2      27.156  21.441  24.0010  0.00  0.00     0.000 O
BRANCH 19 23
ATOM     20  C1  A00 X   2      25.253  17.698  23.1460  0.00  0.00     0.000 C
ATOM     21  C2  A00 X   2      25.421  18.091  24.6340  0.00  0.00     0.000 C
ATOM     22  C3  A00 X   2      25.707  19.601  24.7750  0.00  0.00     0.000 C
ATOM     23  C4  A00 X   2      26.919  20.008  23.9060  0.00  0.00     0.000 C
ATOM     24  C5  A00 X   2      26.636  19.545  22.4500  0.00  0.00     0.000 C
ATOM     25  O5  A00 X   2      26.458  18.104  22.4450  0.00  0.00     0.000 O
ATOM     26   O  A00 X   2      25.787  19.927  26.1730  0.00  0.00     0.000 O
ATOM     28  HD  A00 X   2      26.345  19.287  26.3420  0.00  0.00     0.000 HD
BRANCH 21 30
ATOM     28   N  A00 X   2      25.603  16.669  24.9410  0.00  0.00     0.000 N
ATOM     30  HD  A00 X   2      25.450  17.070  25.6930  0.00  0.00     0.000 HD
ATOM     30   O  A00 X   2      24.780  16.278  27.0920  0.00  0.00     0.000 OA
ATOM     31   S  A00 X   2      26.024  16.257  26.4080  0.00  0.00     0.000 S
ATOM     32   O  A00 X   2      26.602  14.959  26.2420  0.00  0.00     0.000 OA
ATOM     33   O  A00 X   2      27.019  17.193  26.8410  0.00  0.00     0.000 OA
ENDBRANCH 21 30
BRANCH 24 34
ATOM     34   C  A00 X   2      27.591  20.033  21.3350  0.00  0.00     0.000 C
ATOM     35   O  A00 X   2      31.214  20.166  21.6650  0.00  0.00     0.000 OA
ATOM     36   O  A00 X   2      28.905  20.310  21.8570  0.00  0.00     0.000 O
ATOM     37   O  A00 X   2      29.928  18.211  22.0040  0.00  0.00     0.000 OA
ATOM     38   S  A00 X   2      30.063  19.427  21.2620  0.00  0.00     0.000 S
ATOM     39   O  A00 X   2      29.843  19.370  19.8480  0.00  0.00     0.000 OA
ENDBRANCH 24 34
BRANCH 20 40
ATOM     40  O4  A00 X   3      24.138  18.464  22.6670  0.00  0.00     0.000 O
BRANCH 40 44
ATOM     41  C1  A00 X   3      20.605  19.102  22.1820  0.00  0.00     0.000 C
ATOM     42  C2  A00 X   3      21.183  18.027  23.1270  0.00  0.00     0.000 C
ATOM     43  C3  A00 X   3      22.218  17.138  22.3900  0.00  0.00     0.000 C
ATOM     44  C4  A00 X   3      23.293  17.911  21.6350  0.00  0.00     0.000 C
ATOM     45  C5  A00 X   3      22.634  18.967  20.7040  0.00  0.00     0.000 C
ATOM     46  O5  A00 X   3      21.658  19.775  21.4390  0.00  0.00     0.000 O
ATOM     47   O  A00 X   3      22.756  16.053  23.1430  0.00  0.00     0.000 O
ATOM     49  HD  A00 X   3      23.486  16.279  22.7340  0.00  0.00     0.000 HD
BRANCH 42 49
ATOM     49   O  A00 X   3      21.784  18.722  24.2420  0.00  0.00     0.000 O
ATOM     50   O  A00 X   3      22.114  18.296  26.5740  0.00  0.00     0.000 OA
ATOM     51   O  A00 X   3      20.041  17.723  25.5930  0.00  0.00     0.000 OA
ATOM     52   O  A00 X   3      20.594  20.011  25.8030  0.00  0.00     0.000 OA
ATOM     53   S  A00 X   3      21.106  18.694  25.6430  0.00  0.00     0.000 S
ENDBRANCH 42 49
BRANCH 45 54
ATOM     54   C  A00 X   3      22.054  18.325  19.4380  0.00  0.00     0.000 C
ATOM     55   O  A00 X   3      21.419  18.987  18.6430  0.00  0.00     0.000 OA
ATOM     56   O  A00 X   3      22.219  17.137  19.2080  0.00  0.00     0.000 OA
ENDBRANCH 45 54
BRANCH 41 57
ATOM     57  O4  A00 X   4      19.548  18.570  21.3520  0.00  0.00     0.000 O
BRANCH 57 61
ATOM     58  C1  A00 X   4      15.599  20.071  20.4610  0.00  0.00     0.000 C
ATOM     59  C2  A00 X   4      16.702  20.198  19.3800  0.00  0.00     0.000 C
ATOM     60  C3  A00 X   4      17.941  19.323  19.6610  0.00  0.00     0.000 C
ATOM     61  C4  A00 X   4      18.432  19.476  21.1160  0.00  0.00     0.000 C
ATOM     62  C5  A00 X   4      17.234  19.098  22.0220  0.00  0.00     0.000 C
ATOM     63  O5  A00 X   4      16.151  20.036  21.7970  0.00  0.00     0.000 O
BRANCH 59 66
ATOM     64   N  A00 X   4      16.382  21.493  20.0070  0.00  0.00     0.000 N
ATOM     66  HD  A00 X   4      15.793  21.495  20.6410  0.00  0.00     0.000 HD
ATOM     66   O  A00 X   4      15.299  22.110  17.9470  0.00  0.00     0.000 OA
ATOM     67   S  A00 X   4      15.967  22.712  19.0590  0.00  0.00     0.000 S
ATOM     68   O  A00 X   4      15.129  23.459  19.9510  0.00  0.00     0.000 OA
ATOM     69   O  A00 X   4      17.254  23.303  18.8270  0.00  0.00     0.000 OA
ENDBRANCH 59 66
BRANCH 62 70
ATOM     70   C  A00 X   4      17.565  19.084  23.5340  0.00  0.00     0.000 C
ATOM     71   O  A00 X   4      15.311  19.434  26.3460  0.00  0.00     0.000 OA
ATOM     72   O  A00 X   4      17.346  20.517  25.8660  0.00  0.00     0.000 OA
ATOM     73   O  A00 X   4      16.344  19.006  24.2870  0.00  0.00     0.000 O
ATOM     74   O  A00 X   4      15.328  21.158  24.6600  0.00  0.00     0.000 OA
ATOM     75   S  A00 X   4      16.056  20.134  25.3370  0.00  0.00     0.000 S
ENDBRANCH 62 70
ENDBRANCH 57 61
ENDBRANCH 41 57
ENDBRANCH 40 44
ENDBRANCH 20 40
ENDBRANCH 19 23
ENDBRANCH 1 19
TORSDOF 14
ENDMDL
MODEL 25
REMARK VINA RESULT:      -3.6     16.851     20.627
ROOT
ATOM      1  C1  A00 X   1      45.782  10.249  21.3360  0.00  0.00     0.000 C
ATOM      2  C2  A00 X   1      46.160   9.038  20.4430  0.00  0.00     0.000 C
ATOM      3  C3  A00 X   1      45.766   7.628  20.9950  0.00  0.00     0.000 C
ATOM      4  C4  A00 X   1      45.390   7.580  22.4990  0.00  0.00     0.000 C
ATOM      5  C5  A00 X   1      45.980   8.754  23.2790  0.00  0.00     0.000 C
ATOM      6  O5  A00 X   1      45.375   9.927  22.6890  0.00  0.00     0.000 O
ATOM      7   O  A00 X   1      46.873   6.745  20.8260  0.00  0.00     0.000 O
ATOM      9  HD  A00 X   1      46.534   6.583  21.6070  0.00  0.00     0.000 HD
ATOM      9   O  A00 X   1      43.975   7.540  22.6810  0.00  0.00     0.000 O
ATOM     11  HD  A00 X   1      43.637   7.378  23.4620  0.00  0.00     0.000 HD
ENDROOT
BRANCH 2 11
ATOM     11   O  A00 X   1      45.538   9.229  19.1580  0.00  0.00     0.000 O
ATOM     12   O  A00 X   1      45.374   7.453  17.5490  0.00  0.00     0.000 OA
ATOM     13   O  A00 X   1      47.570   8.276  18.1940  0.00  0.00     0.000 OA
ATOM     14   O  A00 X   1      46.095   9.646  16.9290  0.00  0.00     0.000 OA
ATOM     15   S  A00 X   1      46.200   8.583  17.8920  0.00  0.00     0.000 S
ENDBRANCH 2 11
BRANCH 5 16
ATOM     16   C  A00 X   1      47.510   8.806  23.3140  0.00  0.00     0.000 C
ATOM     17   O  A00 X   1      48.133   7.822  22.9730  0.00  0.00     0.000 OA
ATOM     18   O  A00 X   1      48.121   9.797  23.6640  0.00  0.00     0.000 OA
ENDBRANCH 5 16
BRANCH 1 19
ATOM     19  O4  A00 X   2      46.787  11.293  21.3220  0.00  0.00     0.000 O
BRANCH 19 23
ATOM     20  C1  A00 X   2      44.197  14.504  22.4810  0.00  0.00     0.000 C
ATOM     21  C2  A00 X   2      44.148  14.044  21.0040  0.00  0.00     0.000 C
ATOM     22  C3  A00 X   2      44.781  12.647  20.8420  0.00  0.00     0.000 C
ATOM     23  C4  A00 X   2      46.210  12.626  21.4300  0.00  0.00     0.000 C
ATOM     24  C5  A00 X   2      46.127  13.122  22.8990  0.00  0.00     0.000 C
ATOM     25  O5  A00 X   2      45.586  14.469  22.9070  0.00  0.00     0.000 O
ATOM     26   O  A00 X   2      44.650  12.236  19.4700  0.00  0.00     0.000 O
ATOM     28  HD  A00 X   2      44.974  12.979  19.1650  0.00  0.00     0.000 HD
BRANCH 21 30
ATOM     28   N  A00 X   2      43.079  13.627  20.0920  0.00  0.00     0.000 N
ATOM     30  HD  A00 X   2      43.110  14.492  20.0620  0.00  0.00     0.000 HD
ATOM     30   O  A00 X   2      42.561  15.434  18.7030  0.00  0.00     0.000 OA
ATOM     31   S  A00 X   2      41.945  14.667  19.7270  0.00  0.00     0.000 S
ATOM     32   O  A00 X   2      40.858  13.844  19.2940  0.00  0.00     0.000 OA
ATOM     33   O  A00 X   2      41.597  15.355  20.9340  0.00  0.00     0.000 OA
ENDBRANCH 21 30
BRANCH 24 34
ATOM     34   C  A00 X   2      47.386  12.979  23.7860  0.00  0.00     0.000 C
ATOM     35   O  A00 X   2      48.759  15.664  25.8270  0.00  0.00     0.000 OA
ATOM     36   O  A00 X   2      47.891  14.269  24.1880  0.00  0.00     0.000 O
ATOM     37   O  A00 X   2      46.528  14.895  25.9830  0.00  0.00     0.000 OA
ATOM     38   S  A00 X   2      47.892  14.536  25.7370  0.00  0.00     0.000 S
ATOM     39   O  A00 X   2      48.385  13.341  26.3540  0.00  0.00     0.000 OA
ENDBRANCH 24 34
BRANCH 20 40
ATOM     40  O4  A00 X   3      43.445  13.528  23.2160  0.00  0.00     0.000 O
BRANCH 40 44
ATOM     41  C1  A00 X   3      41.890  11.303  25.6150  0.00  0.00     0.000 C
ATOM     42  C2  A00 X   3      41.166  11.944  24.4110  0.00  0.00     0.000 C
ATOM     43  C3  A00 X   3      41.401  13.476  24.3730  0.00  0.00     0.000 C
ATOM     44  C4  A00 X   3      42.861  13.896  24.4840  0.00  0.00     0.000 C
ATOM     45  C5  A00 X   3      43.518  13.216  25.7190  0.00  0.00     0.000 C
ATOM     46  O5  A00 X   3      43.262  11.774  25.7190  0.00  0.00     0.000 O
ATOM     47   O  A00 X   3      40.707  14.188  23.3510  0.00  0.00     0.000 O
ATOM     49  HD  A00 X   3      41.450  14.631  23.3120  0.00  0.00     0.000 HD
BRANCH 42 49
ATOM     49   O  A00 X   3      41.674  11.303  23.2210  0.00  0.00     0.000 O
ATOM     50   O  A00 X   3      40.757  10.492  21.1630  0.00  0.00     0.000 OA
ATOM     51   O  A00 X   3      39.577  10.095  23.1730  0.00  0.00     0.000 OA
ATOM     52   O  A00 X   3      41.638   8.986  22.8380  0.00  0.00     0.000 OA
ATOM     53   S  A00 X   3      40.874  10.150  22.5460  0.00  0.00     0.000 S
ENDBRANCH 42 49
BRANCH 45 54
ATOM     54   C  A00 X   3      43.110  13.901  27.0280  0.00  0.00     0.000 C
ATOM     55   O  A00 X   3      43.722  13.689  28.0550  0.00  0.00     0.000 OA
ATOM     56   O  A00 X   3      42.162  14.670  27.0620  0.00  0.00     0.000 OA
ENDBRANCH 45 54
BRANCH 41 57
ATOM     57  O4  A00 X   4      41.127  11.444  26.8340  0.00  0.00     0.000 O
BRANCH 57 61
ATOM     58  C1  A00 X   4      41.530   9.275  30.5450  0.00  0.00     0.000 C
ATOM     59  C2  A00 X   4      41.726  10.812  30.5590  0.00  0.00     0.000 C
ATOM     60  C3  A00 X   4      41.212  11.509  29.2830  0.00  0.00     0.000 C
ATOM     61  C4  A00 X   4      41.706  10.800  28.0040  0.00  0.00     0.000 C
ATOM     62  C5  A00 X   4      41.219   9.332  28.1030  0.00  0.00     0.000 C
ATOM     63  O5  A00 X   4      41.838   8.702  29.2540  0.00  0.00     0.000 O
BRANCH 59 66
ATOM     64   N  A00 X   4      43.199  10.763  30.6110  0.00  0.00     0.000 N
ATOM     66  HD  A00 X   4      43.583  10.026  30.3700  0.00  0.00     0.000 HD
ATOM     66   O  A00 X   4      43.014  10.783  33.0120  0.00  0.00     0.000 OA
ATOM     67   S  A00 X   4      43.922  11.172  31.9790  0.00  0.00     0.000 S
ATOM     68   O  A00 X   4      45.118  10.388  31.8820  0.00  0.00     0.000 OA
ATOM     69   O  A00 X   4      44.118  12.575  31.7520  0.00  0.00     0.000 OA
ENDBRANCH 59 66
BRANCH 62 70
ATOM     70   C  A00 X   4      41.525   8.478  26.8500  0.00  0.00     0.000 C
ATOM     71   O  A00 X   4      42.901   5.134  26.6730  0.00  0.00     0.000 OA
ATOM     72   O  A00 X   4      43.503   7.103  25.5310  0.00  0.00     0.000 OA
ATOM     73   O  A00 X   4      41.825   7.133  27.2540  0.00  0.00     0.000 O
ATOM     74   O  A00 X   4      44.135   6.826  27.8690  0.00  0.00     0.000 OA
ATOM     75   S  A00 X   4      43.207   6.529  26.8250  0.00  0.00     0.000 S
ENDBRANCH 62 70
ENDBRANCH 57 61
ENDBRANCH 41 57
ENDBRANCH 40 44
ENDBRANCH 20 40
ENDBRANCH 19 23
ENDBRANCH 1 19
TORSDOF 14
ENDMDL
MODEL 26
REMARK VINA RESULT:      -3.5     16.664     20.223
ROOT
ATOM      1  C1  A00 X   1      42.884   9.585  23.8250  0.00  0.00     0.000 C
ATOM      2  C2  A00 X   1      42.044   9.305  22.5500  0.00  0.00     0.000 C
ATOM      3  C3  A00 X   1      41.478  10.561  21.8100  0.00  0.00     0.000 C
ATOM      4  C4  A00 X   1      41.505  11.883  22.6200  0.00  0.00     0.000 C
ATOM      5  C5  A00 X   1      41.560  11.635  24.1270  0.00  0.00     0.000 C
ATOM      6  O5  A00 X   1      42.808  10.937  24.3400  0.00  0.00     0.000 O
ATOM      7   O  A00 X   1      40.113  10.319  21.4760  0.00  0.00     0.000 O
ATOM      9  HD  A00 X   1      40.167  11.137  21.7540  0.00  0.00     0.000 HD
ATOM      9   O  A00 X   1      42.599  12.713  22.2280  0.00  0.00     0.000 O
ATOM     11  HD  A00 X   1      42.652  13.531  22.5060  0.00  0.00     0.000 HD
ENDROOT
BRANCH 2 11
ATOM     11   O  A00 X   1      42.869   8.555  21.6370  0.00  0.00     0.000 O
ATOM     12   O  A00 X   1      45.223   8.253  22.0080  0.00  0.00     0.000 OA
ATOM     13   O  A00 X   1      44.356  10.492  21.6170  0.00  0.00     0.000 OA
ATOM     14   O  A00 X   1      44.359   8.879  19.8690  0.00  0.00     0.000 OA
ATOM     15   S  A00 X   1      44.299   9.094  21.2890  0.00  0.00     0.000 S
ENDBRANCH 2 11
BRANCH 5 16
ATOM     16   C  A00 X   1      40.343  10.907  24.7080  0.00  0.00     0.000 C
ATOM     17   O  A00 X   1      40.329  10.655  25.8950  0.00  0.00     0.000 OA
ATOM     18   O  A00 X   1      39.393  10.579  24.0260  0.00  0.00     0.000 OA
ENDBRANCH 5 16
BRANCH 1 19
ATOM     19  O4  A00 X   2      42.659   8.608  24.8700  0.00  0.00     0.000 O
BRANCH 19 23
ATOM     20  C1  A00 X   2      45.007  10.097  28.1320  0.00  0.00     0.000 C
ATOM     21  C2  A00 X   2      45.715   9.910  26.7680  0.00  0.00     0.000 C
ATOM     22  C3  A00 X   2      44.686   9.796  25.6250  0.00  0.00     0.000 C
ATOM     23  C4  A00 X   2      43.660   8.680  25.9260  0.00  0.00     0.000 C
ATOM     24  C5  A00 X   2      43.037   8.972  27.3190  0.00  0.00     0.000 C
ATOM     25  O5  A00 X   2      44.096   8.980  28.3120  0.00  0.00     0.000 O
ATOM     26   O  A00 X   2      45.392   9.693  24.3770  0.00  0.00     0.000 O
ATOM     28  HD  A00 X   2      45.906   9.057  24.6620  0.00  0.00     0.000 HD
BRANCH 21 30
ATOM     28   N  A00 X   2      46.932   9.527  27.4910  0.00  0.00     0.000 N
ATOM     30  HD  A00 X   2      47.170   9.710  26.6790  0.00  0.00     0.000 HD
ATOM     30   O  A00 X   2      48.774  10.224  26.2340  0.00  0.00     0.000 OA
ATOM     31   S  A00 X   2      48.175   9.010  26.6630  0.00  0.00     0.000 S
ATOM     32   O  A00 X   2      48.935   8.267  27.6200  0.00  0.00     0.000 OA
ATOM     33   O  A00 X   2      47.672   8.139  25.6430  0.00  0.00     0.000 OA
ENDBRANCH 21 30
BRANCH 24 34
ATOM     34   C  A00 X   2      41.815   8.131  27.7580  0.00  0.00     0.000 C
ATOM     35   O  A00 X   2      41.794   4.494  27.9300  0.00  0.00     0.000 OA
ATOM     36   O  A00 X   2      41.976   6.745  27.3940  0.00  0.00     0.000 O
ATOM     37   O  A00 X   2      43.355   5.862  29.0640  0.00  0.00     0.000 OA
ATOM     38   S  A00 X   2      42.008   5.735  28.5990  0.00  0.00     0.000 S
ATOM     39   O  A00 X   2      40.959   6.133  29.4890  0.00  0.00     0.000 OA
ENDBRANCH 24 34
BRANCH 20 40
ATOM     40  O4  A00 X   3      44.256  11.314  28.0140  0.00  0.00     0.000 O
BRANCH 40 44
ATOM     41  C1  A00 X   3      41.695  13.856  28.3420  0.00  0.00     0.000 C
ATOM     42  C2  A00 X   3      43.137  14.117  27.8580  0.00  0.00     0.000 C
ATOM     43  C3  A00 X   3      44.172  13.512  28.8410  0.00  0.00     0.000 C
ATOM     44  C4  A00 X   3      43.919  12.055  29.2080  0.00  0.00     0.000 C
ATOM     45  C5  A00 X   3      42.452  11.873  29.6890  0.00  0.00     0.000 C
ATOM     46  O5  A00 X   3      41.512  12.468  28.7360  0.00  0.00     0.000 O
ATOM     47   O  A00 X   3      45.542  13.767  28.5400  0.00  0.00     0.000 O
ATOM     49  HD  A00 X   3      45.636  12.949  28.8060  0.00  0.00     0.000 HD
BRANCH 42 49
ATOM     49   O  A00 X   3      43.255  13.533  26.5420  0.00  0.00     0.000 O
ATOM     50   O  A00 X   3      44.964  13.343  24.8770  0.00  0.00     0.000 OA
ATOM     51   O  A00 X   3      44.709  15.396  26.0220  0.00  0.00     0.000 OA
ATOM     52   O  A00 X   3      43.005  14.718  24.5310  0.00  0.00     0.000 OA
ATOM     53   S  A00 X   3      44.028  14.279  25.4160  0.00  0.00     0.000 S
ENDBRANCH 42 49
BRANCH 45 54
ATOM     54   C  A00 X   3      42.259  12.379  31.1230  0.00  0.00     0.000 C
ATOM     55   O  A00 X   3      41.272  12.071  31.7600  0.00  0.00     0.000 OA
ATOM     56   O  A00 X   3      43.091  13.101  31.6490  0.00  0.00     0.000 OA
ENDBRANCH 45 54
BRANCH 41 57
ATOM     57  O4  A00 X   4      41.288  14.811  29.3480  0.00  0.00     0.000 O
BRANCH 57 61
ATOM     58  C1  A00 X   4      37.361  16.125  30.5680  0.00  0.00     0.000 C
ATOM     59  C2  A00 X   4      38.163  15.203  31.5200  0.00  0.00     0.000 C
ATOM     60  C3  A00 X   4      39.658  15.096  31.1570  0.00  0.00     0.000 C
ATOM     61  C4  A00 X   4      39.864  14.819  29.6520  0.00  0.00     0.000 C
ATOM     62  C5  A00 X   4      39.161  15.974  28.8960  0.00  0.00     0.000 C
ATOM     63  O5  A00 X   4      37.740  15.938  29.1850  0.00  0.00     0.000 O
BRANCH 59 66
ATOM     64   N  A00 X   4      37.109  14.379  30.9010  0.00  0.00     0.000 N
ATOM     66  HD  A00 X   4      36.624  14.746  30.2840  0.00  0.00     0.000 HD
ATOM     66   O  A00 X   4      35.920  14.506  32.9910  0.00  0.00     0.000 OA
ATOM     67   S  A00 X   4      36.061  13.644  31.8590  0.00  0.00     0.000 S
ATOM     68   O  A00 X   4      34.921  13.575  30.9920  0.00  0.00     0.000 OA
ATOM     69   O  A00 X   4      36.730  12.389  32.0530  0.00  0.00     0.000 OA
ENDBRANCH 59 66
BRANCH 62 70
ATOM     70   C  A00 X   4      39.352  15.933  27.3610  0.00  0.00     0.000 C
ATOM     71   O  A00 X   4      37.118  14.607  24.8400  0.00  0.00     0.000 OA
ATOM     72   O  A00 X   4      39.424  14.268  25.1780  0.00  0.00     0.000 OA
ATOM     73   O  A00 X   4      38.116  15.547  26.7390  0.00  0.00     0.000 O
ATOM     74   O  A00 X   4      37.817  13.159  26.6370  0.00  0.00     0.000 OA
ATOM     75   S  A00 X   4      38.124  14.283  25.8120  0.00  0.00     0.000 S
ENDBRANCH 62 70
ENDBRANCH 57 61
ENDBRANCH 41 57
ENDBRANCH 40 44
ENDBRANCH 20 40
ENDBRANCH 19 23
ENDBRANCH 1 19
TORSDOF 14
ENDMDL
MODEL 27
REMARK VINA RESULT:      -3.3     11.089     16.565
ROOT
ATOM      1  C1  A00 X   1      33.176  22.933  23.1500  0.00  0.00     0.000 C
ATOM      2  C2  A00 X   1      32.013  22.285  22.3520  0.00  0.00     0.000 C
ATOM      3  C3  A00 X   1      30.764  23.192  22.0990  0.00  0.00     0.000 C
ATOM      4  C4  A00 X   1      30.679  24.471  22.9710  0.00  0.00     0.000 C
ATOM      5  C5  A00 X   1      31.496  24.348  24.2560  0.00  0.00     0.000 C
ATOM      6  O5  A00 X   1      32.861  24.185  23.8090  0.00  0.00     0.000 O
ATOM      7   O  A00 X   1      29.587  22.436  22.3730  0.00  0.00     0.000 O
ATOM      9  HD  A00 X   1      29.462  23.229  22.6980  0.00  0.00     0.000 HD
ATOM      9   O  A00 X   1      31.094  25.627  22.2440  0.00  0.00     0.000 O
ATOM     11  HD  A00 X   1      30.969  26.420  22.5690  0.00  0.00     0.000 HD
ENDROOT
BRANCH 2 11
ATOM     11   O  A00 X   1      32.541  21.849  21.0840  0.00  0.00     0.000 O
ATOM     12   O  A00 X   1      31.124  20.999  19.3420  0.00  0.00     0.000 OA
ATOM     13   O  A00 X   1      31.295  19.779  21.4400  0.00  0.00     0.000 OA
ATOM     14   O  A00 X   1      33.153  19.897  19.9590  0.00  0.00     0.000 OA
ATOM     15   S  A00 X   1      31.960  20.551  20.4260  0.00  0.00     0.000 S
ENDBRANCH 2 11
BRANCH 5 16
ATOM     16   C  A00 X   1      31.031  23.251  25.2180  0.00  0.00     0.000 C
ATOM     17   O  A00 X   1      31.764  22.927  26.1300  0.00  0.00     0.000 OA
ATOM     18   O  A00 X   1      29.954  22.700  25.1060  0.00  0.00     0.000 OA
ENDBRANCH 5 16
BRANCH 1 19
ATOM     19  O4  A00 X   2      33.819  22.005  24.0570  0.00  0.00     0.000 O
BRANCH 19 23
ATOM     20  C1  A00 X   2      37.868  21.713  25.4300  0.00  0.00     0.000 C
ATOM     21  C2  A00 X   2      37.038  22.929  25.9070  0.00  0.00     0.000 C
ATOM     22  C3  A00 X   2      35.529  22.679  25.7030  0.00  0.00     0.000 C
ATOM     23  C4  A00 X   2      35.236  22.290  24.2360  0.00  0.00     0.000 C
ATOM     24  C5  A00 X   2      36.139  21.078  23.8770  0.00  0.00     0.000 C
ATOM     25  O5  A00 X   2      37.528  21.466  24.0400  0.00  0.00     0.000 O
ATOM     26   O  A00 X   2      34.800  23.804  26.2230  0.00  0.00     0.000 O
ATOM     28  HD  A00 X   2      35.282  24.379  25.7910  0.00  0.00     0.000 HD
BRANCH 21 30
ATOM     28   N  A00 X   2      38.269  23.725  25.8750  0.00  0.00     0.000 N
ATOM     30  HD  A00 X   2      37.689  24.178  26.3320  0.00  0.00     0.000 HD
ATOM     30   O  A00 X   2      38.120  25.363  27.5350  0.00  0.00     0.000 OA
ATOM     31   S  A00 X   2      38.171  25.284  26.1180  0.00  0.00     0.000 S
ATOM     32   O  A00 X   2      39.369  25.795  25.5270  0.00  0.00     0.000 OA
ATOM     33   O  A00 X   2      37.023  25.753  25.4000  0.00  0.00     0.000 OA
ENDBRANCH 21 30
BRANCH 24 34
ATOM     34   C  A00 X   2      35.875  20.349  22.5380  0.00  0.00     0.000 C
ATOM     35   O  A00 X   2      36.253  21.895  19.2640  0.00  0.00     0.000 OA
ATOM     36   O  A00 X   2      35.759  21.285  21.4480  0.00  0.00     0.000 O
ATOM     37   O  A00 X   2      37.969  21.805  20.8880  0.00  0.00     0.000 OA
ATOM     38   S  A00 X   2      36.841  21.135  20.3170  0.00  0.00     0.000 S
ATOM     39   O  A00 X   2      36.964  19.732  20.0570  0.00  0.00     0.000 OA
ENDBRANCH 24 34
BRANCH 20 40
ATOM     40  O4  A00 X   3      37.433  20.607  26.2350  0.00  0.00     0.000 O
BRANCH 40 44
ATOM     41  C1  A00 X   3      37.018  17.947  28.6580  0.00  0.00     0.000 C
ATOM     42  C2  A00 X   3      37.637  19.328  28.9650  0.00  0.00     0.000 C
ATOM     43  C3  A00 X   3      38.750  19.677  27.9440  0.00  0.00     0.000 C
ATOM     44  C4  A00 X   3      38.344  19.515  26.4840  0.00  0.00     0.000 C
ATOM     45  C5  A00 X   3      37.736  18.102  26.2540  0.00  0.00     0.000 C
ATOM     46  O5  A00 X   3      36.698  17.812  27.2460  0.00  0.00     0.000 O
ATOM     47   O  A00 X   3      39.453  20.895  28.1810  0.00  0.00     0.000 O
ATOM     49  HD  A00 X   3      39.411  20.955  27.3180  0.00  0.00     0.000 HD
BRANCH 42 49
ATOM     49   O  A00 X   3      36.561  20.292  28.9230  0.00  0.00     0.000 O
ATOM     50   O  A00 X   3      36.342  22.657  29.2260  0.00  0.00     0.000 OA
ATOM     51   O  A00 X   3      37.744  21.444  30.6930  0.00  0.00     0.000 OA
ATOM     52   O  A00 X   3      35.411  21.085  30.8110  0.00  0.00     0.000 OA
ATOM     53   S  A00 X   3      36.499  21.445  29.9670  0.00  0.00     0.000 S
ENDBRANCH 42 49
BRANCH 45 54
ATOM     54   C  A00 X   3      38.822  17.022  26.1840  0.00  0.00     0.000 C
ATOM     55   O  A00 X   3      39.927  17.225  26.6440  0.00  0.00     0.000 OA
ATOM     56   O  A00 X   3      38.596  15.941  25.6630  0.00  0.00     0.000 OA
ENDBRANCH 45 54
BRANCH 41 57
ATOM     57  O4  A00 X   4      37.827  16.871  29.1830  0.00  0.00     0.000 O
BRANCH 57 61
ATOM     58  C1  A00 X   4      36.881  12.769  30.1400  0.00  0.00     0.000 C
ATOM     59  C2  A00 X   4      37.612  13.070  28.8080  0.00  0.00     0.000 C
ATOM     60  C3  A00 X   4      38.210  14.490  28.7420  0.00  0.00     0.000 C
ATOM     61  C4  A00 X   4      37.190  15.562  29.1830  0.00  0.00     0.000 C
ATOM     62  C5  A00 X   4      36.751  15.180  30.6190  0.00  0.00     0.000 C
ATOM     63  O5  A00 X   4      36.086  13.891  30.5880  0.00  0.00     0.000 O
BRANCH 59 66
ATOM     64   N  A00 X   4      38.345  12.582  27.6260  0.00  0.00     0.000 N
ATOM     66  HD  A00 X   4      38.199  12.982  26.8720  0.00  0.00     0.000 HD
ATOM     66   O  A00 X   4      36.981  10.600  27.7220  0.00  0.00     0.000 OA
ATOM     67   S  A00 X   4      38.273  11.022  27.2800  0.00  0.00     0.000 S
ATOM     68   O  A00 X   4      38.457  11.064  25.8590  0.00  0.00     0.000 OA
ATOM     69   O  A00 X   4      39.417  10.549  28.0070  0.00  0.00     0.000 OA
ENDBRANCH 59 66
BRANCH 62 70
ATOM     70   C  A00 X   4      35.802  16.206  31.2830  0.00  0.00     0.000 C
ATOM     71   O  A00 X   4      32.235  16.618  30.8210  0.00  0.00     0.000 OA
ATOM     72   O  A00 X   4      33.981  18.198  30.7730  0.00  0.00     0.000 OA
ATOM     73   O  A00 X   4      34.441  15.848  30.9990  0.00  0.00     0.000 O
ATOM     74   O  A00 X   4      33.665  16.695  28.8810  0.00  0.00     0.000 OA
ATOM     75   S  A00 X   4      33.535  16.911  30.2860  0.00  0.00     0.000 S
ENDBRANCH 62 70
ENDBRANCH 57 61
ENDBRANCH 41 57
ENDBRANCH 40 44
ENDBRANCH 20 40
ENDBRANCH 19 23
ENDBRANCH 1 19
TORSDOF 14
ENDMDL
MODEL 28
REMARK VINA RESULT:      -3.2      5.889     10.905
ROOT
ATOM      1  C1  A00 X   1      34.355  23.959  13.3450  0.00  0.00     0.000 C
ATOM      2  C2  A00 X   1      35.466  23.338  12.4570  0.00  0.00     0.000 C
ATOM      3  C3  A00 X   1      36.401  24.350  11.7180  0.00  0.00     0.000 C
ATOM      4  C4  A00 X   1      35.891  25.813  11.6620  0.00  0.00     0.000 C
ATOM      5  C5  A00 X   1      34.376  25.903  11.8400  0.00  0.00     0.000 C
ATOM      6  O5  A00 X   1      34.130  25.379  13.1640  0.00  0.00     0.000 O
ATOM      7   O  A00 X   1      36.559  23.924  10.3670  0.00  0.00     0.000 O
ATOM      9  HD  A00 X   1      36.464  24.785  10.3540  0.00  0.00     0.000 HD
ATOM      9   O  A00 X   1      36.541  26.630  12.6360  0.00  0.00     0.000 O
ATOM     11  HD  A00 X   1      36.445  27.490  12.6240  0.00  0.00     0.000 HD
ENDROOT
BRANCH 2 11
ATOM     11   O  A00 X   1      36.268  22.482  13.2940  0.00  0.00     0.000 O
ATOM     12   O  A00 X   1      38.409  21.656  12.5840  0.00  0.00     0.000 OA
ATOM     13   O  A00 X   1      36.410  20.980  11.3730  0.00  0.00     0.000 OA
ATOM     14   O  A00 X   1      36.785  20.225  13.5980  0.00  0.00     0.000 OA
ATOM     15   S  A00 X   1      37.021  21.272  12.6410  0.00  0.00     0.000 S
ENDBRANCH 2 11
BRANCH 5 16
ATOM     16   C  A00 X   1      33.553  25.216  10.7450  0.00  0.00     0.000 C
ATOM     17   O  A00 X   1      32.362  25.066  10.9210  0.00  0.00     0.000 OA
ATOM     18   O  A00 X   1      34.049  24.822   9.7080  0.00  0.00     0.000 OA
ENDBRANCH 5 16
BRANCH 1 19
ATOM     19  O4  A00 X   2      33.112  23.216  13.2910  0.00  0.00     0.000 O
BRANCH 19 23
ATOM     20  C1  A00 X   2      31.630  20.014  15.7240  0.00  0.00     0.000 C
ATOM     21  C2  A00 X   2      32.055  21.319  16.4410  0.00  0.00     0.000 C
ATOM     22  C3  A00 X   2      32.144  22.491  15.4410  0.00  0.00     0.000 C
ATOM     23  C4  A00 X   2      33.069  22.128  14.2580  0.00  0.00     0.000 C
ATOM     24  C5  A00 X   2      32.551  20.800  13.6410  0.00  0.00     0.000 C
ATOM     25  O5  A00 X   2      32.586  19.766  14.6590  0.00  0.00     0.000 O
ATOM     26   O  A00 X   2      32.473  23.690  16.1640  0.00  0.00     0.000 O
ATOM     28  HD  A00 X   2      33.141  23.320  16.5730  0.00  0.00     0.000 HD
BRANCH 21 30
ATOM     28   N  A00 X   2      32.494  20.495  17.5710  0.00  0.00     0.000 N
ATOM     30  HD  A00 X   2      32.456  21.312  17.8570  0.00  0.00     0.000 HD
ATOM     30   O  A00 X   2      32.224  21.742  19.5280  0.00  0.00     0.000 OA
ATOM     31   S  A00 X   2      33.279  21.189  18.7560  0.00  0.00     0.000 S
ATOM     32   O  A00 X   2      33.979  20.107  19.3770  0.00  0.00     0.000 OA
ATOM     33   O  A00 X   2      34.206  22.109  18.1680  0.00  0.00     0.000 OA
ENDBRANCH 21 30
BRANCH 24 34
ATOM     34   C  A00 X   2      33.164  20.337  12.2980  0.00  0.00     0.000 C
ATOM     35   O  A00 X   2      31.440  18.218   9.8910  0.00  0.00     0.000 OA
ATOM     36   O  A00 X   2      32.414  19.244  11.7310  0.00  0.00     0.000 O
ATOM     37   O  A00 X   2      30.582  20.268  10.6990  0.00  0.00     0.000 OA
ATOM     38   S  A00 X   2      31.756  19.536  10.3330  0.00  0.00     0.000 S
ATOM     39   O  A00 X   2      32.746  20.216   9.5540  0.00  0.00     0.000 OA
ENDBRANCH 24 34
BRANCH 20 40
ATOM     40  O4  A00 X   3      30.340  20.285  15.1580  0.00  0.00     0.000 O
BRANCH 40 44
ATOM     41  C1  A00 X   3      26.737  20.480  14.8370  0.00  0.00     0.000 C
ATOM     42  C2  A00 X   3      27.495  20.344  16.1750  0.00  0.00     0.000 C
ATOM     43  C3  A00 X   3      28.509  19.172  16.1210  0.00  0.00     0.000 C
ATOM     44  C4  A00 X   3      29.433  19.189  14.9100  0.00  0.00     0.000 C
ATOM     45  C5  A00 X   3      28.598  19.324  13.6060  0.00  0.00     0.000 C
ATOM     46  O5  A00 X   3      27.648  20.434  13.7050  0.00  0.00     0.000 O
ATOM     47   O  A00 X   3      29.207  18.896  17.3340  0.00  0.00     0.000 O
ATOM     49  HD  A00 X   3      29.869  18.764  16.7910  0.00  0.00     0.000 HD
BRANCH 42 49
ATOM     49   O  A00 X   3      28.157  21.604  16.4170  0.00  0.00     0.000 O
ATOM     50   O  A00 X   3      29.289  22.643  18.2540  0.00  0.00     0.000 OA
ATOM     51   O  A00 X   3      27.300  21.436  18.6740  0.00  0.00     0.000 OA
ATOM     52   O  A00 X   3      27.156  23.457  17.4560  0.00  0.00     0.000 OA
ATOM     53   S  A00 X   3      27.976  22.340  17.7770  0.00  0.00     0.000 S
ENDBRANCH 42 49
BRANCH 45 54
ATOM     54   C  A00 X   3      27.936  17.997  13.2170  0.00  0.00     0.000 C
ATOM     55   O  A00 X   3      27.135  17.949  12.3060  0.00  0.00     0.000 OA
ATOM     56   O  A00 X   3      28.201  16.966  13.8160  0.00  0.00     0.000 OA
ENDBRANCH 45 54
BRANCH 41 57
ATOM     57  O4  A00 X   4      25.640  19.543  14.7470  0.00  0.00     0.000 O
BRANCH 57 61
ATOM     58  C1  A00 X   4      21.550  20.015  13.4490  0.00  0.00     0.000 C
ATOM     59  C2  A00 X   4      22.575  19.403  12.4620  0.00  0.00     0.000 C
ATOM     60  C3  A00 X   4      23.887  18.955  13.1370  0.00  0.00     0.000 C
ATOM     61  C4  A00 X   4      24.452  20.046  14.0730  0.00  0.00     0.000 C
ATOM     62  C5  A00 X   4      23.339  20.353  15.1060  0.00  0.00     0.000 C
ATOM     63  O5  A00 X   4      22.181  20.887  14.4140  0.00  0.00     0.000 O
BRANCH 59 66
ATOM     64   N  A00 X   4      22.550  18.423  11.3610  0.00  0.00     0.000 N
ATOM     66  HD  A00 X   4      23.257  18.361  10.8640  0.00  0.00     0.000 HD
ATOM     66   O  A00 X   4      20.959  19.854  10.2570  0.00  0.00     0.000 OA
ATOM     67   S  A00 X   4      21.330  18.476  10.3280  0.00  0.00     0.000 S
ATOM     68   O  A00 X   4      21.961  17.945   9.1550  0.00  0.00     0.000 OA
ATOM     69   O  A00 X   4      20.419  17.569  10.9660  0.00  0.00     0.000 OA
ENDBRANCH 59 66
BRANCH 62 70
ATOM     70   C  A00 X   4      23.758  21.354  16.2080  0.00  0.00     0.000 C
ATOM     71   O  A00 X   4      21.670  23.584  18.1510  0.00  0.00     0.000 OA
ATOM     72   O  A00 X   4      23.661  23.994  16.9610  0.00  0.00     0.000 OA
ATOM     73   O  A00 X   4      22.584  21.844  16.8760  0.00  0.00     0.000 O
ATOM     74   O  A00 X   4      21.567  23.713  15.7450  0.00  0.00     0.000 OA
ATOM     75   S  A00 X   4      22.346  23.394  16.8980  0.00  0.00     0.000 S
ENDBRANCH 62 70
ENDBRANCH 57 61
ENDBRANCH 41 57
ENDBRANCH 40 44
ENDBRANCH 20 40
ENDBRANCH 19 23
ENDBRANCH 1 19
TORSDOF 14
ENDMDL
MODEL 29
REMARK VINA RESULT:      -2.9     12.200     17.245
ROOT
ATOM      1  C1  A00 X   1      34.209  22.930  25.2030  0.00  0.00     0.000 C
ATOM      2  C2  A00 X   1      32.964  22.604  24.3350  0.00  0.00     0.000 C
ATOM      3  C3  A00 X   1      31.757  23.591  24.4660  0.00  0.00     0.000 C
ATOM      4  C4  A00 X   1      31.801  24.542  25.6900  0.00  0.00     0.000 C
ATOM      5  C5  A00 X   1      32.686  23.998  26.8110  0.00  0.00     0.000 C
ATOM      6  O5  A00 X   1      34.009  23.929  26.2340  0.00  0.00     0.000 O
ATOM      7   O  A00 X   1      30.556  22.832  24.5850  0.00  0.00     0.000 O
ATOM      9  HD  A00 X   1      30.499  23.490  25.1450  0.00  0.00     0.000 HD
ATOM      9   O  A00 X   1      32.238  25.849  25.3200  0.00  0.00     0.000 O
ATOM     11  HD  A00 X   1      32.181  26.507  25.8800  0.00  0.00     0.000 HD
ENDROOT
BRANCH 2 11
ATOM     11   O  A00 X   1      33.388  22.560  22.9590  0.00  0.00     0.000 O
ATOM     12   O  A00 X   1      31.813  22.504  21.1460  0.00  0.00     0.000 OA
ATOM     13   O  A00 X   1      31.894  20.643  22.7100  0.00  0.00     0.000 OA
ATOM     14   O  A00 X   1      33.701  21.040  21.2150  0.00  0.00     0.000 OA
ATOM     15   S  A00 X   1      32.620  21.629  21.9580  0.00  0.00     0.000 S
ENDBRANCH 2 11
BRANCH 5 16
ATOM     16   C  A00 X   1      32.215  22.676  27.4260  0.00  0.00     0.000 C
ATOM     17   O  A00 X   1      31.083  22.301  27.2000  0.00  0.00     0.000 OA
ATOM     18   O  A00 X   1      32.934  21.988  28.1230  0.00  0.00     0.000 OA
ENDBRANCH 5 16
BRANCH 1 19
ATOM     19  O4  A00 X   2      34.849  21.744  25.7330  0.00  0.00     0.000 O
BRANCH 19 23
ATOM     20  C1  A00 X   2      36.173  18.209  23.7050  0.00  0.00     0.000 C
ATOM     21  C2  A00 X   2      36.404  19.567  22.9980  0.00  0.00     0.000 C
ATOM     22  C3  A00 X   2      36.286  20.734  24.0000  0.00  0.00     0.000 C
ATOM     23  C4  A00 X   2      34.938  20.671  24.7520  0.00  0.00     0.000 C
ATOM     24  C5  A00 X   2      34.819  19.263  25.3960  0.00  0.00     0.000 C
ATOM     25  O5  A00 X   2      34.871  18.262  24.3460  0.00  0.00     0.000 O
ATOM     26   O  A00 X   2      36.576  21.963  23.3130  0.00  0.00     0.000 O
ATOM     28  HD  A00 X   2      36.025  21.791  22.6670  0.00  0.00     0.000 HD
BRANCH 21 30
ATOM     28   N  A00 X   2      37.105  20.646  22.2960  0.00  0.00     0.000 N
ATOM     30  HD  A00 X   2      37.193  19.934  21.8120  0.00  0.00     0.000 HD
ATOM     30   O  A00 X   2      37.472  19.963  20.0920  0.00  0.00     0.000 OA
ATOM     31   S  A00 X   2      38.231  20.268  21.2530  0.00  0.00     0.000 S
ATOM     32   O  A00 X   2      39.022  21.456  21.1620  0.00  0.00     0.000 OA
ATOM     33   O  A00 X   2      38.997  19.202  21.8260  0.00  0.00     0.000 OA
ENDBRANCH 21 30
BRANCH 24 34
ATOM     34   C  A00 X   2      33.666  19.017  26.3980  0.00  0.00     0.000 C
ATOM     35   O  A00 X   2      30.137  19.370  25.5720  0.00  0.00     0.000 OA
ATOM     36   O  A00 X   2      32.425  19.566  25.9100  0.00  0.00     0.000 O
ATOM     37   O  A00 X   2      31.636  17.967  24.3970  0.00  0.00     0.000 OA
ATOM     38   S  A00 X   2      31.277  18.519  25.6680  0.00  0.00     0.000 S
ATOM     39   O  A00 X   2      31.286  17.640  26.7990  0.00  0.00     0.000 OA
ENDBRANCH 24 34
BRANCH 20 40
ATOM     40  O4  A00 X   3      37.197  18.112  24.7050  0.00  0.00     0.000 O
BRANCH 40 44
ATOM     41  C1  A00 X   3      38.887  17.266  27.7950  0.00  0.00     0.000 C
ATOM     42  C2  A00 X   3      39.586  17.812  26.5310  0.00  0.00     0.000 C
ATOM     43  C3  A00 X   3      39.183  16.994  25.2770  0.00  0.00     0.000 C
ATOM     44  C4  A00 X   3      37.681  16.810  25.0970  0.00  0.00     0.000 C
ATOM     45  C5  A00 X   3      37.052  16.255  26.4060  0.00  0.00     0.000 C
ATOM     46  O5  A00 X   3      37.468  17.049  27.5640  0.00  0.00     0.000 O
ATOM     47   O  A00 X   3      39.836  17.355  24.0620  0.00  0.00     0.000 O
ATOM     49  HD  A00 X   3      39.050  17.208  23.7280  0.00  0.00     0.000 HD
BRANCH 42 49
ATOM     49   O  A00 X   3      39.204  19.199  26.4020  0.00  0.00     0.000 O
ATOM     50   O  A00 X   3      39.637  20.979  24.8620  0.00  0.00     0.000 OA
ATOM     51   O  A00 X   3      41.416  19.554  25.4870  0.00  0.00     0.000 OA
ATOM     52   O  A00 X   3      40.515  21.012  27.1140  0.00  0.00     0.000 OA
ATOM     53   S  A00 X   3      40.243  20.260  25.9380  0.00  0.00     0.000 S
ENDBRANCH 42 49
BRANCH 45 54
ATOM     54   C  A00 X   3      37.325  14.755  26.5750  0.00  0.00     0.000 C
ATOM     55   O  A00 X   3      37.989  14.151  25.7580  0.00  0.00     0.000 OA
ATOM     56   O  A00 X   3      36.878  14.142  27.5320  0.00  0.00     0.000 OA
ENDBRANCH 45 54
BRANCH 41 57
ATOM     57  O4  A00 X   4      39.577  16.115  28.3320  0.00  0.00     0.000 O
BRANCH 57 61
ATOM     58  C1  A00 X   4      40.034  14.564  32.3350  0.00  0.00     0.000 C
ATOM     59  C2  A00 X   4      38.609  14.659  31.7350  0.00  0.00     0.000 C
ATOM     60  C3  A00 X   4      38.598  14.878  30.2080  0.00  0.00     0.000 C
ATOM     61  C4  A00 X   4      39.562  16.006  29.7830  0.00  0.00     0.000 C
ATOM     62  C5  A00 X   4      40.963  15.601  30.3050  0.00  0.00     0.000 C
ATOM     63  O5  A00 X   4      40.933  15.536  31.7540  0.00  0.00     0.000 O
BRANCH 59 66
ATOM     64   N  A00 X   4      37.237  14.127  31.8260  0.00  0.00     0.000 N
ATOM     66  HD  A00 X   4      36.595  14.622  31.5210  0.00  0.00     0.000 HD
ATOM     66   O  A00 X   4      37.381  14.439  34.2090  0.00  0.00     0.000 OA
ATOM     67   S  A00 X   4      36.716  13.615  33.2490  0.00  0.00     0.000 S
ATOM     68   O  A00 X   4      35.308  13.846  33.1070  0.00  0.00     0.000 OA
ATOM     69   O  A00 X   4      37.096  12.233  33.1750  0.00  0.00     0.000 OA
ENDBRANCH 59 66
BRANCH 62 70
ATOM     70   C  A00 X   4      42.098  16.563  29.8800  0.00  0.00     0.000 C
ATOM     71   O  A00 X   4      42.687  19.974  30.9400  0.00  0.00     0.000 OA
ATOM     72   O  A00 X   4      42.625  19.026  28.7850  0.00  0.00     0.000 OA
ATOM     73   O  A00 X   4      42.084  17.720  30.7310  0.00  0.00     0.000 O
ATOM     74   O  A00 X   4      40.543  19.417  29.9890  0.00  0.00     0.000 OA
ATOM     75   S  A00 X   4      41.939  19.127  30.0540  0.00  0.00     0.000 S
ENDBRANCH 62 70
ENDBRANCH 57 61
ENDBRANCH 41 57
ENDBRANCH 40 44
ENDBRANCH 20 40
ENDBRANCH 19 23
ENDBRANCH 1 19
TORSDOF 14
ENDMDL
MODEL 30
REMARK VINA RESULT:      -2.7     12.506     17.606
ROOT
ATOM      1  C1  A00 X   1      32.924  22.700  25.8910  0.00  0.00     0.000 C
ATOM      2  C2  A00 X   1      31.848  22.053  24.9780  0.00  0.00     0.000 C
ATOM      3  C3  A00 X   1      30.489  22.819  24.8670  0.00  0.00     0.000 C
ATOM      4  C4  A00 X   1      30.246  23.908  25.9450  0.00  0.00     0.000 C
ATOM      5  C5  A00 X   1      31.085  23.674  27.2010  0.00  0.00     0.000 C
ATOM      6  O5  A00 X   1      32.455  23.768  26.7500  0.00  0.00     0.000 O
ATOM      7   O  A00 X   1      29.423  21.881  24.9930  0.00  0.00     0.000 O
ATOM      9  HD  A00 X   1      29.200  22.583  25.4470  0.00  0.00     0.000 HD
ATOM      9   O  A00 X   1      30.500  25.215  25.4320  0.00  0.00     0.000 O
ATOM     11  HD  A00 X   1      30.276  25.918  25.8870  0.00  0.00     0.000 HD
ENDROOT
BRANCH 2 11
ATOM     11   O  A00 X   1      32.417  21.914  23.6610  0.00  0.00     0.000 O
ATOM     12   O  A00 X   1      31.095  21.242  21.7720  0.00  0.00     0.000 OA
ATOM     13   O  A00 X   1      31.407  19.690  23.6180  0.00  0.00     0.000 OA
ATOM     14   O  A00 X   1      33.236  20.275  22.2140  0.00  0.00     0.000 OA
ATOM     15   S  A00 X   1      31.980  20.699  22.7710  0.00  0.00     0.000 S
ENDBRANCH 2 11
BRANCH 5 16
ATOM     16   C  A00 X   1      30.775  22.376  27.9540  0.00  0.00     0.000 C
ATOM     17   O  A00 X   1      29.764  21.767  27.6720  0.00  0.00     0.000 OA
ATOM     18   O  A00 X   1      31.507  21.933  28.8170  0.00  0.00     0.000 OA
ENDBRANCH 5 16
BRANCH 1 19
ATOM     19  O4  A00 X   2      33.691  21.722  26.6340  0.00  0.00     0.000 O
BRANCH 19 23
ATOM     20  C1  A00 X   2      35.479  18.020  25.4220  0.00  0.00     0.000 C
ATOM     21  C2  A00 X   2      35.877  19.296  24.6400  0.00  0.00     0.000 C
ATOM     22  C3  A00 X   2      35.513  20.565  25.4390  0.00  0.00     0.000 C
ATOM     23  C4  A00 X   2      34.020  20.547  25.8380  0.00  0.00     0.000 C
ATOM     24  C5  A00 X   2      33.747  19.218  26.5930  0.00  0.00     0.000 C
ATOM     25  O5  A00 X   2      34.058  18.107  25.7130  0.00  0.00     0.000 O
ATOM     26   O  A00 X   2      35.964  21.716  24.7050  0.00  0.00     0.000 O
ATOM     28  HD  A00 X   2      35.590  21.456  23.9680  0.00  0.00     0.000 HD
BRANCH 21 30
ATOM     28   N  A00 X   2      37.203  19.830  24.3150  0.00  0.00     0.000 N
ATOM     30  HD  A00 X   2      36.988  19.286  23.6760  0.00  0.00     0.000 HD
ATOM     30   O  A00 X   2      37.630  19.392  22.0600  0.00  0.00     0.000 OA
ATOM     31   S  A00 X   2      38.131  19.009  23.3330  0.00  0.00     0.000 S
ATOM     32   O  A00 X   2      39.446  19.485  23.6330  0.00  0.00     0.000 OA
ATOM     33   O  A00 X   2      38.009  17.627  23.6900  0.00  0.00     0.000 OA
ENDBRANCH 21 30
BRANCH 24 34
ATOM     34   C  A00 X   2      32.381  19.054  27.3020  0.00  0.00     0.000 C
ATOM     35   O  A00 X   2      30.037  16.354  26.6130  0.00  0.00     0.000 OA
ATOM     36   O  A00 X   2      31.533  18.129  26.5920  0.00  0.00     0.000 O
ATOM     37   O  A00 X   2      32.288  16.018  27.2580  0.00  0.00     0.000 OA
ATOM     38   S  A00 X   2      31.125  16.841  27.3970  0.00  0.00     0.000 S
ATOM     39   O  A00 X   2      30.776  17.280  28.7140  0.00  0.00     0.000 OA
ENDBRANCH 24 34
BRANCH 20 40
ATOM     40  O4  A00 X   3      36.223  18.068  26.6480  0.00  0.00     0.000 O
BRANCH 40 44
ATOM     41  C1  A00 X   3      37.568  17.700  29.9910  0.00  0.00     0.000 C
ATOM     42  C2  A00 X   3      38.412  17.979  28.7290  0.00  0.00     0.000 C
ATOM     43  C3  A00 X   3      38.071  16.974  27.5990  0.00  0.00     0.000 C
ATOM     44  C4  A00 X   3      36.583  16.834  27.3040  0.00  0.00     0.000 C
ATOM     45  C5  A00 X   3      35.804  16.550  28.6190  0.00  0.00     0.000 C
ATOM     46  O5  A00 X   3      36.164  17.516  29.6590  0.00  0.00     0.000 O
ATOM     47   O  A00 X   3      38.854  17.082  26.4120  0.00  0.00     0.000 O
ATOM     49  HD  A00 X   3      38.094  16.917  26.0310  0.00  0.00     0.000 HD
BRANCH 42 49
ATOM     49   O  A00 X   3      38.135  19.339  28.3270  0.00  0.00     0.000 O
ATOM     50   O  A00 X   3      38.855  20.810  26.5810  0.00  0.00     0.000 OA
ATOM     51   O  A00 X   3      40.457  19.440  27.6510  0.00  0.00     0.000 OA
ATOM     52   O  A00 X   3      39.464  21.191  28.8900  0.00  0.00     0.000 OA
ATOM     53   S  A00 X   3      39.285  20.261  27.8280  0.00  0.00     0.000 S
ENDBRANCH 42 49
BRANCH 45 54
ATOM     54   C  A00 X   3      35.961  15.092  29.0690  0.00  0.00     0.000 C
ATOM     55   O  A00 X   3      36.771  14.363  28.5330  0.00  0.00     0.000 OA
ATOM     56   O  A00 X   3      35.275  14.638  29.9710  0.00  0.00     0.000 OA
ENDBRANCH 45 54
BRANCH 41 57
ATOM     57  O4  A00 X   4      38.130  16.630  30.7830  0.00  0.00     0.000 O
BRANCH 57 61
ATOM     58  C1  A00 X   4      38.178  15.796  35.0190  0.00  0.00     0.000 C
ATOM     59  C2  A00 X   4      36.880  15.512  34.2220  0.00  0.00     0.000 C
ATOM     60  C3  A00 X   4      37.087  15.502  32.6940  0.00  0.00     0.000 C
ATOM     61  C4  A00 X   4      37.891  16.730  32.2160  0.00  0.00     0.000 C
ATOM     62  C5  A00 X   4      39.234  16.698  32.9870  0.00  0.00     0.000 C
ATOM     63  O5  A00 X   4      38.973  16.838  34.4070  0.00  0.00     0.000 O
BRANCH 59 66
ATOM     64   N  A00 X   4      35.746  14.572  34.2870  0.00  0.00     0.000 N
ATOM     66  HD  A00 X   4      35.058  14.741  33.7900  0.00  0.00     0.000 HD
ATOM     66   O  A00 X   4      35.314  15.404  36.5060  0.00  0.00     0.000 OA
ATOM     67   S  A00 X   4      35.135  14.221  35.7230  0.00  0.00     0.000 S
ATOM     68   O  A00 X   4      33.781  13.920  35.3610  0.00  0.00     0.000 OA
ATOM     69   O  A00 X   4      35.924  13.070  36.0590  0.00  0.00     0.000 OA
ENDBRANCH 59 66
BRANCH 62 70
ATOM     70   C  A00 X   4      40.233  17.800  32.5610  0.00  0.00     0.000 C
ATOM     71   O  A00 X   4      43.332  17.454  30.7200  0.00  0.00     0.000 OA
ATOM     72   O  A00 X   4      42.856  18.599  32.7220  0.00  0.00     0.000 OA
ATOM     73   O  A00 X   4      41.188  17.246  31.6410  0.00  0.00     0.000 O
ATOM     74   O  A00 X   4      43.042  16.170  32.7400  0.00  0.00     0.000 OA
ATOM     75   S  A00 X   4      42.708  17.350  32.0090  0.00  0.00     0.000 S
ENDBRANCH 62 70
ENDBRANCH 57 61
ENDBRANCH 41 57
ENDBRANCH 40 44
ENDBRANCH 20 40
ENDBRANCH 19 23
ENDBRANCH 1 19
TORSDOF 14
ENDMDL
MODEL 31
REMARK VINA RESULT:      -2.5     11.807     16.478
ROOT
ATOM      1  C1  A00 X   1      39.218  24.550  22.5840  0.00  0.00     0.000 C
ATOM      2  C2  A00 X   1      40.713  24.907  22.3700  0.00  0.00     0.000 C
ATOM      3  C3  A00 X   1      41.737  23.750  22.6170  0.00  0.00     0.000 C
ATOM      4  C4  A00 X   1      41.186  22.522  23.3860  0.00  0.00     0.000 C
ATOM      5  C5  A00 X   1      39.953  22.869  24.2210  0.00  0.00     0.000 C
ATOM      6  O5  A00 X   1      38.964  23.292  23.2560  0.00  0.00     0.000 O
ATOM      7   O  A00 X   1      42.823  24.258  23.3890  0.00  0.00     0.000 O
ATOM      9  HD  A00 X   1      42.634  23.472  23.7000  0.00  0.00     0.000 HD
ATOM      9   O  A00 X   1      40.881  21.445  22.5000  0.00  0.00     0.000 O
ATOM     11  HD  A00 X   1      40.692  20.659  22.8110  0.00  0.00     0.000 HD
ENDROOT
BRANCH 2 11
ATOM     11   O  A00 X   1      40.861  25.385  21.0190  0.00  0.00     0.000 O
ATOM     12   O  A00 X   1      39.720  24.354  19.1750  0.00  0.00     0.000 OA
ATOM     13   O  A00 X   1      41.378  23.075  20.4130  0.00  0.00     0.000 OA
ATOM     14   O  A00 X   1      42.040  24.916  19.0590  0.00  0.00     0.000 OA
ATOM     15   S  A00 X   1      40.989  24.342  19.8560  0.00  0.00     0.000 S
ENDBRANCH 2 11
BRANCH 5 16
ATOM     16   C  A00 X   1      40.194  23.889  25.3390  0.00  0.00     0.000 C
ATOM     17   O  A00 X   1      41.338  24.149  25.6510  0.00  0.00     0.000 OA
ATOM     18   O  A00 X   1      39.284  24.449  25.9160  0.00  0.00     0.000 OA
ENDBRANCH 5 16
BRANCH 1 19
ATOM     19  O4  A00 X   2      38.463  25.631  23.1840  0.00  0.00     0.000 O
BRANCH 19 23
ATOM     20  C1  A00 X   2      34.563  24.134  22.2300  0.00  0.00     0.000 C
ATOM     21  C2  A00 X   2      35.362  24.820  21.0960  0.00  0.00     0.000 C
ATOM     22  C3  A00 X   2      36.860  24.907  21.4550  0.00  0.00     0.000 C
ATOM     23  C4  A00 X   2      37.052  25.595  22.8250  0.00  0.00     0.000 C
ATOM     24  C5  A00 X   2      36.191  24.830  23.8660  0.00  0.00     0.000 C
ATOM     25  O5  A00 X   2      34.801  24.884  23.4520  0.00  0.00     0.000 O
ATOM     26   O  A00 X   2      37.567  25.487  20.3450  0.00  0.00     0.000 O
ATOM     28  HD  A00 X   2      37.021  26.156  20.2810  0.00  0.00     0.000 HD
BRANCH 21 30
ATOM     28   N  A00 X   2      35.826  24.556  19.7310  0.00  0.00     0.000 N
ATOM     30  HD  A00 X   2      34.994  24.789  19.6720  0.00  0.00     0.000 HD
ATOM     30   O  A00 X   2      34.286  25.494  18.2450  0.00  0.00     0.000 OA
ATOM     31   S  A00 X   2      34.757  24.208  18.6200  0.00  0.00     0.000 S
ATOM     32   O  A00 X   2      35.518  23.528  17.6180  0.00  0.00     0.000 OA
ATOM     33   O  A00 X   2      33.805  23.316  19.2130  0.00  0.00     0.000 OA
ENDBRANCH 21 30
BRANCH 24 34
ATOM     34   C  A00 X   2      36.382  25.175  25.3610  0.00  0.00     0.000 C
ATOM     35   O  A00 X   2      33.647  25.876  27.6600  0.00  0.00     0.000 OA
ATOM     36   O  A00 X   2      35.183  25.742  25.9240  0.00  0.00     0.000 O
ATOM     37   O  A00 X   2      33.825  23.894  26.3830  0.00  0.00     0.000 OA
ATOM     38   S  A00 X   2      34.534  24.914  27.0930  0.00  0.00     0.000 S
ATOM     39   O  A00 X   2      35.610  24.504  27.9450  0.00  0.00     0.000 OA
ENDBRANCH 24 34
BRANCH 20 40
ATOM     40  O4  A00 X   3      35.122  22.819  22.3580  0.00  0.00     0.000 O
BRANCH 40 44
ATOM     41  C1  A00 X   3      36.195  19.586  23.5920  0.00  0.00     0.000 C
ATOM     42  C2  A00 X   3      36.018  19.945  22.1000  0.00  0.00     0.000 C
ATOM     43  C3  A00 X   3      34.627  20.581  21.8430  0.00  0.00     0.000 C
ATOM     44  C4  A00 X   3      34.274  21.729  22.7800  0.00  0.00     0.000 C
ATOM     45  C5  A00 X   3      34.472  21.291  24.2580  0.00  0.00     0.000 C
ATOM     46  O5  A00 X   3      35.792  20.687  24.4520  0.00  0.00     0.000 O
ATOM     47   O  A00 X   3      34.318  20.874  20.4820  0.00  0.00     0.000 O
ATOM     49  HD  A00 X   3      33.962  21.581  20.8330  0.00  0.00     0.000 HD
BRANCH 42 49
ATOM     49   O  A00 X   3      37.086  20.853  21.7540  0.00  0.00     0.000 O
ATOM     50   O  A00 X   3      37.763  22.069  19.8060  0.00  0.00     0.000 OA
ATOM     51   O  A00 X   3      37.016  19.840  19.5570  0.00  0.00     0.000 OA
ATOM     52   O  A00 X   3      39.068  20.223  20.6640  0.00  0.00     0.000 OA
ATOM     53   S  A00 X   3      37.783  20.754  20.3650  0.00  0.00     0.000 S
ENDBRANCH 42 49
BRANCH 45 54
ATOM     54   C  A00 X   3      33.323  20.399  24.7440  0.00  0.00     0.000 C
ATOM     55   O  A00 X   3      32.558  19.889  23.9520  0.00  0.00     0.000 OA
ATOM     56   O  A00 X   3      33.158  20.186  25.9360  0.00  0.00     0.000 OA
ENDBRANCH 45 54
BRANCH 41 57
ATOM     57  O4  A00 X   4      35.565  18.326  23.9160  0.00  0.00     0.000 O
BRANCH 57 61
ATOM     58  C1  A00 X   4      36.048  15.672  27.2870  0.00  0.00     0.000 C
ATOM     59  C2  A00 X   4      34.801  16.589  27.2380  0.00  0.00     0.000 C
ATOM     60  C3  A00 X   4      34.550  17.212  25.8500  0.00  0.00     0.000 C
ATOM     61  C4  A00 X   4      35.836  17.828  25.2570  0.00  0.00     0.000 C
ATOM     62  C5  A00 X   4      36.881  16.686  25.2040  0.00  0.00     0.000 C
ATOM     63  O5  A00 X   4      37.161  16.232  26.5530  0.00  0.00     0.000 O
BRANCH 59 66
ATOM     64   N  A00 X   4      34.081  17.647  27.9700  0.00  0.00     0.000 N
ATOM     66  HD  A00 X   4      34.500  18.391  28.1130  0.00  0.00     0.000 HD
ATOM     66   O  A00 X   4      34.266  16.271  29.9380  0.00  0.00     0.000 OA
ATOM     67   S  A00 X   4      33.418  17.276  29.3780  0.00  0.00     0.000 S
ATOM     68   O  A00 X   4      33.462  18.553  30.0280  0.00  0.00     0.000 OA
ATOM     69   O  A00 X   4      32.108  16.882  28.9450  0.00  0.00     0.000 OA
ENDBRANCH 59 66
BRANCH 62 70
ATOM     70   C  A00 X   4      38.217  17.082  24.5310  0.00  0.00     0.000 C
ATOM     71   O  A00 X   4      40.954  19.013  25.9030  0.00  0.00     0.000 OA
ATOM     72   O  A00 X   4      39.813  19.212  23.8530  0.00  0.00     0.000 OA
ATOM     73   O  A00 X   4      39.102  17.630  25.5200  0.00  0.00     0.000 O
ATOM     74   O  A00 X   4      38.746  19.982  25.9040  0.00  0.00     0.000 OA
ATOM     75   S  A00 X   4      39.660  19.077  25.2840  0.00  0.00     0.000 S
ENDBRANCH 62 70
ENDBRANCH 57 61
ENDBRANCH 41 57
ENDBRANCH 40 44
ENDBRANCH 20 40
ENDBRANCH 19 23
ENDBRANCH 1 19
TORSDOF 14
ENDMDL
MODEL 32
REMARK VINA RESULT:      -2.4     10.881     15.940
ROOT
ATOM      1  C1  A00 X   1      35.395  27.373  16.4980  0.00  0.00     0.000 C
ATOM      2  C2  A00 X   1      33.930  27.880  16.4260  0.00  0.00     0.000 C
ATOM      3  C3  A00 X   1      33.744  29.428  16.2980  0.00  0.00     0.000 C
ATOM      4  C4  A00 X   1      34.996  30.281  16.6270  0.00  0.00     0.000 C
ATOM      5  C5  A00 X   1      35.988  29.532  17.5160  0.00  0.00     0.000 C
ATOM      6  O5  A00 X   1      36.399  28.392  16.7280  0.00  0.00     0.000 O
ATOM      7   O  A00 X   1      32.723  29.842  17.2030  0.00  0.00     0.000 O
ATOM      9  HD  A00 X   1      33.355  30.433  17.2430  0.00  0.00     0.000 HD
ATOM      9   O  A00 X   1      35.653  30.723  15.4390  0.00  0.00     0.000 O
ATOM     11  HD  A00 X   1      36.284  31.314  15.4790  0.00  0.00     0.000 HD
ENDROOT
BRANCH 2 11
ATOM     11   O  A00 X   1      33.299  27.237  15.3010  0.00  0.00     0.000 O
ATOM     12   O  A00 X   1      31.241  28.048  14.3650  0.00  0.00     0.000 OA
ATOM     13   O  A00 X   1      31.261  27.206  16.6470  0.00  0.00     0.000 OA
ATOM     14   O  A00 X   1      31.587  25.726  14.8140  0.00  0.00     0.000 OA
ATOM     15   S  A00 X   1      31.740  27.071  15.2990  0.00  0.00     0.000 S
ENDBRANCH 2 11
BRANCH 5 16
ATOM     16   C  A00 X   1      35.459  29.158  18.9050  0.00  0.00     0.000 C
ATOM     17   O  A00 X   1      36.104  28.387  19.5850  0.00  0.00     0.000 OA
ATOM     18   O  A00 X   1      34.423  29.610  19.3510  0.00  0.00     0.000 OA
ENDBRANCH 5 16
BRANCH 1 19
ATOM     19  O4  A00 X   2      35.558  26.256  17.4070  0.00  0.00     0.000 O
BRANCH 19 23
ATOM     20  C1  A00 X   2      38.540  23.186  17.6260  0.00  0.00     0.000 C
ATOM     21  C2  A00 X   2      39.006  24.650  17.8140  0.00  0.00     0.000 C
ATOM     22  C3  A00 X   2      37.811  25.570  18.1400  0.00  0.00     0.000 C
ATOM     23  C4  A00 X   2      36.706  25.425  17.0700  0.00  0.00     0.000 C
ATOM     24  C5  A00 X   2      36.341  23.919  16.9650  0.00  0.00     0.000 C
ATOM     25  O5  A00 X   2      37.529  23.177  16.5830  0.00  0.00     0.000 O
ATOM     26   O  A00 X   2      38.304  26.900  18.3720  0.00  0.00     0.000 O
ATOM     28  HD  A00 X   2      38.767  26.911  17.6410  0.00  0.00     0.000 HD
BRANCH 21 30
ATOM     28   N  A00 X   2      40.282  24.203  17.2450  0.00  0.00     0.000 N
ATOM     30  HD  A00 X   2      40.409  25.004  17.5480  0.00  0.00     0.000 HD
ATOM     30   O  A00 X   2      41.966  25.616  18.0360  0.00  0.00     0.000 OA
ATOM     31   S  A00 X   2      41.338  25.293  16.8030  0.00  0.00     0.000 S
ATOM     32   O  A00 X   2      42.168  24.600  15.8670  0.00  0.00     0.000 OA
ATOM     33   O  A00 X   2      40.616  26.342  16.1470  0.00  0.00     0.000 OA
ENDBRANCH 21 30
BRANCH 24 34
ATOM     34   C  A00 X   2      35.099  23.529  16.1290  0.00  0.00     0.000 C
ATOM     35   O  A00 X   2      32.763  20.893  17.0520  0.00  0.00     0.000 OA
ATOM     36   O  A00 X   2      34.575  22.250  16.5370  0.00  0.00     0.000 O
ATOM     37   O  A00 X   2      33.312  22.721  18.4490  0.00  0.00     0.000 OA
ATOM     38   S  A00 X   2      33.108  22.276  17.1040  0.00  0.00     0.000 S
ATOM     39   O  A00 X   2      32.352  23.123  16.2320  0.00  0.00     0.000 OA
ENDBRANCH 24 34
BRANCH 20 40
ATOM     40  O4  A00 X   3      37.944  22.805  18.8750  0.00  0.00     0.000 O
BRANCH 40 44
ATOM     41  C1  A00 X   3      37.442  20.990  21.9690  0.00  0.00     0.000 C
ATOM     42  C2  A00 X   3      38.760  21.011  21.1650  0.00  0.00     0.000 C
ATOM     43  C3  A00 X   3      38.507  20.669  19.6750  0.00  0.00     0.000 C
ATOM     44  C4  A00 X   3      37.395  21.478  19.0190  0.00  0.00     0.000 C
ATOM     45  C5  A00 X   3      36.104  21.404  19.8820  0.00  0.00     0.000 C
ATOM     46  O5  A00 X   3      36.391  21.724  21.2820  0.00  0.00     0.000 O
ATOM     47   O  A00 X   3      39.668  20.574  18.8510  0.00  0.00     0.000 O
ATOM     49  HD  A00 X   3      39.153  20.965  18.2750  0.00  0.00     0.000 HD
BRANCH 42 49
ATOM     49   O  A00 X   3      39.326  22.332  21.3150  0.00  0.00     0.000 O
ATOM     50   O  A00 X   3      41.206  23.522  20.4310  0.00  0.00     0.000 OA
ATOM     51   O  A00 X   3      41.481  21.260  21.0620  0.00  0.00     0.000 OA
ATOM     52   O  A00 X   3      41.103  22.864  22.7560  0.00  0.00     0.000 OA
ATOM     53   S  A00 X   3      40.869  22.522  21.3950  0.00  0.00     0.000 S
ENDBRANCH 42 49
BRANCH 45 54
ATOM     54   C  A00 X   3      35.379  20.064  19.7070  0.00  0.00     0.000 C
ATOM     55   O  A00 X   3      35.972  19.090  19.2900  0.00  0.00     0.000 OA
ATOM     56   O  A00 X   3      34.194  19.953  19.9810  0.00  0.00     0.000 OA
ENDBRANCH 45 54
BRANCH 41 57
ATOM     57  O4  A00 X   4      37.069  19.646  22.3480  0.00  0.00     0.000 O
BRANCH 57 61
ATOM     58  C1  A00 X   4      34.025  18.645  25.2410  0.00  0.00     0.000 C
ATOM     59  C2  A00 X   4      34.109  20.105  24.7280  0.00  0.00     0.000 C
ATOM     60  C3  A00 X   4      34.973  20.262  23.4600  0.00  0.00     0.000 C
ATOM     61  C4  A00 X   4      36.330  19.539  23.5970  0.00  0.00     0.000 C
ATOM     62  C5  A00 X   4      36.004  18.055  23.9010  0.00  0.00     0.000 C
ATOM     63  O5  A00 X   4      35.302  17.971  25.1680  0.00  0.00     0.000 O
BRANCH 59 66
ATOM     64   N  A00 X   4      34.772  20.505  25.9830  0.00  0.00     0.000 N
ATOM     66  HD  A00 X   4      35.100  19.876  26.4800  0.00  0.00     0.000 HD
ATOM     66   O  A00 X   4      32.596  21.096  26.8270  0.00  0.00     0.000 OA
ATOM     67   S  A00 X   4      33.971  21.449  26.9950  0.00  0.00     0.000 S
ATOM     68   O  A00 X   4      34.562  21.054  28.2400  0.00  0.00     0.000 OA
ATOM     69   O  A00 X   4      34.394  22.739  26.5270  0.00  0.00     0.000 OA
ENDBRANCH 59 66
BRANCH 62 70
ATOM     70   C  A00 X   4      37.247  17.135  23.9660  0.00  0.00     0.000 C
ATOM     71   O  A00 X   4      37.518  13.793  25.3300  0.00  0.00     0.000 OA
ATOM     72   O  A00 X   4      38.858  15.700  25.6650  0.00  0.00     0.000 OA
ATOM     73   O  A00 X   4      36.840  15.815  24.3600  0.00  0.00     0.000 O
ATOM     74   O  A00 X   4      36.681  15.553  26.7500  0.00  0.00     0.000 OA
ATOM     75   S  A00 X   4      37.503  15.195  25.6390  0.00  0.00     0.000 S
ENDBRANCH 62 70
ENDBRANCH 57 61
ENDBRANCH 41 57
ENDBRANCH 40 44
ENDBRANCH 20 40
ENDBRANCH 19 23
ENDBRANCH 1 19
TORSDOF 14
ENDMDL
MODEL 33
REMARK VINA RESULT:      -2.1     18.189     22.038
ROOT
ATOM      1  C1  A00 X   1      47.275  11.070  19.0050  0.00  0.00     0.000 C
ATOM      2  C2  A00 X   1      47.358   9.836  18.0670  0.00  0.00     0.000 C
ATOM      3  C3  A00 X   1      47.504   8.447  18.7710  0.00  0.00     0.000 C
ATOM      4  C4  A00 X   1      47.913   8.494  20.2650  0.00  0.00     0.000 C
ATOM      5  C5  A00 X   1      48.615   9.801  20.6310  0.00  0.00     0.000 C
ATOM      6  O5  A00 X   1      47.627  10.828  20.3900  0.00  0.00     0.000 O
ATOM      7   O  A00 X   1      48.514   7.697  18.0980  0.00  0.00     0.000 O
ATOM      9  HD  A00 X   1      48.624   7.569  18.9470  0.00  0.00     0.000 HD
ATOM      9   O  A00 X   1      46.788   8.295  21.1210  0.00  0.00     0.000 O
ATOM     11  HD  A00 X   1      46.898   8.166  21.9700  0.00  0.00     0.000 HD
ENDROOT
BRANCH 2 11
ATOM     11   O  A00 X   1      46.172   9.826  17.2500  0.00  0.00     0.000 O
ATOM     12   O  A00 X   1      45.535   7.904  15.9590  0.00  0.00     0.000 OA
ATOM     13   O  A00 X   1      47.609   9.060  15.4290  0.00  0.00     0.000 OA
ATOM     14   O  A00 X   1      45.510  10.105  15.0280  0.00  0.00     0.000 OA
ATOM     15   S  A00 X   1      46.233   9.158  15.8330  0.00  0.00     0.000 S
ENDBRANCH 2 11
BRANCH 5 16
ATOM     16   C  A00 X   1      49.944  10.048  19.9080  0.00  0.00     0.000 C
ATOM     17   O  A00 X   1      50.489   9.113  19.3590  0.00  0.00     0.000 OA
ATOM     18   O  A00 X   1      50.465  11.144  19.8590  0.00  0.00     0.000 OA
ENDBRANCH 5 16
BRANCH 1 19
ATOM     19  O4  A00 X   2      47.972  12.225  18.4770  0.00  0.00     0.000 O
BRANCH 19 23
ATOM     20  C1  A00 X   2      45.605  15.140  20.5430  0.00  0.00     0.000 C
ATOM     21  C2  A00 X   2      45.057  14.594  19.2020  0.00  0.00     0.000 C
ATOM     22  C3  A00 X   2      45.768  13.281  18.8120  0.00  0.00     0.000 C
ATOM     23  C4  A00 X   2      47.301  13.477  18.7970  0.00  0.00     0.000 C
ATOM     24  C5  A00 X   2      47.720  14.042  20.1810  0.00  0.00     0.000 C
ATOM     25  O5  A00 X   2      47.041  15.307  20.3950  0.00  0.00     0.000 O
ATOM     26   O  A00 X   2      45.177  12.780  17.6000  0.00  0.00     0.000 O
ATOM     28  HD  A00 X   2      45.252  13.539  17.1900  0.00  0.00     0.000 HD
BRANCH 21 30
ATOM     28   N  A00 X   2      43.787  13.992  18.7810  0.00  0.00     0.000 N
ATOM     30  HD  A00 X   2      43.684  14.851  18.7380  0.00  0.00     0.000 HD
ATOM     30   O  A00 X   2      42.528  15.634  17.6970  0.00  0.00     0.000 OA
ATOM     31   S  A00 X   2      42.468  14.856  18.8830  0.00  0.00     0.000 S
ATOM     32   O  A00 X   2      41.424  13.879  18.9110  0.00  0.00     0.000 OA
ATOM     33   O  A00 X   2      42.520  15.564  20.1270  0.00  0.00     0.000 OA
ENDBRANCH 21 30
BRANCH 24 34
ATOM     34   C  A00 X   2      49.230  14.113  20.5090  0.00  0.00     0.000 C
ATOM     35   O  A00 X   2      50.931  17.122  21.6540  0.00  0.00     0.000 OA
ATOM     36   O  A00 X   2      49.684  15.479  20.5890  0.00  0.00     0.000 O
ATOM     37   O  A00 X   2      49.047  16.180  22.7280  0.00  0.00     0.000 OA
ATOM     38   S  A00 X   2      50.245  15.918  21.9910  0.00  0.00     0.000 S
ATOM     39   O  A00 X   2      51.083  14.849  22.4450  0.00  0.00     0.000 OA
ENDBRANCH 24 34
BRANCH 20 40
ATOM     40  O4  A00 X   3      45.339  14.120  21.5160  0.00  0.00     0.000 O
BRANCH 40 44
ATOM     41  C1  A00 X   3      45.503  11.873  24.3530  0.00  0.00     0.000 C
ATOM     42  C2  A00 X   3      44.218  12.201  23.5630  0.00  0.00     0.000 C
ATOM     43  C3  A00 X   3      44.026  13.733  23.4250  0.00  0.00     0.000 C
ATOM     44  C4  A00 X   3      45.249  14.481  22.9110  0.00  0.00     0.000 C
ATOM     45  C5  A00 X   3      46.498  14.104  23.7570  0.00  0.00     0.000 C
ATOM     46  O5  A00 X   3      46.634  12.650  23.8690  0.00  0.00     0.000 O
ATOM     47   O  A00 X   3      42.822  14.155  22.7860  0.00  0.00     0.000 O
ATOM     49  HD  A00 X   3      43.348  14.748  22.4370  0.00  0.00     0.000 HD
BRANCH 42 49
ATOM     49   O  A00 X   3      44.342  11.566  22.2710  0.00  0.00     0.000 O
ATOM     50   O  A00 X   3      42.847  10.826  20.5540  0.00  0.00     0.000 OA
ATOM     51   O  A00 X   3      42.275  10.430  22.8130  0.00  0.00     0.000 OA
ATOM     52   O  A00 X   3      44.111   9.260  21.8940  0.00  0.00     0.000 OA
ATOM     53   S  A00 X   3      43.340  10.454  21.8430  0.00  0.00     0.000 S
ENDBRANCH 42 49
BRANCH 45 54
ATOM     54   C  A00 X   3      46.499  14.817  25.1150  0.00  0.00     0.000 C
ATOM     55   O  A00 X   3      47.441  14.703  25.8720  0.00  0.00     0.000 OA
ATOM     56   O  A00 X   3      45.554  15.510  25.4580  0.00  0.00     0.000 OA
ENDBRANCH 45 54
BRANCH 41 57
ATOM     57  O4  A00 X   4      45.292  11.969  25.7790  0.00  0.00     0.000 O
BRANCH 57 61
ATOM     58  C1  A00 X   4      47.077   9.807  29.0620  0.00  0.00     0.000 C
ATOM     59  C2  A00 X   4      47.507  11.275  28.8210  0.00  0.00     0.000 C
ATOM     60  C3  A00 X   4      46.563  12.045  27.8750  0.00  0.00     0.000 C
ATOM     61  C4  A00 X   4      46.250  11.238  26.5970  0.00  0.00     0.000 C
ATOM     62  C5  A00 X   4      45.637   9.896  27.0680  0.00  0.00     0.000 C
ATOM     63  O5  A00 X   4      46.621   9.169  27.8470  0.00  0.00     0.000 O
BRANCH 59 66
ATOM     64   N  A00 X   4      48.391  12.440  29.0130  0.00  0.00     0.000 N
ATOM     66  HD  A00 X   4      48.847  12.713  28.3300  0.00  0.00     0.000 HD
ATOM     66   O  A00 X   4      49.797  11.024  30.3610  0.00  0.00     0.000 OA
ATOM     67   S  A00 X   4      49.443  12.402  30.2170  0.00  0.00     0.000 S
ATOM     68   O  A00 X   4      50.470  13.251  29.6890  0.00  0.00     0.000 OA
ATOM     69   O  A00 X   4      48.659  13.004  31.2580  0.00  0.00     0.000 OA
ENDBRANCH 59 66
BRANCH 62 70
ATOM     70   C  A00 X   4      45.151   8.983  25.9170  0.00  0.00     0.000 C
ATOM     71   O  A00 X   4      45.956   5.510  25.2900  0.00  0.00     0.000 OA
ATOM     72   O  A00 X   4      45.991   7.376  23.8540  0.00  0.00     0.000 OA
ATOM     73   O  A00 X   4      45.519   7.624  26.2000  0.00  0.00     0.000 O
ATOM     74   O  A00 X   4      47.763   7.091  25.5030  0.00  0.00     0.000 OA
ATOM     75   S  A00 X   4      46.400   6.868  25.1450  0.00  0.00     0.000 S
ENDBRANCH 62 70
ENDBRANCH 57 61
ENDBRANCH 41 57
ENDBRANCH 40 44
ENDBRANCH 20 40
ENDBRANCH 19 23
ENDBRANCH 1 19
TORSDOF 14
ENDMDL
MODEL 34
REMARK VINA RESULT:      -1.5     13.601     21.133
ROOT
ATOM      1  C1  A00 X   1      40.828  33.126  16.1350  0.00  0.00     0.000 C
ATOM      2  C2  A00 X   1      39.717  33.690  15.2090  0.00  0.00     0.000 C
ATOM      3  C3  A00 X   1      39.080  35.049  15.6500  0.00  0.00     0.000 C
ATOM      4  C4  A00 X   1      39.359  35.474  17.1150  0.00  0.00     0.000 C
ATOM      5  C5  A00 X   1      39.723  34.284  18.0020  0.00  0.00     0.000 C
ATOM      6  O5  A00 X   1      40.944  33.761  17.4320  0.00  0.00     0.000 O
ATOM      7   O  A00 X   1      37.663  34.953  15.5200  0.00  0.00     0.000 O
ATOM      9  HD  A00 X   1      37.824  35.370  16.2620  0.00  0.00     0.000 HD
ATOM      9   O  A00 X   1      40.389  36.460  17.1840  0.00  0.00     0.000 O
ATOM     11  HD  A00 X   1      40.549  36.878  17.9260  0.00  0.00     0.000 HD
ENDROOT
BRANCH 2 11
ATOM     11   O  A00 X   1      40.280  33.842  13.8910  0.00  0.00     0.000 O
ATOM     12   O  A00 X   1      39.132  35.031  12.1490  0.00  0.00     0.000 OA
ATOM     13   O  A00 X   1      38.153  32.992  13.0430  0.00  0.00     0.000 OA
ATOM     14   O  A00 X   1      40.152  32.905  11.7560  0.00  0.00     0.000 OA
ATOM     15   S  A00 X   1      39.341  33.694  12.6440  0.00  0.00     0.000 S
ENDBRANCH 2 11
BRANCH 5 16
ATOM     16   C  A00 X   1      38.621  33.232  18.1590  0.00  0.00     0.000 C
ATOM     17   O  A00 X   1      38.906  32.160  18.6530  0.00  0.00     0.000 OA
ATOM     18   O  A00 X   1      37.473  33.434  17.8150  0.00  0.00     0.000 OA
ENDBRANCH 5 16
BRANCH 1 19
ATOM     19  O4  A00 X   2      40.778  31.683  16.2560  0.00  0.00     0.000 O
BRANCH 19 23
ATOM     20  C1  A00 X   2      40.953  28.587  13.2980  0.00  0.00     0.000 C
ATOM     21  C2  A00 X   2      42.139  29.579  13.3650  0.00  0.00     0.000 C
ATOM     22  C3  A00 X   2      42.148  30.334  14.7100  0.00  0.00     0.000 C
ATOM     23  C4  A00 X   2      40.783  31.013  14.9620  0.00  0.00     0.000 C
ATOM     24  C5  A00 X   2      39.683  29.922  14.8500  0.00  0.00     0.000 C
ATOM     25  O5  A00 X   2      39.733  29.343  13.5210  0.00  0.00     0.000 O
ATOM     26   O  A00 X   2      43.303  31.190  14.7510  0.00  0.00     0.000 O
ATOM     28  HD  A00 X   2      43.136  31.537  13.9750  0.00  0.00     0.000 HD
BRANCH 21 30
ATOM     28   N  A00 X   2      42.257  29.520  11.9040  0.00  0.00     0.000 N
ATOM     30  HD  A00 X   2      43.002  29.844  12.2030  0.00  0.00     0.000 HD
ATOM     30   O  A00 X   2      44.516  29.733  11.3480  0.00  0.00     0.000 OA
ATOM     31   S  A00 X   2      43.307  30.461  11.1900  0.00  0.00     0.000 S
ATOM     32   O  A00 X   2      42.825  30.547   9.8460  0.00  0.00     0.000 OA
ATOM     33   O  A00 X   2      43.232  31.741  11.8280  0.00  0.00     0.000 OA
ENDBRANCH 21 30
BRANCH 24 34
ATOM     34   C  A00 X   2      38.246  30.294  15.2860  0.00  0.00     0.000 C
ATOM     35   O  A00 X   2      35.956  27.995  16.9390  0.00  0.00     0.000 OA
ATOM     36   O  A00 X   2      37.468  29.116  15.5810  0.00  0.00     0.000 O
ATOM     37   O  A00 X   2      38.118  28.516  17.7460  0.00  0.00     0.000 OA
ATOM     38   S  A00 X   2      36.958  29.003  17.0640  0.00  0.00     0.000 S
ATOM     39   O  A00 X   2      36.472  30.301  17.4250  0.00  0.00     0.000 OA
ENDBRANCH 24 34
BRANCH 20 40
ATOM     40  O4  A00 X   3      41.153  27.669  14.3830  0.00  0.00     0.000 O
BRANCH 40 44
ATOM     41  C1  A00 X   3      41.063  25.187  17.0200  0.00  0.00     0.000 C
ATOM     42  C2  A00 X   3      42.235  25.381  16.0330  0.00  0.00     0.000 C
ATOM     43  C3  A00 X   3      41.729  25.399  14.5670  0.00  0.00     0.000 C
ATOM     44  C4  A00 X   3      40.568  26.351  14.3100  0.00  0.00     0.000 C
ATOM     45  C5  A00 X   3      39.430  26.092  15.3370  0.00  0.00     0.000 C
ATOM     46  O5  A00 X   3      39.954  26.073  16.7040  0.00  0.00     0.000 O
ATOM     47   O  A00 X   3      42.737  25.486  13.5620  0.00  0.00     0.000 O
ATOM     49  HD  A00 X   3      42.157  26.007  13.1850  0.00  0.00     0.000 HD
BRANCH 42 49
ATOM     49   O  A00 X   3      42.883  26.623  16.3840  0.00  0.00     0.000 O
ATOM     50   O  A00 X   3      44.703  27.928  15.5380  0.00  0.00     0.000 OA
ATOM     51   O  A00 X   3      44.933  25.577  15.6380  0.00  0.00     0.000 OA
ATOM     52   O  A00 X   3      44.843  26.787  17.6650  0.00  0.00     0.000 OA
ATOM     53   S  A00 X   3      44.432  26.752  16.3040  0.00  0.00     0.000 S
ENDBRANCH 42 49
BRANCH 45 54
ATOM     54   C  A00 X   3      38.621  24.838  14.9830  0.00  0.00     0.000 C
ATOM     55   O  A00 X   3      39.030  24.052  14.1530  0.00  0.00     0.000 OA
ATOM     56   O  A00 X   3      37.552  24.610  15.5270  0.00  0.00     0.000 OA
ENDBRANCH 45 54
BRANCH 41 57
ATOM     57  O4  A00 X   4      40.689  23.796  17.1370  0.00  0.00     0.000 O
BRANCH 57 61
ATOM     58  C1  A00 X   4      38.658  21.700  20.3190  0.00  0.00     0.000 C
ATOM     59  C2  A00 X   4      37.910  21.920  18.9800  0.00  0.00     0.000 C
ATOM     60  C3  A00 X   4      38.836  22.345  17.8220  0.00  0.00     0.000 C
ATOM     61  C4  A00 X   4      39.784  23.491  18.2360  0.00  0.00     0.000 C
ATOM     62  C5  A00 X   4      40.580  22.976  19.4600  0.00  0.00     0.000 C
ATOM     63  O5  A00 X   4      39.662  22.715  20.5520  0.00  0.00     0.000 O
BRANCH 59 66
ATOM     64   N  A00 X   4      36.949  21.064  18.2620  0.00  0.00     0.000 N
ATOM     66  HD  A00 X   4      36.588  21.384  17.5430  0.00  0.00     0.000 HD
ATOM     66   O  A00 X   4      35.429  21.401  20.0990  0.00  0.00     0.000 OA
ATOM     67   S  A00 X   4      35.729  20.438  19.0860  0.00  0.00     0.000 S
ATOM     68   O  A00 X   4      34.751  20.313  18.0450  0.00  0.00     0.000 OA
ATOM     69   O  A00 X   4      36.313  19.193  19.4970  0.00  0.00     0.000 OA
ENDBRANCH 59 66
BRANCH 62 70
ATOM     70   C  A00 X   4      41.672  23.952  19.9590  0.00  0.00     0.000 C
ATOM     71   O  A00 X   4      41.304  26.869  22.0720  0.00  0.00     0.000 OA
ATOM     72   O  A00 X   4      42.428  26.592  20.0210  0.00  0.00     0.000 OA
ATOM     73   O  A00 X   4      41.116  24.812  20.9680  0.00  0.00     0.000 O
ATOM     74   O  A00 X   4      39.995  26.737  20.0510  0.00  0.00     0.000 OA
ATOM     75   S  A00 X   4      41.191  26.360  20.7340  0.00  0.00     0.000 S
ENDBRANCH 62 70
ENDBRANCH 57 61
ENDBRANCH 41 57
ENDBRANCH 40 44
ENDBRANCH 20 40
ENDBRANCH 19 23
ENDBRANCH 1 19
TORSDOF 14
ENDMDL
MODEL 35
REMARK VINA RESULT:      -1.2     16.391     23.908
ROOT
ATOM      1  C1  A00 X   1      42.937  33.860  15.5170  0.00  0.00     0.000 C
ATOM      2  C2  A00 X   1      42.120  35.168  15.6970  0.00  0.00     0.000 C
ATOM      3  C3  A00 X   1      40.625  35.113  15.2400  0.00  0.00     0.000 C
ATOM      4  C4  A00 X   1      40.245  33.908  14.3410  0.00  0.00     0.000 C
ATOM      5  C5  A00 X   1      41.459  33.313  13.6290  0.00  0.00     0.000 C
ATOM      6  O5  A00 X   1      42.315  32.842  14.6940  0.00  0.00     0.000 O
ATOM      7   O  A00 X   1      40.333  36.288  14.4870  0.00  0.00     0.000 O
ATOM      9  HD  A00 X   1      39.952  35.624  14.0830  0.00  0.00     0.000 HD
ATOM      9   O  A00 X   1      39.577  32.891  15.0870  0.00  0.00     0.000 O
ATOM     11  HD  A00 X   1      39.195  32.227  14.6830  0.00  0.00     0.000 HD
ENDROOT
BRANCH 2 11
ATOM     11   O  A00 X   1      42.172  35.529  17.0910  0.00  0.00     0.000 O
ATOM     12   O  A00 X   1      40.858  37.328  17.9860  0.00  0.00     0.000 OA
ATOM     13   O  A00 X   1      42.575  37.816  16.3340  0.00  0.00     0.000 OA
ATOM     14   O  A00 X   1      43.176  37.083  18.5150  0.00  0.00     0.000 OA
ATOM     15   S  A00 X   1      42.178  37.047  17.4810  0.00  0.00     0.000 S
ENDBRANCH 2 11
BRANCH 5 16
ATOM     16   C  A00 X   1      42.163  34.258  12.6500  0.00  0.00     0.000 C
ATOM     17   O  A00 X   1      41.570  35.246  12.2680  0.00  0.00     0.000 OA
ATOM     18   O  A00 X   1      43.292  34.057  12.2480  0.00  0.00     0.000 OA
ENDBRANCH 5 16
BRANCH 1 19
ATOM     19  O4  A00 X   2      44.306  34.104  15.1110  0.00  0.00     0.000 O
BRANCH 19 23
ATOM     20  C1  A00 X   2      45.922  30.978  17.5560  0.00  0.00     0.000 C
ATOM     21  C2  A00 X   2      45.943  32.415  18.1290  0.00  0.00     0.000 C
ATOM     22  C3  A00 X   2      44.966  33.328  17.3580  0.00  0.00     0.000 C
ATOM     23  C4  A00 X   2      45.260  33.282  15.8420  0.00  0.00     0.000 C
ATOM     24  C5  A00 X   2      45.229  31.794  15.3970  0.00  0.00     0.000 C
ATOM     25  O5  A00 X   2      46.238  31.063  16.1410  0.00  0.00     0.000 O
ATOM     26   O  A00 X   2      44.971  34.629  17.9700  0.00  0.00     0.000 O
ATOM     28  HD  A00 X   2      45.835  34.687  17.9580  0.00  0.00     0.000 HD
BRANCH 21 30
ATOM     28   N  A00 X   2      47.208  32.086  18.7930  0.00  0.00     0.000 N
ATOM     30  HD  A00 X   2      46.912  32.812  19.1620  0.00  0.00     0.000 HD
ATOM     30   O  A00 X   2      47.328  33.313  20.7770  0.00  0.00     0.000 OA
ATOM     31   S  A00 X   2      48.000  33.239  19.5290  0.00  0.00     0.000 S
ATOM     32   O  A00 X   2      49.340  32.742  19.5920  0.00  0.00     0.000 OA
ATOM     33   O  A00 X   2      47.939  34.398  18.6880  0.00  0.00     0.000 OA
ENDBRANCH 21 30
BRANCH 24 34
ATOM     34   C  A00 X   2      45.266  31.489  13.8810  0.00  0.00     0.000 C
ATOM     35   O  A00 X   2      44.028  28.406  12.3890  0.00  0.00     0.000 OA
ATOM     36   O  A00 X   2      45.047  30.087  13.6250  0.00  0.00     0.000 O
ATOM     37   O  A00 X   2      42.726  29.827  13.7600  0.00  0.00     0.000 OA
ATOM     38   S  A00 X   2      43.764  29.753  12.7780  0.00  0.00     0.000 S
ATOM     39   O  A00 X   2      43.730  30.699  11.7040  0.00  0.00     0.000 OA
ENDBRANCH 24 34
BRANCH 20 40
ATOM     40  O4  A00 X   3      44.574  30.514  17.7190  0.00  0.00     0.000 O
BRANCH 40 44
ATOM     41  C1  A00 X   3      41.381  28.928  18.3650  0.00  0.00     0.000 C
ATOM     42  C2  A00 X   3      42.314  29.503  19.4520  0.00  0.00     0.000 C
ATOM     43  C3  A00 X   3      43.759  28.965  19.2860  0.00  0.00     0.000 C
ATOM     44  C4  A00 X   3      44.327  29.101  17.8790  0.00  0.00     0.000 C
ATOM     45  C5  A00 X   3      43.336  28.497  16.8440  0.00  0.00     0.000 C
ATOM     46  O5  A00 X   3      41.985  29.024  17.0450  0.00  0.00     0.000 O
ATOM     47   O  A00 X   3      44.691  29.362  20.2890  0.00  0.00     0.000 O
ATOM     49  HD  A00 X   3      45.226  29.418  19.6110  0.00  0.00     0.000 HD
BRANCH 42 49
ATOM     49   O  A00 X   3      42.270  30.942  19.3310  0.00  0.00     0.000 O
ATOM     50   O  A00 X   3      43.293  32.806  20.4300  0.00  0.00     0.000 OA
ATOM     51   O  A00 X   3      42.528  30.990  21.7370  0.00  0.00     0.000 OA
ATOM     52   O  A00 X   3      40.929  32.348  20.6490  0.00  0.00     0.000 OA
ATOM     53   S  A00 X   3      42.256  31.838  20.6030  0.00  0.00     0.000 S
ENDBRANCH 42 49
BRANCH 45 54
ATOM     54   C  A00 X   3      43.390  26.965  16.8340  0.00  0.00     0.000 C
ATOM     55   O  A00 X   3      42.917  26.335  15.9100  0.00  0.00     0.000 OA
ATOM     56   O  A00 X   3      43.908  26.351  17.7540  0.00  0.00     0.000 OA
ENDBRANCH 45 54
BRANCH 41 57
ATOM     57  O4  A00 X   4      40.920  27.602  18.7040  0.00  0.00     0.000 O
BRANCH 57 61
ATOM     58  C1  A00 X   4      37.472  25.367  17.3760  0.00  0.00     0.000 C
ATOM     59  C2  A00 X   4      38.866  24.976  16.8260  0.00  0.00     0.000 C
ATOM     60  C3  A00 X   4      40.036  25.585  17.6260  0.00  0.00     0.000 C
ATOM     61  C4  A00 X   4      39.834  27.095  17.8770  0.00  0.00     0.000 C
ATOM     62  C5  A00 X   4      38.483  27.235  18.6210  0.00  0.00     0.000 C
ATOM     63  O5  A00 X   4      37.414  26.759  17.7630  0.00  0.00     0.000 O
BRANCH 59 66
ATOM     64   N  A00 X   4      39.767  24.346  15.8440  0.00  0.00     0.000 N
ATOM     66  HD  A00 X   4      40.202  24.868  15.3070  0.00  0.00     0.000 HD
ATOM     66   O  A00 X   4      37.802  23.541  14.7080  0.00  0.00     0.000 OA
ATOM     67   S  A00 X   4      39.176  23.196  14.9030  0.00  0.00     0.000 S
ATOM     68   O  A00 X   4      40.019  23.344  13.7520  0.00  0.00     0.000 OA
ATOM     69   O  A00 X   4      39.469  22.039  15.7010  0.00  0.00     0.000 OA
ENDBRANCH 59 66
BRANCH 62 70
ATOM     70   C  A00 X   4      38.152  28.681  19.0620  0.00  0.00     0.000 C
ATOM     71   O  A00 X   4      36.797  31.395  17.0860  0.00  0.00     0.000 OA
ATOM     72   O  A00 X   4      38.650  31.330  18.5370  0.00  0.00     0.000 OA
ATOM     73   O  A00 X   4      37.407  29.336  18.0230  0.00  0.00     0.000 O
ATOM     74   O  A00 X   4      38.814  30.313  16.3280  0.00  0.00     0.000 OA
ATOM     75   S  A00 X   4      37.986  30.670  17.4350  0.00  0.00     0.000 S
ENDBRANCH 62 70
ENDBRANCH 57 61
ENDBRANCH 41 57
ENDBRANCH 40 44
ENDBRANCH 20 40
ENDBRANCH 19 23
ENDBRANCH 1 19
TORSDOF 14
ENDMDL
MODEL 36
REMARK VINA RESULT:      -1.2     16.190     23.913
ROOT
ATOM      1  C1  A00 X   1      43.051  34.117  15.5060  0.00  0.00     0.000 C
ATOM      2  C2  A00 X   1      42.978  35.481  14.7680  0.00  0.00     0.000 C
ATOM      3  C3  A00 X   1      41.982  35.558  13.5640  0.00  0.00     0.000 C
ATOM      4  C4  A00 X   1      41.474  34.195  13.0280  0.00  0.00     0.000 C
ATOM      5  C5  A00 X   1      42.418  33.046  13.3840  0.00  0.00     0.000 C
ATOM      6  O5  A00 X   1      42.416  33.004  14.8290  0.00  0.00     0.000 O
ATOM      7   O  A00 X   1      42.632  36.205  12.4730  0.00  0.00     0.000 O
ATOM      9  HD  A00 X   1      42.182  35.542  12.1450  0.00  0.00     0.000 HD
ATOM      9   O  A00 X   1      40.160  33.904  13.5040  0.00  0.00     0.000 O
ATOM     11  HD  A00 X   1      39.709  33.241  13.1760  0.00  0.00     0.000 HD
ENDROOT
BRANCH 2 11
ATOM     11   O  A00 X   1      42.621  36.485  15.7370  0.00  0.00     0.000 O
ATOM     12   O  A00 X   1      42.021  38.719  15.0900  0.00  0.00     0.000 OA
ATOM     13   O  A00 X   1      44.275  37.916  14.6480  0.00  0.00     0.000 OA
ATOM     14   O  A00 X   1      43.548  38.298  16.8800  0.00  0.00     0.000 OA
ATOM     15   S  A00 X   1      43.151  37.948  15.5430  0.00  0.00     0.000 S
ENDBRANCH 2 11
BRANCH 5 16
ATOM     16   C  A00 X   1      43.820  33.148  12.7760  0.00  0.00     0.000 C
ATOM     17   O  A00 X   1      43.997  33.910  11.8480  0.00  0.00     0.000 OA
ATOM     18   O  A00 X   1      44.760  32.501  13.1930  0.00  0.00     0.000 OA
ENDBRANCH 5 16
BRANCH 1 19
ATOM     19  O4  A00 X   2      44.395  33.780  15.9290  0.00  0.00     0.000 O
BRANCH 19 23
ATOM     20  C1  A00 X   2      43.233  31.535  19.3900  0.00  0.00     0.000 C
ATOM     21  C2  A00 X   2      43.294  33.075  19.5250  0.00  0.00     0.000 C
ATOM     22  C3  A00 X   2      43.294  33.749  18.1370  0.00  0.00     0.000 C
ATOM     23  C4  A00 X   2      44.428  33.179  17.2560  0.00  0.00     0.000 C
ATOM     24  C5  A00 X   2      44.267  31.635  17.2150  0.00  0.00     0.000 C
ATOM     25  O5  A00 X   2      44.358  31.120  18.5690  0.00  0.00     0.000 O
ATOM     26   O  A00 X   2      43.282  35.176  18.3170  0.00  0.00     0.000 O
ATOM     28  HD  A00 X   2      43.944  35.162  18.8740  0.00  0.00     0.000 HD
BRANCH 21 30
ATOM     28   N  A00 X   2      43.743  32.898  20.9100  0.00  0.00     0.000 N
ATOM     30  HD  A00 X   2      43.491  33.723  20.8310  0.00  0.00     0.000 HD
ATOM     30   O  A00 X   2      42.946  34.698  22.1680  0.00  0.00     0.000 OA
ATOM     31   S  A00 X   2      44.190  34.173  21.7310  0.00  0.00     0.000 S
ATOM     32   O  A00 X   2      45.017  33.635  22.7660  0.00  0.00     0.000 OA
ATOM     33   O  A00 X   2      44.967  34.993  20.8490  0.00  0.00     0.000 OA
ENDBRANCH 21 30
BRANCH 24 34
ATOM     34   C  A00 X   2      45.139  30.840  16.2150  0.00  0.00     0.000 C
ATOM     35   O  A00 X   2      48.779  30.907  16.1790  0.00  0.00     0.000 OA
ATOM     36   O  A00 X   2      46.496  31.326  16.2040  0.00  0.00     0.000 O
ATOM     37   O  A00 X   2      47.487  30.327  18.0730  0.00  0.00     0.000 OA
ATOM     38   S  A00 X   2      47.586  30.281  16.6460  0.00  0.00     0.000 S
ATOM     39   O  A00 X   2      47.253  29.049  15.9960  0.00  0.00     0.000 OA
ENDBRANCH 24 34
BRANCH 20 40
ATOM     40  O4  A00 X   3      42.007  31.254  18.7000  0.00  0.00     0.000 O
BRANCH 40 44
ATOM     41  C1  A00 X   3      39.654  29.548  16.5370  0.00  0.00     0.000 C
ATOM     42  C2  A00 X   3      39.289  30.696  17.5030  0.00  0.00     0.000 C
ATOM     43  C3  A00 X   3      39.826  30.412  18.9300  0.00  0.00     0.000 C
ATOM     44  C4  A00 X   3      41.299  30.029  18.9870  0.00  0.00     0.000 C
ATOM     45  C5  A00 X   3      41.586  28.868  17.9930  0.00  0.00     0.000 C
ATOM     46  O5  A00 X   3      41.053  29.174  16.6640  0.00  0.00     0.000 O
ATOM     47   O  A00 X   3      39.472  31.366  19.9300  0.00  0.00     0.000 O
ATOM     49  HD  A00 X   3      40.284  31.220  20.1950  0.00  0.00     0.000 HD
BRANCH 42 49
ATOM     49   O  A00 X   3      39.856  31.906  16.9570  0.00  0.00     0.000 O
ATOM     50   O  A00 X   3      39.993  34.205  17.6120  0.00  0.00     0.000 OA
ATOM     51   O  A00 X   3      37.959  33.045  17.9390  0.00  0.00     0.000 OA
ATOM     52   O  A00 X   3      38.652  33.503  15.7260  0.00  0.00     0.000 OA
ATOM     53   S  A00 X   3      39.082  33.253  17.0580  0.00  0.00     0.000 S
ENDBRANCH 42 49
BRANCH 45 54
ATOM     54   C  A00 X   3      41.103  27.520  18.5410  0.00  0.00     0.000 C
ATOM     55   O  A00 X   3      41.497  26.478  18.0570  0.00  0.00     0.000 OA
ATOM     56   O  A00 X   3      40.314  27.469  19.4720  0.00  0.00     0.000 OA
ENDBRANCH 45 54
BRANCH 41 57
ATOM     57  O4  A00 X   4      38.736  28.438  16.6550  0.00  0.00     0.000 O
BRANCH 57 61
ATOM     58  C1  A00 X   4      37.755  25.272  13.8890  0.00  0.00     0.000 C
ATOM     59  C2  A00 X   4      38.620  24.932  15.1280  0.00  0.00     0.000 C
ATOM     60  C3  A00 X   4      38.603  26.031  16.2100  0.00  0.00     0.000 C
ATOM     61  C4  A00 X   4      38.845  27.432  15.6080  0.00  0.00     0.000 C
ATOM     62  C5  A00 X   4      37.742  27.645  14.5420  0.00  0.00     0.000 C
ATOM     63  O5  A00 X   4      37.895  26.656  13.4930  0.00  0.00     0.000 O
BRANCH 59 66
ATOM     64   N  A00 X   4      38.820  23.763  16.0030  0.00  0.00     0.000 N
ATOM     66  HD  A00 X   4      39.482  23.790  16.5610  0.00  0.00     0.000 HD
ATOM     66   O  A00 X   4      39.510  22.541  14.0470  0.00  0.00     0.000 OA
ATOM     67   S  A00 X   4      38.914  22.317  15.3260  0.00  0.00     0.000 S
ATOM     68   O  A00 X   4      39.740  21.638  16.2820  0.00  0.00     0.000 OA
ATOM     69   O  A00 X   4      37.532  21.930  15.3620  0.00  0.00     0.000 OA
ENDBRANCH 59 66
BRANCH 62 70
ATOM     70   C  A00 X   4      37.751  29.052  13.8970  0.00  0.00     0.000 C
ATOM     71   O  A00 X   4      39.919  30.333  11.2960  0.00  0.00     0.000 OA
ATOM     72   O  A00 X   4      39.319  31.247  13.3820  0.00  0.00     0.000 OA
ATOM     73   O  A00 X   4      38.607  29.040  12.7440  0.00  0.00     0.000 O
ATOM     74   O  A00 X   4      40.924  29.416  13.2870  0.00  0.00     0.000 OA
ATOM     75   S  A00 X   4      39.795  30.063  12.7010  0.00  0.00     0.000 S
ENDBRANCH 62 70
ENDBRANCH 57 61
ENDBRANCH 41 57
ENDBRANCH 40 44
ENDBRANCH 20 40
ENDBRANCH 19 23
ENDBRANCH 1 19
TORSDOF 14
ENDMDL
MODEL 37
REMARK VINA RESULT:      -1.0     62.469     67.453
ROOT
ATOM      1  C1  A00 X   1      69.237  26.510  68.3750  0.00  0.00     0.000 C
ATOM      2  C2  A00 X   1      70.676  26.995  68.6910  0.00  0.00     0.000 C
ATOM      3  C3  A00 X   1      71.204  26.687  70.1310  0.00  0.00     0.000 C
ATOM      4  C4  A00 X   1      70.125  26.277  71.1660  0.00  0.00     0.000 C
ATOM      5  C5  A00 X   1      68.731  26.762  70.7680  0.00  0.00     0.000 C
ATOM      6  O5  A00 X   1      68.451  26.091  69.5190  0.00  0.00     0.000 O
ATOM      7   O  A00 X   1      71.835  27.858  70.6470  0.00  0.00     0.000 O
ATOM      9  HD  A00 X   1      71.373  27.511  71.2920  0.00  0.00     0.000 HD
ATOM      9   O  A00 X   1      70.105  24.865  71.3670  0.00  0.00     0.000 O
ATOM     11  HD  A00 X   1      69.643  24.518  72.0130  0.00  0.00     0.000 HD
ENDROOT
BRANCH 2 11
ATOM     11   O  A00 X   1      71.563  26.394  67.7280  0.00  0.00     0.000 O
ATOM     12   O  A00 X   1      73.950  26.594  67.9010  0.00  0.00     0.000 OA
ATOM     13   O  A00 X   1      72.611  28.592  67.5380  0.00  0.00     0.000 OA
ATOM     14   O  A00 X   1      72.808  26.947  65.8310  0.00  0.00     0.000 OA
ATOM     15   S  A00 X   1      72.818  27.200  67.2470  0.00  0.00     0.000 S
ENDBRANCH 2 11
BRANCH 5 16
ATOM     16   C  A00 X   1      68.570  28.284  70.6960  0.00  0.00     0.000 C
ATOM     17   O  A00 X   1      67.566  28.739  70.1880  0.00  0.00     0.000 OA
ATOM     18   O  A00 X   1      69.406  29.049  71.1340  0.00  0.00     0.000 OA
ENDBRANCH 5 16
BRANCH 1 19
ATOM     19  O4  A00 X   2      68.502  27.439  67.5410  0.00  0.00     0.000 O
BRANCH 19 23
ATOM     20  C1  A00 X   2      66.628  24.356  65.2280  0.00  0.00     0.000 C
ATOM     21  C2  A00 X   2      67.885  25.032  64.6310  0.00  0.00     0.000 C
ATOM     22  C3  A00 X   2      68.678  25.779  65.7240  0.00  0.00     0.000 C
ATOM     23  C4  A00 X   2      67.764  26.771  66.4770  0.00  0.00     0.000 C
ATOM     24  C5  A00 X   2      66.538  25.978  67.0080  0.00  0.00     0.000 C
ATOM     25  O5  A00 X   2      65.840  25.387  65.8810  0.00  0.00     0.000 O
ATOM     26   O  A00 X   2      69.868  26.330  65.1350  0.00  0.00     0.000 O
ATOM     28  HD  A00 X   2      69.435  26.698  64.4810  0.00  0.00     0.000 HD
BRANCH 21 30
ATOM     28   N  A00 X   2      67.290  24.879  63.3000  0.00  0.00     0.000 N
ATOM     30  HD  A00 X   2      68.130  25.051  63.1810  0.00  0.00     0.000 HD
ATOM     30   O  A00 X   2      69.020  24.581  61.7590  0.00  0.00     0.000 OA
ATOM     31   S  A00 X   2      68.017  25.540  62.0630  0.00  0.00     0.000 S
ATOM     32   O  A00 X   2      66.981  25.660  61.0850  0.00  0.00     0.000 OA
ATOM     33   O  A00 X   2      68.463  26.837  62.4770  0.00  0.00     0.000 OA
ENDBRANCH 21 30
BRANCH 24 34
ATOM     34   C  A00 X   2      65.584  26.691  67.9940  0.00  0.00     0.000 C
ATOM     35   O  A00 X   2      62.045  27.262  67.3560  0.00  0.00     0.000 OA
ATOM     36   O  A00 X   2      64.359  27.085  67.3440  0.00  0.00     0.000 O
ATOM     37   O  A00 X   2      63.072  25.133  67.2950  0.00  0.00     0.000 OA
ATOM     38   S  A00 X   2      63.053  26.422  67.9150  0.00  0.00     0.000 S
ATOM     39   O  A00 X   2      63.163  26.474  69.3420  0.00  0.00     0.000 OA
ENDBRANCH 24 34
BRANCH 20 40
ATOM     40  O4  A00 X   3      67.115  23.430  66.2110  0.00  0.00     0.000 O
BRANCH 40 44
ATOM     41  C1  A00 X   3      66.763  22.055  69.5440  0.00  0.00     0.000 C
ATOM     42  C2  A00 X   3      67.868  21.660  68.5410  0.00  0.00     0.000 C
ATOM     43  C3  A00 X   3      67.261  21.288  67.1640  0.00  0.00     0.000 C
ATOM     44  C4  A00 X   3      66.286  22.315  66.6030  0.00  0.00     0.000 C
ATOM     45  C5  A00 X   3      65.204  22.657  67.6660  0.00  0.00     0.000 C
ATOM     46  O5  A00 X   3      65.820  22.991  68.9510  0.00  0.00     0.000 O
ATOM     47   O  A00 X   3      68.184  20.822  66.1810  0.00  0.00     0.000 O
ATOM     49  HD  A00 X   3      67.686  21.293  65.6530  0.00  0.00     0.000 HD
BRANCH 42 49
ATOM     49   O  A00 X   3      68.766  22.786  68.4360  0.00  0.00     0.000 O
ATOM     50   O  A00 X   3      70.716  23.334  67.1590  0.00  0.00     0.000 OA
ATOM     51   O  A00 X   3      70.509  21.153  68.0470  0.00  0.00     0.000 OA
ATOM     52   O  A00 X   3      70.829  22.953  69.5440  0.00  0.00     0.000 OA
ATOM     53   S  A00 X   3      70.298  22.559  68.2850  0.00  0.00     0.000 S
ENDBRANCH 42 49
BRANCH 45 54
ATOM     54   C  A00 X   3      64.145  21.552  67.7740  0.00  0.00     0.000 C
ATOM     55   O  A00 X   3      63.169  21.698  68.4800  0.00  0.00     0.000 OA
ATOM     56   O  A00 X   3      64.267  20.507  67.1540  0.00  0.00     0.000 OA
ENDBRANCH 45 54
BRANCH 41 57
ATOM     57  O4  A00 X   4      66.141  20.893  70.1380  0.00  0.00     0.000 O
BRANCH 57 61
ATOM     58  C1  A00 X   4      64.468  20.130  74.0440  0.00  0.00     0.000 C
ATOM     59  C2  A00 X   4      63.830  21.237  73.1680  0.00  0.00     0.000 C
ATOM     60  C3  A00 X   4      64.263  21.176  71.6890  0.00  0.00     0.000 C
ATOM     61  C4  A00 X   4      65.793  21.030  71.5450  0.00  0.00     0.000 C
ATOM     62  C5  A00 X   4      66.183  19.747  72.3210  0.00  0.00     0.000 C
ATOM     63  O5  A00 X   4      65.862  19.923  73.7250  0.00  0.00     0.000 O
BRANCH 59 66
ATOM     64   N  A00 X   4      64.246  22.568  73.6440  0.00  0.00     0.000 N
ATOM     66  HD  A00 X   4      65.012  22.629  74.0440  0.00  0.00     0.000 HD
ATOM     66   O  A00 X   4      62.519  22.401  75.3140  0.00  0.00     0.000 OA
ATOM     67   S  A00 X   4      63.236  23.391  74.5720  0.00  0.00     0.000 S
ATOM     68   O  A00 X   4      64.165  24.178  75.3310  0.00  0.00     0.000 OA
ATOM     69   O  A00 X   4      62.518  24.130  73.5730  0.00  0.00     0.000 OA
ENDBRANCH 59 66
BRANCH 62 70
ATOM     70   C  A00 X   4      67.679  19.367  72.2020  0.00  0.00     0.000 C
ATOM     71   O  A00 X   4      70.563  21.079  73.5650  0.00  0.00     0.000 OA
ATOM     72   O  A00 X   4      70.141  20.275  71.3930  0.00  0.00     0.000 OA
ATOM     73   O  A00 X   4      68.449  20.183  73.1000  0.00  0.00     0.000 O
ATOM     74   O  A00 X   4      69.049  22.316  72.1540  0.00  0.00     0.000 OA
ATOM     75   S  A00 X   4      69.608  21.047  72.4930  0.00  0.00     0.000 S
ENDBRANCH 62 70
ENDBRANCH 57 61
ENDBRANCH 41 57
ENDBRANCH 40 44
ENDBRANCH 20 40
ENDBRANCH 19 23
ENDBRANCH 1 19
TORSDOF 14
ENDMDL
MODEL 38
REMARK VINA RESULT:      -1.0     50.307     57.196
ROOT
ATOM      1  C1  A00 X   1      15.380  73.468  19.7140  0.00  0.00     0.000 C
ATOM      2  C2  A00 X   1      14.800  74.156  18.4490  0.00  0.00     0.000 C
ATOM      3  C3  A00 X   1      15.084  73.443  17.0870  0.00  0.00     0.000 C
ATOM      4  C4  A00 X   1      16.197  72.363  17.1170  0.00  0.00     0.000 C
ATOM      5  C5  A00 X   1      17.164  72.563  18.2830  0.00  0.00     0.000 C
ATOM      6  O5  A00 X   1      16.347  72.417  19.4660  0.00  0.00     0.000 O
ATOM      7   O  A00 X   1      15.495  74.421  16.1350  0.00  0.00     0.000 O
ATOM      9  HD  A00 X   1      16.001  73.727  16.0220  0.00  0.00     0.000 HD
ATOM      9   O  A00 X   1      15.646  71.047  17.1670  0.00  0.00     0.000 O
ATOM     11  HD  A00 X   1      16.152  70.354  17.0550  0.00  0.00     0.000 HD
ENDROOT
BRANCH 2 11
ATOM     11   O  A00 X   1      13.376  74.275  18.6290  0.00  0.00     0.000 O
ATOM     12   O  A00 X   1      11.931  75.029  16.8650  0.00  0.00     0.000 OA
ATOM     13   O  A00 X   1      13.602  76.549  17.7670  0.00  0.00     0.000 OA
ATOM     14   O  A00 X   1      11.743  75.879  19.0910  0.00  0.00     0.000 OA
ATOM     15   S  A00 X   1      12.636  75.517  18.0230  0.00  0.00     0.000 S
ENDBRANCH 2 11
BRANCH 5 16
ATOM     16   C  A00 X   1      17.962  73.871  18.2460  0.00  0.00     0.000 C
ATOM     17   O  A00 X   1      18.592  74.195  19.2310  0.00  0.00     0.000 OA
ATOM     18   O  A00 X   1      17.991  74.589  17.2670  0.00  0.00     0.000 OA
ENDBRANCH 5 16
BRANCH 1 19
ATOM     19  O4  A00 X   2      15.868  74.415  20.6950  0.00  0.00     0.000 O
BRANCH 19 23
ATOM     20  C1  A00 X   2      14.411  72.170  24.0420  0.00  0.00     0.000 C
ATOM     21  C2  A00 X   2      13.538  73.343  23.5340  0.00  0.00     0.000 C
ATOM     22  C3  A00 X   2      13.955  73.760  22.1080  0.00  0.00     0.000 C
ATOM     23  C4  A00 X   2      15.468  74.070  22.0520  0.00  0.00     0.000 C
ATOM     24  C5  A00 X   2      16.226  72.831  22.6010  0.00  0.00     0.000 C
ATOM     25  O5  A00 X   2      15.800  72.590  23.9680  0.00  0.00     0.000 O
ATOM     26   O  A00 X   2      13.073  74.803  21.6570  0.00  0.00     0.000 O
ATOM     28  HD  A00 X   2      13.181  75.274  22.3750  0.00  0.00     0.000 HD
BRANCH 21 30
ATOM     28   N  A00 X   2      13.131  73.582  24.9220  0.00  0.00     0.000 N
ATOM     30  HD  A00 X   2      12.575  74.016  24.4190  0.00  0.00     0.000 HD
ATOM     30   O  A00 X   2      10.954  74.431  24.9040  0.00  0.00     0.000 OA
ATOM     31   S  A00 X   2      12.263  74.863  25.2470  0.00  0.00     0.000 S
ATOM     32   O  A00 X   2      12.482  75.075  26.6440  0.00  0.00     0.000 OA
ATOM     33   O  A00 X   2      12.808  75.948  24.4880  0.00  0.00     0.000 OA
ENDBRANCH 21 30
BRANCH 24 34
ATOM     34   C  A00 X   2      17.764  72.792  22.4410  0.00  0.00     0.000 C
ATOM     35   O  A00 X   2      20.107  72.756  25.2280  0.00  0.00     0.000 OA
ATOM     36   O  A00 X   2      18.428  73.140  23.6720  0.00  0.00     0.000 O
ATOM     37   O  A00 X   2      18.372  71.175  24.9400  0.00  0.00     0.000 OA
ATOM     38   S  A00 X   2      19.333  72.012  24.2890  0.00  0.00     0.000 S
ATOM     39   O  A00 X   2      20.075  71.449  23.2010  0.00  0.00     0.000 OA
ENDBRANCH 24 34
BRANCH 20 40
ATOM     40  O4  A00 X   3      14.186  71.092  23.1210  0.00  0.00     0.000 O
BRANCH 40 44
ATOM     41  C1  A00 X   3      15.614  68.422  21.1330  0.00  0.00     0.000 C
ATOM     42  C2  A00 X   3      14.116  68.794  21.1600  0.00  0.00     0.000 C
ATOM     43  C3  A00 X   3      13.590  68.876  22.6160  0.00  0.00     0.000 C
ATOM     44  C4  A00 X   3      14.437  69.735  23.5470  0.00  0.00     0.000 C
ATOM     45  C5  A00 X   3      15.926  69.298  23.4680  0.00  0.00     0.000 C
ATOM     46  O5  A00 X   3      16.376  69.224  22.0770  0.00  0.00     0.000 O
ATOM     47   O  A00 X   3      12.194  69.129  22.7620  0.00  0.00     0.000 O
ATOM     49  HD  A00 X   3      12.467  69.622  23.4200  0.00  0.00     0.000 HD
BRANCH 42 49
ATOM     49   O  A00 X   3      13.982  70.061  20.4790  0.00  0.00     0.000 O
ATOM     50   O  A00 X   3      12.207  71.594  20.0040  0.00  0.00     0.000 OA
ATOM     51   O  A00 X   3      11.799  69.275  19.7900  0.00  0.00     0.000 OA
ATOM     52   O  A00 X   3      13.270  70.308  18.2550  0.00  0.00     0.000 OA
ATOM     53   S  A00 X   3      12.746  70.342  19.5760  0.00  0.00     0.000 S
ENDBRANCH 42 49
BRANCH 45 54
ATOM     54   C  A00 X   3      16.181  68.006  24.2540  0.00  0.00     0.000 C
ATOM     55   O  A00 X   3      17.307  67.571  24.3820  0.00  0.00     0.000 OA
ATOM     56   O  A00 X   3      15.256  67.391  24.7620  0.00  0.00     0.000 OA
ENDBRANCH 45 54
BRANCH 41 57
ATOM     57  O4  A00 X   4      15.813  66.998  21.2780  0.00  0.00     0.000 O
BRANCH 57 61
ATOM     58  C1  A00 X   4      18.730  64.255  19.6640  0.00  0.00     0.000 C
ATOM     59  C2  A00 X   4      19.219  65.397  20.5900  0.00  0.00     0.000 C
ATOM     60  C3  A00 X   4      18.082  66.076  21.3810  0.00  0.00     0.000 C
ATOM     61  C4  A00 X   4      16.888  66.438  20.4720  0.00  0.00     0.000 C
ATOM     62  C5  A00 X   4      16.429  65.116  19.8090  0.00  0.00     0.000 C
ATOM     63  O5  A00 X   4      17.503  64.598  18.9820  0.00  0.00     0.000 O
BRANCH 59 66
ATOM     64   N  A00 X   4      19.843  66.479  19.8080  0.00  0.00     0.000 N
ATOM     66  HD  A00 X   4      19.570  66.594  18.9950  0.00  0.00     0.000 HD
ATOM     66   O  A00 X   4      21.853  65.153  19.7650  0.00  0.00     0.000 OA
ATOM     67   S  A00 X   4      21.440  66.520  19.7120  0.00  0.00     0.000 S
ATOM     68   O  A00 X   4      21.606  67.166  18.4430  0.00  0.00     0.000 OA
ATOM     69   O  A00 X   4      21.740  67.355  20.8410  0.00  0.00     0.000 OA
ENDBRANCH 59 66
BRANCH 62 70
ATOM     70   C  A00 X   4      15.159  65.255  18.9350  0.00  0.00     0.000 C
ATOM     71   O  A00 X   4      14.772  66.954  15.7620  0.00  0.00     0.000 OA
ATOM     72   O  A00 X   4      13.483  67.066  17.7300  0.00  0.00     0.000 OA
ATOM     73   O  A00 X   4      15.521  65.791  17.6530  0.00  0.00     0.000 O
ATOM     74   O  A00 X   4      15.639  68.198  17.6380  0.00  0.00     0.000 OA
ATOM     75   S  A00 X   4      14.823  67.116  17.1880  0.00  0.00     0.000 S
ENDBRANCH 62 70
ENDBRANCH 57 61
ENDBRANCH 41 57
ENDBRANCH 40 44
ENDBRANCH 20 40
ENDBRANCH 19 23
ENDBRANCH 1 19
TORSDOF 14
ENDMDL
MODEL 39
REMARK VINA RESULT:      -1.0     79.791     85.428
ROOT
ATOM      1  C1  A00 X   1      70.278  57.776  74.4520  0.00  0.00     0.000 C
ATOM      2  C2  A00 X   1      70.347  56.281  74.8610  0.00  0.00     0.000 C
ATOM      3  C3  A00 X   1      70.566  55.994  76.3830  0.00  0.00     0.000 C
ATOM      4  C4  A00 X   1      71.050  57.200  77.2270  0.00  0.00     0.000 C
ATOM      5  C5  A00 X   1      71.734  58.267  76.3720  0.00  0.00     0.000 C
ATOM      6  O5  A00 X   1      70.707  58.722  75.4630  0.00  0.00     0.000 O
ATOM      7   O  A00 X   1      71.560  54.980  76.5180  0.00  0.00     0.000 O
ATOM      9  HD  A00 X   1      71.717  55.575  77.1280  0.00  0.00     0.000 HD
ATOM      9   O  A00 X   1      69.977  57.787  77.9620  0.00  0.00     0.000 O
ATOM     11  HD  A00 X   1      70.134  58.382  78.5720  0.00  0.00     0.000 HD
ENDROOT
BRANCH 2 11
ATOM     11   O  A00 X   1      69.120  55.654  74.4370  0.00  0.00     0.000 O
ATOM     12   O  A00 X   1      68.574  53.395  75.0430  0.00  0.00     0.000 OA
ATOM     13   O  A00 X   1      70.509  53.814  73.6300  0.00  0.00     0.000 OA
ATOM     14   O  A00 X   1      68.311  54.193  72.8050  0.00  0.00     0.000 OA
ATOM     15   S  A00 X   1      69.156  54.159  73.9680  0.00  0.00     0.000 S
ENDBRANCH 2 11
BRANCH 5 16
ATOM     16   C  A00 X   1      73.017  57.809  75.6690  0.00  0.00     0.000 C
ATOM     17   O  A00 X   1      73.497  58.523  74.8130  0.00  0.00     0.000 OA
ATOM     18   O  A00 X   1      73.571  56.763  75.9410  0.00  0.00     0.000 OA
ENDBRANCH 5 16
BRANCH 1 19
ATOM     19  O4  A00 X   2      70.915  58.039  73.1780  0.00  0.00     0.000 O
BRANCH 19 23
ATOM     20  C1  A00 X   2      67.930  60.843  71.9150  0.00  0.00     0.000 C
ATOM     21  C2  A00 X   2      67.807  59.388  71.4010  0.00  0.00     0.000 C
ATOM     22  C3  A00 X   2      68.660  58.428  72.2570  0.00  0.00     0.000 C
ATOM     23  C4  A00 X   2      70.123  58.918  72.3280  0.00  0.00     0.000 C
ATOM     24  C5  A00 X   2      70.109  60.386  72.8370  0.00  0.00     0.000 C
ATOM     25  O5  A00 X   2      69.339  61.194  71.9090  0.00  0.00     0.000 O
ATOM     26   O  A00 X   2      68.458  57.086  71.7840  0.00  0.00     0.000 O
ATOM     28  HD  A00 X   2      68.610  57.300  70.9590  0.00  0.00     0.000 HD
BRANCH 21 30
ATOM     28   N  A00 X   2      67.274  59.918  70.1420  0.00  0.00     0.000 N
ATOM     30  HD  A00 X   2      67.086  59.072  70.1580  0.00  0.00     0.000 HD
ATOM     30   O  A00 X   2      65.760  58.360  69.2800  0.00  0.00     0.000 OA
ATOM     31   S  A00 X   2      67.022  58.918  68.9440  0.00  0.00     0.000 S
ATOM     32   O  A00 X   2      67.021  59.764  67.7910  0.00  0.00     0.000 OA
ATOM     33   O  A00 X   2      68.138  58.020  68.9010  0.00  0.00     0.000 OA
ENDBRANCH 21 30
BRANCH 24 34
ATOM     34   C  A00 X   2      71.460  61.036  73.2160  0.00  0.00     0.000 C
ATOM     35   O  A00 X   2      72.911  63.888  71.4790  0.00  0.00     0.000 OA
ATOM     36   O  A00 X   2      71.942  61.892  72.1610  0.00  0.00     0.000 O
ATOM     37   O  A00 X   2      70.749  63.885  72.4370  0.00  0.00     0.000 OA
ATOM     38   S  A00 X   2      72.095  63.409  72.5450  0.00  0.00     0.000 S
ATOM     39   O  A00 X   2      72.707  63.440  73.8390  0.00  0.00     0.000 OA
ENDBRANCH 24 34
BRANCH 20 40
ATOM     40  O4  A00 X   3      67.447  60.818  73.2660  0.00  0.00     0.000 O
BRANCH 40 44
ATOM     41  C1  A00 X   3      67.936  61.865  76.7000  0.00  0.00     0.000 C
ATOM     42  C2  A00 X   3      66.785  60.958  76.2120  0.00  0.00     0.000 C
ATOM     43  C3  A00 X   3      66.058  61.590  74.9970  0.00  0.00     0.000 C
ATOM     44  C4  A00 X   3      66.980  62.043  73.8720  0.00  0.00     0.000 C
ATOM     45  C5  A00 X   3      68.106  62.952  74.4400  0.00  0.00     0.000 C
ATOM     46  O5  A00 X   3      68.757  62.322  75.5900  0.00  0.00     0.000 O
ATOM     47   O  A00 X   3      64.919  60.880  74.5140  0.00  0.00     0.000 O
ATOM     49  HD  A00 X   3      65.236  61.120  73.7440  0.00  0.00     0.000 HD
BRANCH 42 49
ATOM     49   O  A00 X   3      67.367  59.681  75.8720  0.00  0.00     0.000 O
ATOM     50   O  A00 X   3      66.588  57.607  74.9650  0.00  0.00     0.000 OA
ATOM     51   O  A00 X   3      65.263  58.717  76.5780  0.00  0.00     0.000 OA
ATOM     52   O  A00 X   3      67.326  57.788  77.2600  0.00  0.00     0.000 OA
ATOM     53   S  A00 X   3      66.602  58.361  76.1790  0.00  0.00     0.000 S
ENDBRANCH 42 49
BRANCH 45 54
ATOM     54   C  A00 X   3      67.596  64.368  74.7370  0.00  0.00     0.000 C
ATOM     55   O  A00 X   3      66.408  64.616  74.7100  0.00  0.00     0.000 OA
ATOM     56   O  A00 X   3      68.375  65.270  75.0040  0.00  0.00     0.000 OA
ENDBRANCH 45 54
BRANCH 41 57
ATOM     57  O4  A00 X   4      67.453  62.929  77.5500  0.00  0.00     0.000 O
BRANCH 57 61
ATOM     58  C1  A00 X   4      69.151  64.970  80.9540  0.00  0.00     0.000 C
ATOM     59  C2  A00 X   4      69.886  65.061  79.5930  0.00  0.00     0.000 C
ATOM     60  C3  A00 X   4      69.021  64.612  78.3980  0.00  0.00     0.000 C
ATOM     61  C4  A00 X   4      68.318  63.265  78.6720  0.00  0.00     0.000 C
ATOM     62  C5  A00 X   4      67.477  63.466  79.9570  0.00  0.00     0.000 C
ATOM     63  O5  A00 X   4      68.364  63.762  81.0660  0.00  0.00     0.000 O
BRANCH 59 66
ATOM     64   N  A00 X   4      71.061  64.171  79.5810  0.00  0.00     0.000 N
ATOM     66  HD  A00 X   4      71.034  63.466  80.0830  0.00  0.00     0.000 HD
ATOM     66   O  A00 X   4      72.259  65.902  80.7510  0.00  0.00     0.000 OA
ATOM     67   S  A00 X   4      72.500  64.813  79.8560  0.00  0.00     0.000 S
ATOM     68   O  A00 X   4      73.181  63.686  80.4250  0.00  0.00     0.000 OA
ATOM     69   O  A00 X   4      72.899  65.125  78.5130  0.00  0.00     0.000 OA
ENDBRANCH 59 66
BRANCH 62 70
ATOM     70   C  A00 X   4      66.604  62.247  80.3380  0.00  0.00     0.000 C
ATOM     71   O  A00 X   4      67.654  59.008  81.5670  0.00  0.00     0.000 OA
ATOM     72   O  A00 X   4      66.171  59.583  79.8310  0.00  0.00     0.000 OA
ATOM     73   O  A00 X   4      67.417  61.270  81.0070  0.00  0.00     0.000 O
ATOM     74   O  A00 X   4      68.574  59.804  79.4850  0.00  0.00     0.000 OA
ATOM     75   S  A00 X   4      67.478  59.826  80.4000  0.00  0.00     0.000 S
ENDBRANCH 62 70
ENDBRANCH 57 61
ENDBRANCH 41 57
ENDBRANCH 40 44
ENDBRANCH 20 40
ENDBRANCH 19 23
ENDBRANCH 1 19
TORSDOF 14
ENDMDL
MODEL 40
REMARK VINA RESULT:      -1.0     78.697     84.619
ROOT
ATOM      1  C1  A00 X   1      68.894  58.202  74.2820  0.00  0.00     0.000 C
ATOM      2  C2  A00 X   1      69.360  56.779  74.6900  0.00  0.00     0.000 C
ATOM      3  C3  A00 X   1      69.872  56.618  76.1590  0.00  0.00     0.000 C
ATOM      4  C4  A00 X   1      70.197  57.939  76.9030  0.00  0.00     0.000 C
ATOM      5  C5  A00 X   1      70.482  59.090  75.9370  0.00  0.00     0.000 C
ATOM      6  O5  A00 X   1      69.250  59.265  75.2010  0.00  0.00     0.000 O
ATOM      7   O  A00 X   1      71.077  55.856  76.1430  0.00  0.00     0.000 O
ATOM      9  HD  A00 X   1      71.189  56.498  76.7130  0.00  0.00     0.000 HD
ATOM      9   O  A00 X   1      69.146  58.308  77.7950  0.00  0.00     0.000 O
ATOM     11  HD  A00 X   1      69.257  58.950  78.3660  0.00  0.00     0.000 HD
ENDROOT
BRANCH 2 11
ATOM     11   O  A00 X   1      68.257  55.878  74.4760  0.00  0.00     0.000 O
ATOM     12   O  A00 X   1      68.334  53.585  75.1840  0.00  0.00     0.000 OA
ATOM     13   O  A00 X   1      69.882  54.355  73.4740  0.00  0.00     0.000 OA
ATOM     14   O  A00 X   1      67.554  54.202  73.0100  0.00  0.00     0.000 OA
ATOM     15   S  A00 X   1      68.555  54.408  74.0220  0.00  0.00     0.000 S
ENDBRANCH 2 11
BRANCH 5 16
ATOM     16   C  A00 X   1      71.709  58.895  75.0410  0.00  0.00     0.000 C
ATOM     17   O  A00 X   1      71.878  59.658  74.1120  0.00  0.00     0.000 OA
ATOM     18   O  A00 X   1      72.521  58.011  75.2310  0.00  0.00     0.000 OA
ENDBRANCH 5 16
BRANCH 1 19
ATOM     19  O4  A00 X   2      69.250  58.541  72.9200  0.00  0.00     0.000 O
BRANCH 19 23
ATOM     20  C1  A00 X   2      65.551  60.554  72.1280  0.00  0.00     0.000 C
ATOM     21  C2  A00 X   2      65.681  59.086  71.6540  0.00  0.00     0.000 C
ATOM     22  C3  A00 X   2      66.850  58.379  72.3710  0.00  0.00     0.000 C
ATOM     23  C4  A00 X   2      68.159  59.183  72.2000  0.00  0.00     0.000 C
ATOM     24  C5  A00 X   2      67.892  60.633  72.6900  0.00  0.00     0.000 C
ATOM     25  O5  A00 X   2      66.826  61.208  71.8910  0.00  0.00     0.000 O
ATOM     26   O  A00 X   2      66.886  57.005  71.9500  0.00  0.00     0.000 O
ATOM     28  HD  A00 X   2      66.856  57.210  71.1090  0.00  0.00     0.000 HD
BRANCH 21 30
ATOM     28   N  A00 X   2      64.853  59.427  70.4930  0.00  0.00     0.000 N
ATOM     30  HD  A00 X   2      64.866  58.563  70.5470  0.00  0.00     0.000 HD
ATOM     30   O  A00 X   2      63.615  57.536  69.9020  0.00  0.00     0.000 OA
ATOM     31   S  A00 X   2      64.651  58.342  69.3610  0.00  0.00     0.000 S
ATOM     32   O  A00 X   2      64.281  59.113  68.2150  0.00  0.00     0.000 OA
ATOM     33   O  A00 X   2      65.920  57.712  69.1470  0.00  0.00     0.000 OA
ENDBRANCH 21 30
BRANCH 24 34
ATOM     34   C  A00 X   2      69.105  61.583  72.8400  0.00  0.00     0.000 C
ATOM     35   O  A00 X   2      69.588  64.602  70.8630  0.00  0.00     0.000 OA
ATOM     36   O  A00 X   2      69.212  62.475  71.7120  0.00  0.00     0.000 O
ATOM     37   O  A00 X   2      67.658  64.165  72.1580  0.00  0.00     0.000 OA
ATOM     38   S  A00 X   2      69.076  64.004  72.0520  0.00  0.00     0.000 S
ATOM     39   O  A00 X   2      69.859  64.229  73.2300  0.00  0.00     0.000 OA
ENDBRANCH 24 34
BRANCH 20 40
ATOM     40  O4  A00 X   3      65.301  60.486  73.5390  0.00  0.00     0.000 O
BRANCH 40 44
ATOM     41  C1  A00 X   3      66.068  61.771  76.8390  0.00  0.00     0.000 C
ATOM     42  C2  A00 X   3      65.090  60.611  76.5510  0.00  0.00     0.000 C
ATOM     43  C3  A00 X   3      64.059  61.011  75.4630  0.00  0.00     0.000 C
ATOM     44  C4  A00 X   3      64.670  61.604  74.2000  0.00  0.00     0.000 C
ATOM     45  C5  A00 X   3      65.636  62.765  74.5700  0.00  0.00     0.000 C
ATOM     46  O5  A00 X   3      66.583  62.347  75.6060  0.00  0.00     0.000 O
ATOM     47   O  A00 X   3      63.049  60.045  75.1770  0.00  0.00     0.000 O
ATOM     49  HD  A00 X   3      63.181  60.314  74.3650  0.00  0.00     0.000 HD
BRANCH 42 49
ATOM     49   O  A00 X   3      65.885  59.480  76.1350  0.00  0.00     0.000 O
ATOM     50   O  A00 X   3      65.462  57.246  75.3860  0.00  0.00     0.000 OA
ATOM     51   O  A00 X   3      64.187  58.109  77.1800  0.00  0.00     0.000 OA
ATOM     52   O  A00 X   3      66.487  57.690  77.5300  0.00  0.00     0.000 OA
ATOM     53   S  A00 X   3      65.494  58.039  76.5740  0.00  0.00     0.000 S
ENDBRANCH 42 49
BRANCH 45 54
ATOM     54   C  A00 X   3      64.873  64.045  74.9310  0.00  0.00     0.000 C
ATOM     55   O  A00 X   3      63.670  64.023  75.0940  0.00  0.00     0.000 OA
ATOM     56   O  A00 X   3      65.460  65.108  75.0600  0.00  0.00     0.000 OA
ENDBRANCH 45 54
BRANCH 41 57
ATOM     57  O4  A00 X   4      65.495  62.740  77.7450  0.00  0.00     0.000 O
BRANCH 57 61
ATOM     58  C1  A00 X   4      67.196  65.260  80.8100  0.00  0.00     0.000 C
ATOM     59  C2  A00 X   4      67.671  65.448  79.3470  0.00  0.00     0.000 C
ATOM     60  C3  A00 X   4      66.756  64.765  78.3110  0.00  0.00     0.000 C
ATOM     61  C4  A00 X   4      66.426  63.310  78.7090  0.00  0.00     0.000 C
ATOM     62  C5  A00 X   4      65.770  63.379  80.1100  0.00  0.00     0.000 C
ATOM     63  O5  A00 X   4      66.728  63.915  81.0590  0.00  0.00     0.000 O
BRANCH 59 66
ATOM     64   N  A00 X   4      69.000  64.841  79.1540  0.00  0.00     0.000 N
ATOM     66  HD  A00 X   4      69.211  64.171  79.6610  0.00  0.00     0.000 HD
ATOM     66   O  A00 X   4      69.944  66.845  80.0980  0.00  0.00     0.000 OA
ATOM     67   S  A00 X   4      70.282  65.796  79.1880  0.00  0.00     0.000 S
ATOM     68   O  A00 X   4      71.279  64.876  79.6500  0.00  0.00     0.000 OA
ATOM     69   O  A00 X   4      70.388  66.127  77.7950  0.00  0.00     0.000 OA
ENDBRANCH 59 66
BRANCH 62 70
ATOM     70   C  A00 X   4      65.264  62.016  80.6390  0.00  0.00     0.000 C
ATOM     71   O  A00 X   4      67.196  59.149  81.7150  0.00  0.00     0.000 OA
ATOM     72   O  A00 X   4      65.371  59.302  80.2350  0.00  0.00     0.000 OA
ATOM     73   O  A00 X   4      66.371  61.275  81.1780  0.00  0.00     0.000 O
ATOM     74   O  A00 X   4      67.578  60.032  79.5040  0.00  0.00     0.000 OA
ATOM     75   S  A00 X   4      66.661  59.854  80.5840  0.00  0.00     0.000 S
ENDBRANCH 62 70
ENDBRANCH 57 61
ENDBRANCH 41 57
ENDBRANCH 40 44
ENDBRANCH 20 40
ENDBRANCH 19 23
ENDBRANCH 1 19
TORSDOF 14
ENDMDL
MODEL 41
REMARK VINA RESULT:      -1.0     46.918     52.738
ROOT
ATOM      1  C1  A00 X   1      42.115  13.710  69.1140  0.00  0.00     0.000 C
ATOM      2  C2  A00 X   1      42.781  12.369  69.5230  0.00  0.00     0.000 C
ATOM      3  C3  A00 X   1      42.082  11.069  69.0040  0.00  0.00     0.000 C
ATOM      4  C4  A00 X   1      40.638  11.252  68.4720  0.00  0.00     0.000 C
ATOM      5  C5  A00 X   1      39.971  12.508  69.0340  0.00  0.00     0.000 C
ATOM      6  O5  A00 X   1      40.784  13.602  68.5520  0.00  0.00     0.000 O
ATOM      7   O  A00 X   1      42.002  10.134  70.0780  0.00  0.00     0.000 O
ATOM      9  HD  A00 X   1      41.249  10.099  69.6520  0.00  0.00     0.000 HD
ATOM      9   O  A00 X   1      40.608  11.288  67.0450  0.00  0.00     0.000 O
ATOM     11  HD  A00 X   1      39.855  11.253  66.6190  0.00  0.00     0.000 HD
ENDROOT
BRANCH 2 11
ATOM     11   O  A00 X   1      44.141  12.392  69.0480  0.00  0.00     0.000 O
ATOM     12   O  A00 X   1      45.560  10.458  69.1660  0.00  0.00     0.000 OA
ATOM     13   O  A00 X   1      44.763  11.477  71.2260  0.00  0.00     0.000 OA
ATOM     14   O  A00 X   1      46.325  12.619  69.8420  0.00  0.00     0.000 OA
ATOM     15   S  A00 X   1      45.249  11.666  69.8870  0.00  0.00     0.000 S
ENDBRANCH 2 11
BRANCH 5 16
ATOM     16   C  A00 X   1      39.775  12.513  70.5530  0.00  0.00     0.000 C
ATOM     17   O  A00 X   1      39.450  13.550  71.0940  0.00  0.00     0.000 OA
ATOM     18   O  A00 X   1      39.926  11.517  71.2330  0.00  0.00     0.000 OA
ENDBRANCH 5 16
BRANCH 1 19
ATOM     19  O4  A00 X   2      42.166  14.705  70.1650  0.00  0.00     0.000 O
BRANCH 19 23
ATOM     20  C1  A00 X   2      42.936  17.953  67.4770  0.00  0.00     0.000 C
ATOM     21  C2  A00 X   2      44.150  17.317  68.1950  0.00  0.00     0.000 C
ATOM     22  C3  A00 X   2      43.787  15.930  68.7650  0.00  0.00     0.000 C
ATOM     23  C4  A00 X   2      42.537  16.023  69.6690  0.00  0.00     0.000 C
ATOM     24  C5  A00 X   2      41.403  16.691  68.8430  0.00  0.00     0.000 C
ATOM     25  O5  A00 X   2      41.842  18.012  68.4310  0.00  0.00     0.000 O
ATOM     26   O  A00 X   2      44.962  15.353  69.3600  0.00  0.00     0.000 O
ATOM     28  HD  A00 X   2      45.137  16.063  69.8250  0.00  0.00     0.000 HD
BRANCH 21 30
ATOM     28   N  A00 X   2      44.771  18.644  68.2410  0.00  0.00     0.000 N
ATOM     30  HD  A00 X   2      45.397  18.069  68.4060  0.00  0.00     0.000 HD
ATOM     30   O  A00 X   2      47.087  18.369  68.1110  0.00  0.00     0.000 OA
ATOM     31   S  A00 X   2      46.120  18.824  69.0450  0.00  0.00     0.000 S
ATOM     32   O  A00 X   2      46.163  20.226  69.3250  0.00  0.00     0.000 OA
ATOM     33   O  A00 X   2      45.990  18.078  70.2610  0.00  0.00     0.000 OA
ENDBRANCH 21 30
BRANCH 24 34
ATOM     34   C  A00 X   2      39.976  16.695  69.4400  0.00  0.00     0.000 C
ATOM     35   O  A00 X   2      38.148  19.713  70.3370  0.00  0.00     0.000 OA
ATOM     36   O  A00 X   2      39.654  17.977  70.0160  0.00  0.00     0.000 O
ATOM     37   O  A00 X   2      39.042  19.299  68.1870  0.00  0.00     0.000 OA
ATOM     38   S  A00 X   2      38.441  18.725  69.3520  0.00  0.00     0.000 S
ATOM     39   O  A00 X   2      37.418  17.742  69.1550  0.00  0.00     0.000 OA
ENDBRANCH 24 34
BRANCH 20 40
ATOM     40  O4  A00 X   3      42.598  17.051  66.4140  0.00  0.00     0.000 O
BRANCH 40 44
ATOM     41  C1  A00 X   3      40.012  15.309  64.5680  0.00  0.00     0.000 C
ATOM     42  C2  A00 X   3      41.527  15.174  64.3010  0.00  0.00     0.000 C
ATOM     43  C3  A00 X   3      42.191  16.567  64.1510  0.00  0.00     0.000 C
ATOM     44  C4  A00 X   3      41.867  17.547  65.2720  0.00  0.00     0.000 C
ATOM     45  C5  A00 X   3      40.328  17.632  65.4760  0.00  0.00     0.000 C
ATOM     46  O5  A00 X   3      39.743  16.295  65.6030  0.00  0.00     0.000 O
ATOM     47   O  A00 X   3      43.577  16.564  63.8150  0.00  0.00     0.000 O
ATOM     49  HD  A00 X   3      43.598  17.228  64.3710  0.00  0.00     0.000 HD
BRANCH 42 49
ATOM     49   O  A00 X   3      42.088  14.439  65.4100  0.00  0.00     0.000 O
ATOM     50   O  A00 X   3      44.269  13.717  66.0850  0.00  0.00     0.000 OA
ATOM     51   O  A00 X   3      43.662  13.540  63.8060  0.00  0.00     0.000 OA
ATOM     52   O  A00 X   3      42.577  12.142  65.3740  0.00  0.00     0.000 OA
ATOM     53   S  A00 X   3      43.219  13.395  65.1710  0.00  0.00     0.000 S
ENDBRANCH 42 49
BRANCH 45 54
ATOM     54   C  A00 X   3      39.658  18.484  64.3920  0.00  0.00     0.000 C
ATOM     55   O  A00 X   3      38.474  18.745  64.4540  0.00  0.00     0.000 OA
ATOM     56   O  A00 X   3      40.301  18.914  63.4470  0.00  0.00     0.000 OA
ENDBRANCH 45 54
BRANCH 41 57
ATOM     57  O4  A00 X   4      39.272  15.524  63.3460  0.00  0.00     0.000 O
BRANCH 57 61
ATOM     58  C1  A00 X   4      35.333  14.326  62.0460  0.00  0.00     0.000 C
ATOM     59  C2  A00 X   4      35.456  15.250  63.2840  0.00  0.00     0.000 C
ATOM     60  C3  A00 X   4      36.850  15.893  63.4340  0.00  0.00     0.000 C
ATOM     61  C4  A00 X   4      37.981  14.854  63.2790  0.00  0.00     0.000 C
ATOM     62  C5  A00 X   4      37.786  14.202  61.8880  0.00  0.00     0.000 C
ATOM     63  O5  A00 X   4      36.511  13.510  61.8590  0.00  0.00     0.000 O
BRANCH 59 66
ATOM     64   N  A00 X   4      35.246  14.487  64.5280  0.00  0.00     0.000 N
ATOM     66  HD  A00 X   4      35.451  13.646  64.5210  0.00  0.00     0.000 HD
ATOM     66   O  A00 X   4      32.879  14.706  64.1440  0.00  0.00     0.000 OA
ATOM     67   S  A00 X   4      33.806  14.550  65.2210  0.00  0.00     0.000 S
ATOM     68   O  A00 X   4      33.780  13.277  65.8790  0.00  0.00     0.000 OA
ATOM     69   O  A00 X   4      33.999  15.665  66.1050  0.00  0.00     0.000 OA
ENDBRANCH 59 66
BRANCH 62 70
ATOM     70   C  A00 X   4      38.898  13.200  61.4980  0.00  0.00     0.000 C
ATOM     71   O  A00 X   4      39.595   9.936  62.9020  0.00  0.00     0.000 OA
ATOM     72   O  A00 X   4      41.024  11.757  62.4680  0.00  0.00     0.000 OA
ATOM     73   O  A00 X   4      38.648  11.939  62.1400  0.00  0.00     0.000 O
ATOM     74   O  A00 X   4      39.520  11.837  64.3840  0.00  0.00     0.000 OA
ATOM     75   S  A00 X   4      39.771  11.352  63.0650  0.00  0.00     0.000 S
ENDBRANCH 62 70
ENDBRANCH 57 61
ENDBRANCH 41 57
ENDBRANCH 40 44
ENDBRANCH 20 40
ENDBRANCH 19 23
ENDBRANCH 1 19
TORSDOF 14
ENDMDL
MODEL 42
REMARK VINA RESULT:      -1.0     43.493     51.027
ROOT
ATOM      1  C1  A00 X   1      51.027  54.515  40.8730  0.00  0.00     0.000 C
ATOM      2  C2  A00 X   1      52.562  54.670  41.0410  0.00  0.00     0.000 C
ATOM      3  C3  A00 X   1      53.444  54.016  39.9270  0.00  0.00     0.000 C
ATOM      4  C4  A00 X   1      52.718  52.998  39.0100  0.00  0.00     0.000 C
ATOM      5  C5  A00 X   1      51.468  52.416  39.6710  0.00  0.00     0.000 C
ATOM      6  O5  A00 X   1      50.600  53.552  39.8780  0.00  0.00     0.000 O
ATOM      7   O  A00 X   1      54.516  53.309  40.5480  0.00  0.00     0.000 O
ATOM      9  HD  A00 X   1      54.227  52.815  39.8980  0.00  0.00     0.000 HD
ATOM      9   O  A00 X   1      52.373  53.580  37.7540  0.00  0.00     0.000 O
ATOM     11  HD  A00 X   1      52.084  53.086  37.1040  0.00  0.00     0.000 HD
ENDROOT
BRANCH 2 11
ATOM     11   O  A00 X   1      52.856  56.079  41.1060  0.00  0.00     0.000 O
ATOM     12   O  A00 X   1      55.111  56.907  41.1070  0.00  0.00     0.000 OA
ATOM     13   O  A00 X   1      54.345  55.534  42.9640  0.00  0.00     0.000 OA
ATOM     14   O  A00 X   1      53.473  57.724  42.6440  0.00  0.00     0.000 OA
ATOM     15   S  A00 X   1      54.041  56.565  42.0100  0.00  0.00     0.000 S
ENDBRANCH 2 11
BRANCH 5 16
ATOM     16   C  A00 X   1      51.727  51.602  40.9430  0.00  0.00     0.000 C
ATOM     17   O  A00 X   1      50.780  51.291  41.6360  0.00  0.00     0.000 OA
ATOM     18   O  A00 X   1      52.841  51.252  41.2770  0.00  0.00     0.000 OA
ENDBRANCH 5 16
BRANCH 1 19
ATOM     19  O4  A00 X   2      50.342  54.312  42.1330  0.00  0.00     0.000 O
BRANCH 19 23
ATOM     20  C1  A00 X   2      47.005  56.781  41.0720  0.00  0.00     0.000 C
ATOM     21  C2  A00 X   2      48.120  57.420  41.9340  0.00  0.00     0.000 C
ATOM     22  C3  A00 X   2      49.414  56.582  41.8670  0.00  0.00     0.000 C
ATOM     23  C4  A00 X   2      49.130  55.111  42.2460  0.00  0.00     0.000 C
ATOM     24  C5  A00 X   2      47.988  54.596  41.3280  0.00  0.00     0.000 C
ATOM     25  O5  A00 X   2      46.812  55.420  41.5390  0.00  0.00     0.000 O
ATOM     26   O  A00 X   2      50.436  57.250  42.6260  0.00  0.00     0.000 O
ATOM     28  HD  A00 X   2      49.929  57.345  43.3210  0.00  0.00     0.000 HD
BRANCH 21 30
ATOM     28   N  A00 X   2      47.090  58.209  42.6160  0.00  0.00     0.000 N
ATOM     30  HD  A00 X   2      47.851  58.577  42.8010  0.00  0.00     0.000 HD
ATOM     30   O  A00 X   2      48.033  60.254  43.2390  0.00  0.00     0.000 OA
ATOM     31   S  A00 X   2      47.508  59.090  43.8600  0.00  0.00     0.000 S
ATOM     32   O  A00 X   2      46.279  59.285  44.5650  0.00  0.00     0.000 OA
ATOM     33   O  A00 X   2      48.414  58.308  44.6460  0.00  0.00     0.000 OA
ENDBRANCH 21 30
BRANCH 24 34
ATOM     34   C  A00 X   2      47.668  53.083  41.3460  0.00  0.00     0.000 C
ATOM     35   O  A00 X   2      44.501  51.679  42.4660  0.00  0.00     0.000 OA
ATOM     36   O  A00 X   2      46.508  52.804  42.1540  0.00  0.00     0.000 O
ATOM     37   O  A00 X   2      44.696  53.310  40.7640  0.00  0.00     0.000 OA
ATOM     38   S  A00 X   2      45.293  52.167  41.3850  0.00  0.00     0.000 S
ATOM     39   O  A00 X   2      45.839  51.157  40.5290  0.00  0.00     0.000 OA
ENDBRANCH 24 34
BRANCH 20 40
ATOM     40  O4  A00 X   3      47.515  56.760  39.7310  0.00  0.00     0.000 O
BRANCH 40 44
ATOM     41  C1  A00 X   3      47.953  54.894  36.6570  0.00  0.00     0.000 C
ATOM     42  C2  A00 X   3      48.486  56.322  36.9030  0.00  0.00     0.000 C
ATOM     43  C3  A00 X   3      47.364  57.249  37.4380  0.00  0.00     0.000 C
ATOM     44  C4  A00 X   3      46.591  56.687  38.6240  0.00  0.00     0.000 C
ATOM     45  C5  A00 X   3      46.084  55.254  38.2990  0.00  0.00     0.000 C
ATOM     46  O5  A00 X   3      47.173  54.418  37.7880  0.00  0.00     0.000 O
ATOM     47   O  A00 X   3      47.721  58.618  37.6200  0.00  0.00     0.000 O
ATOM     49  HD  A00 X   3      47.228  58.535  38.3270  0.00  0.00     0.000 HD
BRANCH 42 49
ATOM     49   O  A00 X   3      49.574  56.211  37.8470  0.00  0.00     0.000 O
ATOM     50   O  A00 X   3      51.047  57.721  38.9780  0.00  0.00     0.000 OA
ATOM     51   O  A00 X   3      50.548  58.106  36.7000  0.00  0.00     0.000 OA
ATOM     52   O  A00 X   3      51.849  56.216  37.2640  0.00  0.00     0.000 OA
ATOM     53   S  A00 X   3      50.835  57.112  37.7030  0.00  0.00     0.000 S
ENDBRANCH 42 49
BRANCH 45 54
ATOM     54   C  A00 X   3      44.860  55.281  37.3760  0.00  0.00     0.000 C
ATOM     55   O  A00 X   3      44.235  54.265  37.1470  0.00  0.00     0.000 OA
ATOM     56   O  A00 X   3      44.493  56.322  36.8540  0.00  0.00     0.000 OA
ENDBRANCH 45 54
BRANCH 41 57
ATOM     57  O4  A00 X   4      47.271  54.790  35.3880  0.00  0.00     0.000 O
BRANCH 57 61
ATOM     58  C1  A00 X   4      46.909  51.603  32.4980  0.00  0.00     0.000 C
ATOM     59  C2  A00 X   4      46.353  51.376  33.9260  0.00  0.00     0.000 C
ATOM     60  C3  A00 X   4      46.211  52.675  34.7440  0.00  0.00     0.000 C
ATOM     61  C4  A00 X   4      47.486  53.542  34.6700  0.00  0.00     0.000 C
ATOM     62  C5  A00 X   4      47.736  53.823  33.1680  0.00  0.00     0.000 C
ATOM     63  O5  A00 X   4      47.985  52.569  32.4820  0.00  0.00     0.000 O
BRANCH 59 66
ATOM     64   N  A00 X   4      47.261  50.521  34.7130  0.00  0.00     0.000 N
ATOM     66  HD  A00 X   4      48.103  50.542  34.5130  0.00  0.00     0.000 HD
ATOM     66   O  A00 X   4      46.258  48.623  33.6210  0.00  0.00     0.000 OA
ATOM     67   S  A00 X   4      46.911  48.966  34.8450  0.00  0.00     0.000 S
ATOM     68   O  A00 X   4      48.226  48.420  35.0180  0.00  0.00     0.000 OA
ATOM     69   O  A00 X   4      46.121  48.986  36.0430  0.00  0.00     0.000 OA
ENDBRANCH 59 66
BRANCH 62 70
ATOM     70   C  A00 X   4      48.921  54.778  32.8910  0.00  0.00     0.000 C
ATOM     71   O  A00 X   4      52.463  54.173  33.3340  0.00  0.00     0.000 OA
ATOM     72   O  A00 X   4      51.116  55.976  34.0280  0.00  0.00     0.000 OA
ATOM     73   O  A00 X   4      50.152  54.042  32.9710  0.00  0.00     0.000 O
ATOM     74   O  A00 X   4      50.995  53.854  35.2200  0.00  0.00     0.000 OA
ATOM     75   S  A00 X   4      51.238  54.535  33.9900  0.00  0.00     0.000 S
ENDBRANCH 62 70
ENDBRANCH 57 61
ENDBRANCH 41 57
ENDBRANCH 40 44
ENDBRANCH 20 40
ENDBRANCH 19 23
ENDBRANCH 1 19
TORSDOF 14
ENDMDL
MODEL 43
REMARK VINA RESULT:      -1.0     45.527     50.752
ROOT
ATOM      1  C1  A00 X   1      39.420  58.827  36.5190  0.00  0.00     0.000 C
ATOM      2  C2  A00 X   1      40.192  58.592  37.8450  0.00  0.00     0.000 C
ATOM      3  C3  A00 X   1      41.573  59.315  37.9740  0.00  0.00     0.000 C
ATOM      4  C4  A00 X   1      42.165  59.865  36.6510  0.00  0.00     0.000 C
ATOM      5  C5  A00 X   1      41.597  59.152  35.4240  0.00  0.00     0.000 C
ATOM      6  O5  A00 X   1      40.182  59.444  35.4520  0.00  0.00     0.000 O
ATOM      7   O  A00 X   1      42.527  58.390  38.4910  0.00  0.00     0.000 O
ATOM      9  HD  A00 X   1      42.922  58.843  37.8670  0.00  0.00     0.000 HD
ATOM      9   O  A00 X   1      41.956  61.272  36.5310  0.00  0.00     0.000 O
ATOM     11  HD  A00 X   1      42.351  61.724  35.9070  0.00  0.00     0.000 HD
ENDROOT
BRANCH 2 11
ATOM     11   O  A00 X   1      39.340  59.011  38.9290  0.00  0.00     0.000 O
ATOM     12   O  A00 X   1      40.133  59.138  41.1920  0.00  0.00     0.000 OA
ATOM     13   O  A00 X   1      40.047  56.976  40.0800  0.00  0.00     0.000 OA
ATOM     14   O  A00 X   1      38.040  58.118  40.6510  0.00  0.00     0.000 OA
ATOM     15   S  A00 X   1      39.428  58.254  40.2990  0.00  0.00     0.000 S
ENDBRANCH 2 11
BRANCH 5 16
ATOM     16   C  A00 X   1      41.913  57.656  35.3400  0.00  0.00     0.000 C
ATOM     17   O  A00 X   1      41.325  56.982  34.5190  0.00  0.00     0.000 OA
ATOM     18   O  A00 X   1      42.734  57.122  36.0590  0.00  0.00     0.000 OA
ENDBRANCH 5 16
BRANCH 1 19
ATOM     19  O4  A00 X   2      38.726  57.642  36.0560  0.00  0.00     0.000 O
BRANCH 19 23
ATOM     20  C1  A00 X   2      35.268  59.807  34.7460  0.00  0.00     0.000 C
ATOM     21  C2  A00 X   2      35.203  59.133  36.1370  0.00  0.00     0.000 C
ATOM     22  C3  A00 X   2      36.618  58.782  36.6440  0.00  0.00     0.000 C
ATOM     23  C4  A00 X   2      37.374  57.930  35.5990  0.00  0.00     0.000 C
ATOM     24  C5  A00 X   2      37.351  58.703  34.2510  0.00  0.00     0.000 C
ATOM     25  O5  A00 X   2      35.971  58.905  33.8510  0.00  0.00     0.000 O
ATOM     26   O  A00 X   2      36.510  58.223  37.9640  0.00  0.00     0.000 O
ATOM     28  HD  A00 X   2      35.900  57.655  37.7280  0.00  0.00     0.000 HD
BRANCH 21 30
ATOM     28   N  A00 X   2      33.780  58.872  35.9040  0.00  0.00     0.000 N
ATOM     30  HD  A00 X   2      33.919  58.763  36.7520  0.00  0.00     0.000 HD
ATOM     30   O  A00 X   2      32.680  58.938  37.9640  0.00  0.00     0.000 OA
ATOM     31   S  A00 X   2      32.988  57.991  36.9510  0.00  0.00     0.000 S
ATOM     32   O  A00 X   2      31.863  57.513  36.2100  0.00  0.00     0.000 OA
ATOM     33   O  A00 X   2      33.842  56.901  37.3190  0.00  0.00     0.000 OA
ENDBRANCH 21 30
BRANCH 24 34
ATOM     34   C  A00 X   2      38.236  58.175  33.0980  0.00  0.00     0.000 C
ATOM     35   O  A00 X   2      37.986  54.821  31.7040  0.00  0.00     0.000 OA
ATOM     36   O  A00 X   2      38.165  56.739  32.9990  0.00  0.00     0.000 O
ATOM     37   O  A00 X   2      36.174  56.334  31.8410  0.00  0.00     0.000 OA
ATOM     38   S  A00 X   2      37.584  56.188  31.6450  0.00  0.00     0.000 S
ATOM     39   O  A00 X   2      38.192  56.956  30.6010  0.00  0.00     0.000 OA
ENDBRANCH 24 34
BRANCH 20 40
ATOM     40  O4  A00 X   3      36.042  61.002  34.9290  0.00  0.00     0.000 O
BRANCH 40 44
ATOM     41  C1  A00 X   3      38.689  63.132  33.6720  0.00  0.00     0.000 C
ATOM     42  C2  A00 X   3      37.910  63.376  34.9830  0.00  0.00     0.000 C
ATOM     43  C3  A00 X   3      36.380  63.319  34.7390  0.00  0.00     0.000 C
ATOM     44  C4  A00 X   3      35.905  62.084  33.9830  0.00  0.00     0.000 C
ATOM     45  C5  A00 X   3      36.731  61.909  32.6770  0.00  0.00     0.000 C
ATOM     46  O5  A00 X   3      38.167  61.980  32.9530  0.00  0.00     0.000 O
ATOM     47   O  A00 X   3      35.558  63.616  35.8650  0.00  0.00     0.000 O
ATOM     49  HD  A00 X   3      35.075  62.976  35.5400  0.00  0.00     0.000 HD
BRANCH 42 49
ATOM     49   O  A00 X   3      38.333  62.363  35.9210  0.00  0.00     0.000 O
ATOM     50   O  A00 X   3      37.767  61.729  38.1590  0.00  0.00     0.000 OA
ATOM     51   O  A00 X   3      37.957  64.027  37.6380  0.00  0.00     0.000 OA
ATOM     52   O  A00 X   3      39.914  62.703  37.6240  0.00  0.00     0.000 OA
ATOM     53   S  A00 X   3      38.506  62.711  37.4290  0.00  0.00     0.000 S
ENDBRANCH 42 49
BRANCH 45 54
ATOM     54   C  A00 X   3      36.278  62.884  31.5840  0.00  0.00     0.000 C
ATOM     55   O  A00 X   3      36.700  62.783  30.4510  0.00  0.00     0.000 OA
ATOM     56   O  A00 X   3      35.486  63.780  31.8340  0.00  0.00     0.000 OA
ENDBRANCH 45 54
BRANCH 41 57
ATOM     57  O4  A00 X   4      38.778  64.332  32.8720  0.00  0.00     0.000 O
BRANCH 57 61
ATOM     58  C1  A00 X   4      41.817  65.885  30.2290  0.00  0.00     0.000 C
ATOM     59  C2  A00 X   4      41.155  64.529  29.8810  0.00  0.00     0.000 C
ATOM     60  C3  A00 X   4      39.861  64.255  30.6740  0.00  0.00     0.000 C
ATOM     61  C4  A00 X   4      40.046  64.524  32.1830  0.00  0.00     0.000 C
ATOM     62  C5  A00 X   4      40.508  65.996  32.3100  0.00  0.00     0.000 C
ATOM     63  O5  A00 X   4      41.790  66.153  31.6490  0.00  0.00     0.000 O
BRANCH 59 66
ATOM     64   N  A00 X   4      42.078  63.433  30.2270  0.00  0.00     0.000 N
ATOM     66  HD  A00 X   4      42.649  63.576  30.8620  0.00  0.00     0.000 HD
ATOM     66   O  A00 X   4      43.168  63.818  28.1140  0.00  0.00     0.000 OA
ATOM     67   S  A00 X   4      42.935  62.765  29.0530  0.00  0.00     0.000 S
ATOM     68   O  A00 X   4      44.086  62.329  29.7890  0.00  0.00     0.000 OA
ATOM     69   O  A00 X   4      42.049  61.705  28.6640  0.00  0.00     0.000 OA
ENDBRANCH 59 66
BRANCH 62 70
ATOM     70   C  A00 X   4      40.644  66.492  33.7700  0.00  0.00     0.000 C
ATOM     71   O  A00 X   4      43.084  65.534  36.2660  0.00  0.00     0.000 OA
ATOM     72   O  A00 X   4      40.737  65.676  36.3900  0.00  0.00     0.000 OA
ATOM     73   O  A00 X   4      41.893  66.036  34.3120  0.00  0.00     0.000 O
ATOM     74   O  A00 X   4      41.769  63.806  35.2170  0.00  0.00     0.000 OA
ATOM     75   S  A00 X   4      41.853  65.173  35.6210  0.00  0.00     0.000 S
ENDBRANCH 62 70
ENDBRANCH 57 61
ENDBRANCH 41 57
ENDBRANCH 40 44
ENDBRANCH 20 40
ENDBRANCH 19 23
ENDBRANCH 1 19
TORSDOF 14
ENDMDL
MODEL 44
REMARK VINA RESULT:      -1.0     87.243     92.763
ROOT
ATOM      1  C1  A00 X   1      91.139  49.805  73.7420  0.00  0.00     0.000 C
ATOM      2  C2  A00 X   1      92.546  49.384  73.2390  0.00  0.00     0.000 C
ATOM      3  C3  A00 X   1      93.607  49.074  74.3460  0.00  0.00     0.000 C
ATOM      4  C4  A00 X   1      93.251  49.571  75.7710  0.00  0.00     0.000 C
ATOM      5  C5  A00 X   1      92.235  50.713  75.7470  0.00  0.00     0.000 C
ATOM      6  O5  A00 X   1      91.051  50.139  75.1490  0.00  0.00     0.000 O
ATOM      7   O  A00 X   1      94.835  49.706  73.9930  0.00  0.00     0.000 O
ATOM      9  HD  A00 X   1      94.726  49.819  74.8440  0.00  0.00     0.000 HD
ATOM      9   O  A00 X   1      92.761  48.507  76.5880  0.00  0.00     0.000 O
ATOM     11  HD  A00 X   1      92.652  48.620  77.4390  0.00  0.00     0.000 HD
ENDROOT
BRANCH 2 11
ATOM     11   O  A00 X   1      92.384  48.220  72.4060  0.00  0.00     0.000 O
ATOM     12   O  A00 X   1      94.265  46.986  71.5670  0.00  0.00     0.000 OA
ATOM     13   O  A00 X   1      93.940  49.290  70.8570  0.00  0.00     0.000 OA
ATOM     14   O  A00 X   1      92.431  47.589  70.1580  0.00  0.00     0.000 OA
ATOM     15   S  A00 X   1      93.343  48.024  71.1820  0.00  0.00     0.000 S
ENDBRANCH 2 11
BRANCH 5 16
ATOM     16   C  A00 X   1      92.714  51.992  75.0530  0.00  0.00     0.000 C
ATOM     17   O  A00 X   1      91.901  52.858  74.8050  0.00  0.00     0.000 OA
ATOM     18   O  A00 X   1      93.877  52.171  74.7480  0.00  0.00     0.000 OA
ENDBRANCH 5 16
BRANCH 1 19
ATOM     19  O4  A00 X   2      90.532  50.829  72.9170  0.00  0.00     0.000 O
BRANCH 19 23
ATOM     20  C1  A00 X   2      86.613  49.109  73.1280  0.00  0.00     0.000 C
ATOM     21  C2  A00 X   2      87.464  48.796  71.8730  0.00  0.00     0.000 C
ATOM     22  C3  A00 X   2      88.954  49.104  72.1300  0.00  0.00     0.000 C
ATOM     23  C4  A00 X   2      89.131  50.556  72.6280  0.00  0.00     0.000 C
ATOM     24  C5  A00 X   2      88.217  50.747  73.8690  0.00  0.00     0.000 C
ATOM     25  O5  A00 X   2      86.841  50.500  73.4790  0.00  0.00     0.000 O
ATOM     26   O  A00 X   2      89.709  48.733  70.9640  0.00  0.00     0.000 O
ATOM     28  HD  A00 X   2      89.187  49.166  70.4260  0.00  0.00     0.000 HD
BRANCH 21 30
ATOM     28   N  A00 X   2      86.231  48.798  71.0810  0.00  0.00     0.000 N
ATOM     30  HD  A00 X   2      86.839  48.416  70.5970  0.00  0.00     0.000 HD
ATOM     30   O  A00 X   2      86.488  47.274  69.3290  0.00  0.00     0.000 OA
ATOM     31   S  A00 X   2      86.338  48.674  69.5090  0.00  0.00     0.000 S
ATOM     32   O  A00 X   2      85.099  49.214  69.0410  0.00  0.00     0.000 OA
ATOM     33   O  A00 X   2      87.431  49.503  69.0930  0.00  0.00     0.000 OA
ENDBRANCH 21 30
BRANCH 24 34
ATOM     34   C  A00 X   2      88.379  52.044  74.6970  0.00  0.00     0.000 C
ATOM     35   O  A00 X   2      87.994  55.397  73.3330  0.00  0.00     0.000 OA
ATOM     36   O  A00 X   2      88.523  53.195  73.8420  0.00  0.00     0.000 O
ATOM     37   O  A00 X   2      86.336  53.717  73.1960  0.00  0.00     0.000 OA
ATOM     38   S  A00 X   2      87.392  54.279  73.9810  0.00  0.00     0.000 S
ATOM     39   O  A00 X   2      87.160  54.444  75.3850  0.00  0.00     0.000 OA
ENDBRANCH 24 34
BRANCH 20 40
ATOM     40  O4  A00 X   3      87.126  48.262  74.1660  0.00  0.00     0.000 O
BRANCH 40 44
ATOM     41  C1  A00 X   3      88.173  47.967  77.6220  0.00  0.00     0.000 C
ATOM     42  C2  A00 X   3      88.232  46.825  76.5830  0.00  0.00     0.000 C
ATOM     43  C3  A00 X   3      86.869  46.658  75.8640  0.00  0.00     0.000 C
ATOM     44  C4  A00 X   3      86.288  47.948  75.3000  0.00  0.00     0.000 C
ATOM     45  C5  A00 X   3      86.257  49.044  76.4020  0.00  0.00     0.000 C
ATOM     46  O5  A00 X   3      87.559  49.160  77.0610  0.00  0.00     0.000 O
ATOM     47   O  A00 X   3      86.781  45.573  74.9420  0.00  0.00     0.000 O
ATOM     49  HD  A00 X   3      86.325  46.148  74.4820  0.00  0.00     0.000 HD
BRANCH 42 49
ATOM     49   O  A00 X   3      89.285  47.156  75.6510  0.00  0.00     0.000 O
ATOM     50   O  A00 X   3      90.197  46.196  73.6570  0.00  0.00     0.000 OA
ATOM     51   O  A00 X   3      89.641  44.770  75.4580  0.00  0.00     0.000 OA
ATOM     52   O  A00 X   3      91.455  46.262  75.7210  0.00  0.00     0.000 OA
ATOM     53   S  A00 X   3      90.206  46.040  75.0770  0.00  0.00     0.000 S
ENDBRANCH 42 49
BRANCH 45 54
ATOM     54   C  A00 X   3      85.100  48.826  77.3860  0.00  0.00     0.000 C
ATOM     55   O  A00 X   3      84.822  49.672  78.2110  0.00  0.00     0.000 OA
ATOM     56   O  A00 X   3      84.440  47.799  77.3570  0.00  0.00     0.000 OA
ENDBRANCH 45 54
BRANCH 41 57
ATOM     57  O4  A00 X   4      87.578  47.528  78.8630  0.00  0.00     0.000 O
BRANCH 57 61
ATOM     58  C1  A00 X   4      88.254  48.607  82.9880  0.00  0.00     0.000 C
ATOM     59  C2  A00 X   4      87.770  49.702  82.0060  0.00  0.00     0.000 C
ATOM     60  C3  A00 X   4      87.224  49.138  80.6780  0.00  0.00     0.000 C
ATOM     61  C4  A00 X   4      88.176  48.088  80.0670  0.00  0.00     0.000 C
ATOM     62  C5  A00 X   4      88.354  46.985  81.1400  0.00  0.00     0.000 C
ATOM     63  O5  A00 X   4      88.985  47.558  82.3130  0.00  0.00     0.000 O
BRANCH 59 66
ATOM     64   N  A00 X   4      88.895  50.577  81.6310  0.00  0.00     0.000 N
ATOM     66  HD  A00 X   4      89.691  50.235  81.6490  0.00  0.00     0.000 HD
ATOM     66   O  A00 X   4      88.524  51.769  83.6900  0.00  0.00     0.000 OA
ATOM     67   S  A00 X   4      89.039  51.986  82.3740  0.00  0.00     0.000 S
ATOM     68   O  A00 X   4      90.458  52.178  82.2910  0.00  0.00     0.000 OA
ATOM     69   O  A00 X   4      88.280  52.820  81.4860  0.00  0.00     0.000 OA
ENDBRANCH 59 66
BRANCH 62 70
ATOM     70   C  A00 X   4      89.196  45.775  80.6690  0.00  0.00     0.000 C
ATOM     71   O  A00 X   4      92.742  45.632  79.9490  0.00  0.00     0.000 OA
ATOM     72   O  A00 X   4      90.891  44.884  78.7000  0.00  0.00     0.000 OA
ATOM     73   O  A00 X   4      90.592  46.109  80.7480  0.00  0.00     0.000 O
ATOM     74   O  A00 X   4      91.396  47.266  78.7940  0.00  0.00     0.000 OA
ATOM     75   S  A00 X   4      91.449  45.994  79.4400  0.00  0.00     0.000 S
ENDBRANCH 62 70
ENDBRANCH 57 61
ENDBRANCH 41 57
ENDBRANCH 40 44
ENDBRANCH 20 40
ENDBRANCH 19 23
ENDBRANCH 1 19
TORSDOF 14
ENDMDL
MODEL 45
REMARK VINA RESULT:      -1.0     68.188     73.513
ROOT
ATOM      1  C1  A00 X   1      50.887  74.993  53.4280  0.00  0.00     0.000 C
ATOM      2  C2  A00 X   1      50.378  75.879  54.5960  0.00  0.00     0.000 C
ATOM      3  C3  A00 X   1      50.984  77.318  54.6820  0.00  0.00     0.000 C
ATOM      4  C4  A00 X   1      52.262  77.558  53.8370  0.00  0.00     0.000 C
ATOM      5  C5  A00 X   1      52.996  76.255  53.5200  0.00  0.00     0.000 C
ATOM      6  O5  A00 X   1      52.059  75.487  52.7320  0.00  0.00     0.000 O
ATOM      7   O  A00 X   1      51.338  77.586  56.0370  0.00  0.00     0.000 O
ATOM      9  HD  A00 X   1      51.975  77.898  55.5400  0.00  0.00     0.000 HD
ATOM      9   O  A00 X   1      51.964  78.250  52.6250  0.00  0.00     0.000 O
ATOM     11  HD  A00 X   1      52.601  78.562  52.1280  0.00  0.00     0.000 HD
ENDROOT
BRANCH 2 11
ATOM     11   O  A00 X   1      48.946  75.978  54.4790  0.00  0.00     0.000 O
ATOM     12   O  A00 X   1      47.654  77.429  55.8910  0.00  0.00     0.000 OA
ATOM     13   O  A00 X   1      48.865  75.570  56.8860  0.00  0.00     0.000 OA
ATOM     14   O  A00 X   1      46.994  75.170  55.4740  0.00  0.00     0.000 OA
ATOM     15   S  A00 X   1      48.082  76.057  55.7850  0.00  0.00     0.000 S
ENDBRANCH 2 11
BRANCH 5 16
ATOM     16   C  A00 X   1      53.533  75.501  54.7410  0.00  0.00     0.000 C
ATOM     17   O  A00 X   1      53.952  74.372  54.5880  0.00  0.00     0.000 OA
ATOM     18   O  A00 X   1      53.561  75.994  55.8510  0.00  0.00     0.000 OA
ENDBRANCH 5 16
BRANCH 1 19
ATOM     19  O4  A00 X   2      51.044  73.603  53.8040  0.00  0.00     0.000 O
BRANCH 19 23
ATOM     20  C1  A00 X   2      49.541  72.111  50.0790  0.00  0.00     0.000 C
ATOM     21  C2  A00 X   2      48.561  72.163  51.2750  0.00  0.00     0.000 C
ATOM     22  C3  A00 X   2      49.093  73.098  52.3810  0.00  0.00     0.000 C
ATOM     23  C4  A00 X   2      50.524  72.689  52.7960  0.00  0.00     0.000 C
ATOM     24  C5  A00 X   2      51.399  72.656  51.5130  0.00  0.00     0.000 C
ATOM     25  O5  A00 X   2      50.835  71.690  50.5880  0.00  0.00     0.000 O
ATOM     26   O  A00 X   2      48.118  73.166  53.4360  0.00  0.00     0.000 O
ATOM     28  HD  A00 X   2      48.044  72.305  53.4910  0.00  0.00     0.000 HD
BRANCH 21 30
ATOM     28   N  A00 X   2      47.932  70.941  50.7630  0.00  0.00     0.000 N
ATOM     30  HD  A00 X   2      47.384  71.283  51.3400  0.00  0.00     0.000 HD
ATOM     30   O  A00 X   2      45.665  71.000  51.3240  0.00  0.00     0.000 OA
ATOM     31   S  A00 X   2      46.820  70.237  51.6380  0.00  0.00     0.000 S
ATOM     32   O  A00 X   2      46.807  68.892  51.1510  0.00  0.00     0.000 OA
ATOM     33   O  A00 X   2      47.268  70.268  52.9990  0.00  0.00     0.000 OA
ENDBRANCH 21 30
BRANCH 24 34
ATOM     34   C  A00 X   2      52.929  72.498  51.6820  0.00  0.00     0.000 C
ATOM     35   O  A00 X   2      54.844  69.680  50.3960  0.00  0.00     0.000 OA
ATOM     36   O  A00 X   2      53.350  71.149  51.3960  0.00  0.00     0.000 O
ATOM     37   O  A00 X   2      53.459  71.056  49.0610  0.00  0.00     0.000 OA
ATOM     38   S  A00 X   2      54.342  70.999  50.1850  0.00  0.00     0.000 S
ATOM     39   O  A00 X   2      55.310  72.045  50.3230  0.00  0.00     0.000 OA
ENDBRANCH 24 34
BRANCH 20 40
ATOM     40  O4  A00 X   3      49.632  73.458  49.5920  0.00  0.00     0.000 O
BRANCH 40 44
ATOM     41  C1  A00 X   3      51.724  76.160  48.3900  0.00  0.00     0.000 C
ATOM     42  C2  A00 X   3      50.194  76.248  48.5770  0.00  0.00     0.000 C
ATOM     43  C3  A00 X   3      49.480  75.061  47.8810  0.00  0.00     0.000 C
ATOM     44  C4  A00 X   3      50.046  73.689  48.2290  0.00  0.00     0.000 C
ATOM     45  C5  A00 X   3      51.586  73.678  48.0100  0.00  0.00     0.000 C
ATOM     46  O5  A00 X   3      52.216  74.821  48.6750  0.00  0.00     0.000 O
ATOM     47   O  A00 X   3      48.055  75.085  47.9150  0.00  0.00     0.000 O
ATOM     49  HD  A00 X   3      48.155  74.233  48.0350  0.00  0.00     0.000 HD
BRANCH 42 49
ATOM     49   O  A00 X   3      49.942  76.255  49.9990  0.00  0.00     0.000 O
ATOM     50   O  A00 X   3      48.014  76.314  51.4170  0.00  0.00     0.000 OA
ATOM     51   O  A00 X   3      48.058  77.688  49.4930  0.00  0.00     0.000 OA
ATOM     52   O  A00 X   3      49.535  78.188  51.2690  0.00  0.00     0.000 OA
ATOM     53   S  A00 X   3      48.823  77.158  50.5950  0.00  0.00     0.000 S
ENDBRANCH 42 49
BRANCH 45 54
ATOM     54   C  A00 X   3      51.947  73.570  46.5240  0.00  0.00     0.000 C
ATOM     55   O  A00 X   3      53.104  73.456  46.1750  0.00  0.00     0.000 OA
ATOM     56   O  A00 X   3      51.079  73.598  45.6650  0.00  0.00     0.000 OA
ENDBRANCH 45 54
BRANCH 41 57
ATOM     57  O4  A00 X   4      52.135  76.674  47.1030  0.00  0.00     0.000 O
BRANCH 57 61
ATOM     58  C1  A00 X   4      55.666  78.767  45.7660  0.00  0.00     0.000 C
ATOM     59  C2  A00 X   4      55.824  77.335  46.3350  0.00  0.00     0.000 C
ATOM     60  C3  A00 X   4      54.493  76.565  46.4390  0.00  0.00     0.000 C
ATOM     61  C4  A00 X   4      53.389  77.414  47.1050  0.00  0.00     0.000 C
ATOM     62  C5  A00 X   4      53.254  78.700  46.2520  0.00  0.00     0.000 C
ATOM     63  O5  A00 X   4      54.502  79.438  46.3010  0.00  0.00     0.000 O
BRANCH 59 66
ATOM     64   N  A00 X   4      56.353  77.404  47.7090  0.00  0.00     0.000 N
ATOM     66  HD  A00 X   4      56.180  78.117  48.1690  0.00  0.00     0.000 HD
ATOM     66   O  A00 X   4      58.549  77.629  46.7450  0.00  0.00     0.000 OA
ATOM     67   S  A00 X   4      57.916  77.146  47.9330  0.00  0.00     0.000 S
ATOM     68   O  A00 X   4      58.141  77.928  49.1130  0.00  0.00     0.000 OA
ATOM     69   O  A00 X   4      57.909  75.728  48.1590  0.00  0.00     0.000 OA
ENDBRANCH 59 66
BRANCH 62 70
ATOM     70   C  A00 X   4      52.110  79.640  46.7020  0.00  0.00     0.000 C
ATOM     71   O  A00 X   4      51.877  81.640  49.7110  0.00  0.00     0.000 OA
ATOM     72   O  A00 X   4      50.332  80.157  48.7310  0.00  0.00     0.000 OA
ATOM     73   O  A00 X   4      52.548  80.415  47.8300  0.00  0.00     0.000 O
ATOM     74   O  A00 X   4      52.259  79.269  49.9300  0.00  0.00     0.000 OA
ATOM     75   S  A00 X   4      51.706  80.329  49.1500  0.00  0.00     0.000 S
ENDBRANCH 62 70
ENDBRANCH 57 61
ENDBRANCH 41 57
ENDBRANCH 40 44
ENDBRANCH 20 40
ENDBRANCH 19 23
ENDBRANCH 1 19
TORSDOF 14
ENDMDL
MODEL 46
REMARK VINA RESULT:      -1.0     45.562     50.223
ROOT
ATOM      1  C1  A00 X   1      59.547  55.027  21.2260  0.00  0.00     0.000 C
ATOM      2  C2  A00 X   1      60.461  55.814  20.2500  0.00  0.00     0.000 C
ATOM      3  C3  A00 X   1      61.893  55.226  20.0240  0.00  0.00     0.000 C
ATOM      4  C4  A00 X   1      62.351  54.166  21.0590  0.00  0.00     0.000 C
ATOM      5  C5  A00 X   1      61.587  54.278  22.3780  0.00  0.00     0.000 C
ATOM      6  O5  A00 X   1      60.209  54.017  22.0270  0.00  0.00     0.000 O
ATOM      7   O  A00 X   1      62.840  56.290  20.0900  0.00  0.00     0.000 O
ATOM      9  HD  A00 X   1      63.183  55.617  20.5130  0.00  0.00     0.000 HD
ATOM      9   O  A00 X   1      62.225  52.842  20.5390  0.00  0.00     0.000 O
ATOM     11  HD  A00 X   1      62.568  52.169  20.9620  0.00  0.00     0.000 HD
ENDROOT
BRANCH 2 11
ATOM     11   O  A00 X   1      59.782  55.895  18.9820  0.00  0.00     0.000 O
ATOM     12   O  A00 X   1      60.851  56.782  17.0230  0.00  0.00     0.000 OA
ATOM     13   O  A00 X   1      60.463  58.240  18.9300  0.00  0.00     0.000 OA
ATOM     14   O  A00 X   1      58.635  57.427  17.6440  0.00  0.00     0.000 OA
ATOM     15   S  A00 X   1      59.976  57.175  18.0980  0.00  0.00     0.000 S
ENDBRANCH 2 11
BRANCH 5 16
ATOM     16   C  A00 X   1      61.788  55.596  23.1330  0.00  0.00     0.000 C
ATOM     17   O  A00 X   1      61.058  55.847  24.0690  0.00  0.00     0.000 OA
ATOM     18   O  A00 X   1      62.655  56.393  22.8330  0.00  0.00     0.000 OA
ENDBRANCH 5 16
BRANCH 1 19
ATOM     19  O4  A00 X   2      58.722  55.893  22.0440  0.00  0.00     0.000 O
BRANCH 19 23
ATOM     20  C1  A00 X   2      55.279  53.352  21.8000  0.00  0.00     0.000 C
ATOM     21  C2  A00 X   2      55.345  54.561  20.8350  0.00  0.00     0.000 C
ATOM     22  C3  A00 X   2      56.786  55.105  20.7340  0.00  0.00     0.000 C
ATOM     23  C4  A00 X   2      57.345  55.427  22.1380  0.00  0.00     0.000 C
ATOM     24  C5  A00 X   2      57.206  54.148  23.0090  0.00  0.00     0.000 C
ATOM     25  O5  A00 X   2      55.803  53.785  23.0840  0.00  0.00     0.000 O
ATOM     26   O  A00 X   2      56.807  56.178  19.7770  0.00  0.00     0.000 O
ATOM     28  HD  A00 X   2      56.136  56.585  20.1430  0.00  0.00     0.000 HD
BRANCH 21 30
ATOM     28   N  A00 X   2      53.889  54.686  20.9520  0.00  0.00     0.000 N
ATOM     30  HD  A00 X   2      54.126  55.152  20.2610  0.00  0.00     0.000 HD
ATOM     30   O  A00 X   2      53.065  55.510  18.9270  0.00  0.00     0.000 OA
ATOM     31   S  A00 X   2      53.179  55.928  20.2800  0.00  0.00     0.000 S
ATOM     32   O  A00 X   2      51.939  56.032  20.9860  0.00  0.00     0.000 OA
ATOM     33   O  A00 X   2      53.996  57.075  20.5380  0.00  0.00     0.000 OA
ENDBRANCH 21 30
BRANCH 24 34
ATOM     34   C  A00 X   2      57.902  54.132  24.3900  0.00  0.00     0.000 C
ATOM     35   O  A00 X   2      57.268  56.566  27.0230  0.00  0.00     0.000 OA
ATOM     36   O  A00 X   2      57.729  55.388  25.0770  0.00  0.00     0.000 O
ATOM     37   O  A00 X   2      55.585  55.256  26.0020  0.00  0.00     0.000 OA
ATOM     38   S  A00 X   2      56.947  55.306  26.4390  0.00  0.00     0.000 S
ATOM     39   O  A00 X   2      57.462  54.165  27.1340  0.00  0.00     0.000 OA
ENDBRANCH 24 34
BRANCH 20 40
ATOM     40  O4  A00 X   3      56.149  52.359  21.2380  0.00  0.00     0.000 O
BRANCH 40 44
ATOM     41  C1  A00 X   3      58.751  49.905  21.8140  0.00  0.00     0.000 C
ATOM     42  C2  A00 X   3      58.156  50.249  20.4310  0.00  0.00     0.000 C
ATOM     43  C3  A00 X   3      56.607  50.189  20.4630  0.00  0.00     0.000 C
ATOM     44  C4  A00 X   3      55.966  50.973  21.6000  0.00  0.00     0.000 C
ATOM     45  C5  A00 X   3      56.613  50.570  22.9560  0.00  0.00     0.000 C
ATOM     46  O5  A00 X   3      58.074  50.631  22.8770  0.00  0.00     0.000 O
ATOM     47   O  A00 X   3      55.950  50.404  19.2150  0.00  0.00     0.000 O
ATOM     49  HD  A00 X   3      55.391  50.840  19.7140  0.00  0.00     0.000 HD
BRANCH 42 49
ATOM     49   O  A00 X   3      58.626  51.570  20.0850  0.00  0.00     0.000 O
ATOM     50   O  A00 X   3      58.299  53.107  18.2790  0.00  0.00     0.000 OA
ATOM     51   O  A00 X   3      58.569  50.811  17.7880  0.00  0.00     0.000 OA
ATOM     52   O  A00 X   3      60.423  52.007  18.6370  0.00  0.00     0.000 OA
ATOM     53   S  A00 X   3      59.004  51.910  18.6130  0.00  0.00     0.000 S
ENDBRANCH 42 49
BRANCH 45 54
ATOM     54   C  A00 X   3      56.091  49.216  23.4520  0.00  0.00     0.000 C
ATOM     55   O  A00 X   3      56.360  48.821  24.5680  0.00  0.00     0.000 OA
ATOM     56   O  A00 X   3      55.399  48.511  22.7340  0.00  0.00     0.000 OA
ENDBRANCH 45 54
BRANCH 41 57
ATOM     57  O4  A00 X   4      58.817  48.478  22.0270  0.00  0.00     0.000 O
BRANCH 57 61
ATOM     58  C1  A00 X   4      61.600  45.947  24.1460  0.00  0.00     0.000 C
ATOM     59  C2  A00 X   4      60.815  47.017  24.9440  0.00  0.00     0.000 C
ATOM     60  C3  A00 X   4      59.614  47.602  24.1730  0.00  0.00     0.000 C
ATOM     61  C4  A00 X   4      60.000  48.012  22.7360  0.00  0.00     0.000 C
ATOM     62  C5  A00 X   4      60.567  46.741  22.0570  0.00  0.00     0.000 C
ATOM     63  O5  A00 X   4      61.765  46.319  22.7580  0.00  0.00     0.000 O
BRANCH 59 66
ATOM     64   N  A00 X   4      61.695  48.163  25.2380  0.00  0.00     0.000 N
ATOM     66  HD  A00 X   4      62.346  48.319  24.6890  0.00  0.00     0.000 HD
ATOM     66   O  A00 X   4      62.547  46.903  27.1050  0.00  0.00     0.000 OA
ATOM     67   S  A00 X   4      62.355  48.258  26.6920  0.00  0.00     0.000 S
ATOM     68   O  A00 X   4      63.553  48.984  26.3850  0.00  0.00     0.000 OA
ATOM     69   O  A00 X   4      61.357  49.031  27.3740  0.00  0.00     0.000 OA
ENDBRANCH 59 66
BRANCH 62 70
ATOM     70   C  A00 X   4      60.913  46.925  20.5600  0.00  0.00     0.000 C
ATOM     71   O  A00 X   4      63.562  48.896  19.0760  0.00  0.00     0.000 OA
ATOM     72   O  A00 X   4      61.263  48.792  18.5770  0.00  0.00     0.000 OA
ATOM     73   O  A00 X   4      62.183  47.586  20.4430  0.00  0.00     0.000 O
ATOM     74   O  A00 X   4      62.011  49.986  20.5660  0.00  0.00     0.000 OA
ATOM     75   S  A00 X   4      62.240  48.928  19.6350  0.00  0.00     0.000 S
ENDBRANCH 62 70
ENDBRANCH 57 61
ENDBRANCH 41 57
ENDBRANCH 40 44
ENDBRANCH 20 40
ENDBRANCH 19 23
ENDBRANCH 1 19
TORSDOF 14
ENDMDL
MODEL 47
REMARK VINA RESULT:      -1.0     50.303     55.993
ROOT
ATOM      1  C1  A00 X   1      48.535  65.459  11.7930  0.00  0.00     0.000 C
ATOM      2  C2  A00 X   1      49.252  65.997  13.0600  0.00  0.00     0.000 C
ATOM      3  C3  A00 X   1      50.217  67.208  12.8410  0.00  0.00     0.000 C
ATOM      4  C4  A00 X   1      50.622  67.483  11.3700  0.00  0.00     0.000 C
ATOM      5  C5  A00 X   1      50.465  66.245  10.4870  0.00  0.00     0.000 C
ATOM      6  O5  A00 X   1      49.052  65.942  10.5290  0.00  0.00     0.000 O
ATOM      7   O  A00 X   1      51.427  66.964  13.5550  0.00  0.00     0.000 O
ATOM      9  HD  A00 X   1      51.647  67.304  12.7900  0.00  0.00     0.000 HD
ATOM      9   O  A00 X   1      49.876  68.568  10.8170  0.00  0.00     0.000 O
ATOM     11  HD  A00 X   1      50.096  68.908  10.0520  0.00  0.00     0.000 HD
ENDROOT
BRANCH 2 11
ATOM     11   O  A00 X   1      48.237  66.373  14.0120  0.00  0.00     0.000 O
ATOM     12   O  A00 X   1      48.772  67.519  16.0530  0.00  0.00     0.000 OA
ATOM     13   O  A00 X   1      49.614  65.264  15.6980  0.00  0.00     0.000 OA
ATOM     14   O  A00 X   1      47.288  65.645  16.0170  0.00  0.00     0.000 OA
ATOM     15   S  A00 X   1      48.529  66.194  15.5420  0.00  0.00     0.000 S
ENDBRANCH 2 11
BRANCH 5 16
ATOM     16   C  A00 X   1      51.357  65.060  10.8680  0.00  0.00     0.000 C
ATOM     17   O  A00 X   1      51.141  63.981  10.3560  0.00  0.00     0.000 OA
ATOM     18   O  A00 X   1      52.276  65.163  11.6570  0.00  0.00     0.000 OA
ENDBRANCH 5 16
BRANCH 1 19
ATOM     19  O4  A00 X   2      48.403  64.017  11.7930  0.00  0.00     0.000 O
BRANCH 19 23
ATOM     20  C1  A00 X   2      44.460  64.069  10.1150  0.00  0.00     0.000 C
ATOM     21  C2  A00 X   2      44.580  63.926  11.6510  0.00  0.00     0.000 C
ATOM     22  C3  A00 X   2      45.982  64.353  12.1350  0.00  0.00     0.000 C
ATOM     23  C4  A00 X   2      47.080  63.577  11.3720  0.00  0.00     0.000 C
ATOM     24  C5  A00 X   2      46.838  63.784   9.8510  0.00  0.00     0.000 C
ATOM     25  O5  A00 X   2      45.520  63.279   9.5140  0.00  0.00     0.000 O
ATOM     26   O  A00 X   2      46.021  64.267  13.5690  0.00  0.00     0.000 O
ATOM     28  HD  A00 X   2      45.704  63.462  13.5800  0.00  0.00     0.000 HD
BRANCH 21 30
ATOM     28   N  A00 X   2      43.395  63.063  11.6250  0.00  0.00     0.000 N
ATOM     30  HD  A00 X   2      43.512  63.304  12.4490  0.00  0.00     0.000 HD
ATOM     30   O  A00 X   2      42.233  63.364  13.6290  0.00  0.00     0.000 OA
ATOM     31   S  A00 X   2      42.954  62.341  12.9600  0.00  0.00     0.000 S
ATOM     32   O  A00 X   2      42.161  61.242  12.5040  0.00  0.00     0.000 OA
ATOM     33   O  A00 X   2      44.145  61.863  13.5970  0.00  0.00     0.000 OA
ENDBRANCH 21 30
BRANCH 24 34
ATOM     34   C  A00 X   2      47.932  63.301   8.8700  0.00  0.00     0.000 C
ATOM     35   O  A00 X   2      47.432  60.692   6.3810  0.00  0.00     0.000 OA
ATOM     36   O  A00 X   2      47.570  62.046   8.2610  0.00  0.00     0.000 O
ATOM     37   O  A00 X   2      46.096  62.636   6.5430  0.00  0.00     0.000 OA
ATOM     38   S  A00 X   2      47.406  62.082   6.6970  0.00  0.00     0.000 S
ATOM     39   O  A00 X   2      48.511  62.840   6.1920  0.00  0.00     0.000 OA
ENDBRANCH 24 34
BRANCH 20 40
ATOM     40  O4  A00 X   3      44.682  65.460   9.8360  0.00  0.00     0.000 O
BRANCH 40 44
ATOM     41  C1  A00 X   3      46.291  67.957   7.7630  0.00  0.00     0.000 C
ATOM     42  C2  A00 X   3      45.400  68.268   8.9850  0.00  0.00     0.000 C
ATOM     43  C3  A00 X   3      44.048  67.516   8.8930  0.00  0.00     0.000 C
ATOM     44  C4  A00 X   3      44.171  66.024   8.6090  0.00  0.00     0.000 C
ATOM     45  C5  A00 X   3      45.076  65.792   7.3660  0.00  0.00     0.000 C
ATOM     46  O5  A00 X   3      46.335  66.528   7.4910  0.00  0.00     0.000 O
ATOM     47   O  A00 X   3      43.107  67.796   9.9280  0.00  0.00     0.000 O
ATOM     49  HD  A00 X   3      42.952  66.947   9.8620  0.00  0.00     0.000 HD
BRANCH 42 49
ATOM     49   O  A00 X   3      46.143  67.878  10.1600  0.00  0.00     0.000 O
ATOM     50   O  A00 X   3      45.753  67.836  12.5220  0.00  0.00     0.000 OA
ATOM     51   O  A00 X   3      45.023  69.709  11.2770  0.00  0.00     0.000 OA
ATOM     52   O  A00 X   3      47.347  69.359  11.5280  0.00  0.00     0.000 OA
ATOM     53   S  A00 X   3      46.070  68.736  11.4570  0.00  0.00     0.000 S
ENDBRANCH 42 49
BRANCH 45 54
ATOM     54   C  A00 X   3      44.331  66.088   6.0590  0.00  0.00     0.000 C
ATOM     55   O  A00 X   3      44.812  65.780   4.9880  0.00  0.00     0.000 OA
ATOM     56   O  A00 X   3      43.241  66.640   6.0720  0.00  0.00     0.000 OA
ENDBRANCH 45 54
BRANCH 41 57
ATOM     57  O4  A00 X   4      45.927  68.761   6.6180  0.00  0.00     0.000 O
BRANCH 57 61
ATOM     58  C1  A00 X   4      48.214  70.455   3.3710  0.00  0.00     0.000 C
ATOM     59  C2  A00 X   4      48.179  68.914   3.5290  0.00  0.00     0.000 C
ATOM     60  C3  A00 X   4      47.067  68.418   4.4750  0.00  0.00     0.000 C
ATOM     61  C4  A00 X   4      47.044  69.210   5.7990  0.00  0.00     0.000 C
ATOM     62  C5  A00 X   4      46.860  70.699   5.4130  0.00  0.00     0.000 C
ATOM     63  O5  A00 X   4      48.002  71.133   4.6310  0.00  0.00     0.000 O
BRANCH 59 66
ATOM     64   N  A00 X   4      49.402  68.317   4.0950  0.00  0.00     0.000 N
ATOM     66  HD  A00 X   4      49.857  68.793   4.6580  0.00  0.00     0.000 HD
ATOM     66   O  A00 X   4      50.401  68.541   1.9150  0.00  0.00     0.000 OA
ATOM     67   S  A00 X   4      50.494  67.726   3.0860  0.00  0.00     0.000 S
ATOM     68   O  A00 X   4      51.685  67.899   3.8640  0.00  0.00     0.000 OA
ATOM     69   O  A00 X   4      50.043  66.367   2.9930  0.00  0.00     0.000 OA
ENDBRANCH 59 66
BRANCH 62 70
ATOM     70   C  A00 X   4      46.703  71.651   6.6230  0.00  0.00     0.000 C
ATOM     71   O  A00 X   4      49.181  72.615   9.0800  0.00  0.00     0.000 OA
ATOM     72   O  A00 X   4      46.975  71.837   9.3490  0.00  0.00     0.000 OA
ATOM     73   O  A00 X   4      47.998  71.936   7.1750  0.00  0.00     0.000 O
ATOM     74   O  A00 X   4      48.739  70.268   8.7480  0.00  0.00     0.000 OA
ATOM     75   S  A00 X   4      48.240  71.603   8.6880  0.00  0.00     0.000 S
ENDBRANCH 62 70
ENDBRANCH 57 61
ENDBRANCH 41 57
ENDBRANCH 40 44
ENDBRANCH 20 40
ENDBRANCH 19 23
ENDBRANCH 1 19
TORSDOF 14
ENDMDL
MODEL 48
REMARK VINA RESULT:      -1.0     73.878     78.626
ROOT
ATOM      1  C1  A00 X   1      80.512  47.013  66.4110  0.00  0.00     0.000 C
ATOM      2  C2  A00 X   1      81.574  48.053  66.8580  0.00  0.00     0.000 C
ATOM      3  C3  A00 X   1      82.913  47.470  67.4190  0.00  0.00     0.000 C
ATOM      4  C4  A00 X   1      82.879  45.968  67.8020  0.00  0.00     0.000 C
ATOM      5  C5  A00 X   1      81.460  45.475  68.0790  0.00  0.00     0.000 C
ATOM      6  O5  A00 X   1      80.760  45.647  66.8260  0.00  0.00     0.000 O
ATOM      7   O  A00 X   1      83.261  48.183  68.6040  0.00  0.00     0.000 O
ATOM      9  HD  A00 X   1      83.426  47.345  68.7510  0.00  0.00     0.000 HD
ATOM      9   O  A00 X   1      83.483  45.159  66.7930  0.00  0.00     0.000 O
ATOM     11  HD  A00 X   1      83.649  44.322  66.9400  0.00  0.00     0.000 HD
ENDROOT
BRANCH 2 11
ATOM     11   O  A00 X   1      81.866  48.895  65.7250  0.00  0.00     0.000 O
ATOM     12   O  A00 X   1      83.627  50.528  65.7780  0.00  0.00     0.000 OA
ATOM     13   O  A00 X   1      81.725  50.779  67.2740  0.00  0.00     0.000 OA
ATOM     14   O  A00 X   1      81.456  51.050  64.9260  0.00  0.00     0.000 OA
ATOM     15   S  A00 X   1      82.204  50.406  65.9710  0.00  0.00     0.000 S
ENDBRANCH 2 11
BRANCH 5 16
ATOM     16   C  A00 X   1      80.762  46.143  69.2680  0.00  0.00     0.000 C
ATOM     17   O  A00 X   1      79.568  45.976  69.4100  0.00  0.00     0.000 OA
ATOM     18   O  A00 X   1      81.360  46.826  70.0740  0.00  0.00     0.000 OA
ENDBRANCH 5 16
BRANCH 1 19
ATOM     19  O4  A00 X   2      79.158  47.423  66.7250  0.00  0.00     0.000 O
BRANCH 19 23
ATOM     20  C1  A00 X   2      77.531  45.943  63.0470  0.00  0.00     0.000 C
ATOM     21  C2  A00 X   2      77.852  47.455  63.1290  0.00  0.00     0.000 C
ATOM     22  C3  A00 X   2      78.806  47.751  64.3050  0.00  0.00     0.000 C
ATOM     23  C4  A00 X   2      78.233  47.187  65.6250  0.00  0.00     0.000 C
ATOM     24  C5  A00 X   2      77.938  45.677  65.4070  0.00  0.00     0.000 C
ATOM     25  O5  A00 X   2      76.978  45.540  64.3280  0.00  0.00     0.000 O
ATOM     26   O  A00 X   2      79.127  49.153  64.2970  0.00  0.00     0.000 O
ATOM     28  HD  A00 X   2      78.297  49.394  64.2440  0.00  0.00     0.000 HD
BRANCH 21 30
ATOM     28   N  A00 X   2      76.690  47.710  62.2720  0.00  0.00     0.000 N
ATOM     30  HD  A00 X   2      77.168  48.432  62.2670  0.00  0.00     0.000 HD
ATOM     30   O  A00 X   2      77.144  49.598  60.9740  0.00  0.00     0.000 OA
ATOM     31   S  A00 X   2      76.255  49.207  62.0090  0.00  0.00     0.000 S
ATOM     32   O  A00 X   2      74.884  49.097  61.6190  0.00  0.00     0.000 OA
ATOM     33   O  A00 X   2      76.363  49.904  63.2560  0.00  0.00     0.000 OA
ENDBRANCH 21 30
BRANCH 24 34
ATOM     34   C  A00 X   2      77.573  44.824  66.6450  0.00  0.00     0.000 C
ATOM     35   O  A00 X   2      74.790  45.552  68.8760  0.00  0.00     0.000 OA
ATOM     36   O  A00 X   2      76.674  45.532  67.5210  0.00  0.00     0.000 O
ATOM     37   O  A00 X   2      74.569  45.260  66.5400  0.00  0.00     0.000 OA
ATOM     38   S  A00 X   2      75.266  44.861  67.7240  0.00  0.00     0.000 S
ATOM     39   O  A00 X   2      75.508  43.462  67.9110  0.00  0.00     0.000 OA
ENDBRANCH 24 34
BRANCH 20 40
ATOM     40  O4  A00 X   3      78.792  45.289  62.8430  0.00  0.00     0.000 O
BRANCH 40 44
ATOM     41  C1  A00 X   3      80.995  42.563  63.7590  0.00  0.00     0.000 C
ATOM     42  C2  A00 X   3      81.342  43.671  62.7410  0.00  0.00     0.000 C
ATOM     43  C3  A00 X   3      80.218  43.825  61.6840  0.00  0.00     0.000 C
ATOM     44  C4  A00 X   3      78.817  43.966  62.2660  0.00  0.00     0.000 C
ATOM     45  C5  A00 X   3      78.542  42.816  63.2760  0.00  0.00     0.000 C
ATOM     46  O5  A00 X   3      79.632  42.700  64.2460  0.00  0.00     0.000 O
ATOM     47   O  A00 X   3      80.469  44.762  60.6390  0.00  0.00     0.000 O
ATOM     49  HD  A00 X   3      79.629  44.940  60.7490  0.00  0.00     0.000 HD
BRANCH 42 49
ATOM     49   O  A00 X   3      81.533  44.891  63.4900  0.00  0.00     0.000 O
ATOM     50   O  A00 X   3      82.008  47.181  62.9800  0.00  0.00     0.000 OA
ATOM     51   O  A00 X   3      83.153  45.486  61.7940  0.00  0.00     0.000 OA
ATOM     52   O  A00 X   3      83.626  45.769  64.0920  0.00  0.00     0.000 OA
ATOM     53   S  A00 X   3      82.641  45.903  63.0750  0.00  0.00     0.000 S
ENDBRANCH 42 49
BRANCH 45 54
ATOM     54   C  A00 X   3      78.228  41.496  62.5610  0.00  0.00     0.000 C
ATOM     55   O  A00 X   3      77.842  40.530  63.1860  0.00  0.00     0.000 OA
ATOM     56   O  A00 X   3      78.362  41.393  61.3510  0.00  0.00     0.000 OA
ENDBRANCH 45 54
BRANCH 41 57
ATOM     57  O4  A00 X   4      81.306  41.249  63.2460  0.00  0.00     0.000 O
BRANCH 57 61
ATOM     58  C1  A00 X   4      82.701  37.615  65.1130  0.00  0.00     0.000 C
ATOM     59  C2  A00 X   4      81.324  38.184  65.5350  0.00  0.00     0.000 C
ATOM     60  C3  A00 X   4      80.777  39.253  64.5670  0.00  0.00     0.000 C
ATOM     61  C4  A00 X   4      81.844  40.314  64.2240  0.00  0.00     0.000 C
ATOM     62  C5  A00 X   4      83.047  39.545  63.6250  0.00  0.00     0.000 C
ATOM     63  O5  A00 X   4      83.589  38.649  64.6290  0.00  0.00     0.000 O
BRANCH 59 66
ATOM     64   N  A00 X   4      81.459  38.852  66.8420  0.00  0.00     0.000 N
ATOM     66  HD  A00 X   4      82.235  39.176  67.0470  0.00  0.00     0.000 HD
ATOM     66   O  A00 X   4      81.239  36.682  67.8620  0.00  0.00     0.000 OA
ATOM     67   S  A00 X   4      80.990  38.059  68.1500  0.00  0.00     0.000 S
ATOM     68   O  A00 X   4      81.851  38.650  69.1330  0.00  0.00     0.000 OA
ATOM     69   O  A00 X   4      79.623  38.490  68.2310  0.00  0.00     0.000 OA
ENDBRANCH 59 66
BRANCH 62 70
ATOM     70   C  A00 X   4      84.188  40.456  63.1120  0.00  0.00     0.000 C
ATOM     71   O  A00 X   4      86.482  42.501  65.0260  0.00  0.00     0.000 OA
ATOM     72   O  A00 X   4      85.163  43.023  63.1470  0.00  0.00     0.000 OA
ATOM     73   O  A00 X   4      84.994  40.879  64.2240  0.00  0.00     0.000 O
ATOM     74   O  A00 X   4      84.113  42.826  65.3380  0.00  0.00     0.000 OA
ATOM     75   S  A00 X   4      85.164  42.420  64.4610  0.00  0.00     0.000 S
ENDBRANCH 62 70
ENDBRANCH 57 61
ENDBRANCH 41 57
ENDBRANCH 40 44
ENDBRANCH 20 40
ENDBRANCH 19 23
ENDBRANCH 1 19
TORSDOF 14
ENDMDL
MODEL 49
REMARK VINA RESULT:      -1.0     37.696     42.009
ROOT
ATOM      1  C1  A00 X   1      52.602  50.010  15.1210  0.00  0.00     0.000 C
ATOM      2  C2  A00 X   1      52.141  51.491  15.1720  0.00  0.00     0.000 C
ATOM      3  C3  A00 X   1      51.812  52.157  13.7960  0.00  0.00     0.000 C
ATOM      4  C4  A00 X   1      52.328  51.399  12.5460  0.00  0.00     0.000 C
ATOM      5  C5  A00 X   1      53.496  50.469  12.8760  0.00  0.00     0.000 C
ATOM      6  O5  A00 X   1      52.948  49.508  13.8060  0.00  0.00     0.000 O
ATOM      7   O  A00 X   1      52.409  53.451  13.7590  0.00  0.00     0.000 O
ATOM      9  HD  A00 X   1      52.531  53.092  12.9810  0.00  0.00     0.000 HD
ATOM      9   O  A00 X   1      51.283  50.656  11.9180  0.00  0.00     0.000 O
ATOM     11  HD  A00 X   1      51.405  50.296  11.1400  0.00  0.00     0.000 HD
ENDROOT
BRANCH 2 11
ATOM     11   O  A00 X   1      50.975  51.559  16.0170  0.00  0.00     0.000 O
ATOM     12   O  A00 X   1      49.680  53.569  16.2360  0.00  0.00     0.000 OA
ATOM     13   O  A00 X   1      51.986  53.549  17.0080  0.00  0.00     0.000 OA
ATOM     14   O  A00 X   1      50.325  52.278  18.1410  0.00  0.00     0.000 OA
ATOM     15   S  A00 X   1      50.741  52.842  16.8850  0.00  0.00     0.000 S
ENDBRANCH 2 11
BRANCH 5 16
ATOM     16   C  A00 X   1      54.756  51.171  13.3910  0.00  0.00     0.000 C
ATOM     17   O  A00 X   1      55.643  50.495  13.8710  0.00  0.00     0.000 OA
ATOM     18   O  A00 X   1      54.903  52.376  13.3310  0.00  0.00     0.000 OA
ENDBRANCH 5 16
BRANCH 1 19
ATOM     19  O4  A00 X   2      53.635  49.710  16.0900  0.00  0.00     0.000 O
BRANCH 19 23
ATOM     20  C1  A00 X   2      52.043  45.850  17.0520  0.00  0.00     0.000 C
ATOM     21  C2  A00 X   2      51.684  47.025  17.9930  0.00  0.00     0.000 C
ATOM     22  C3  A00 X   2      51.949  48.380  17.3050  0.00  0.00     0.000 C
ATOM     23  C4  A00 X   2      53.402  48.451  16.7840  0.00  0.00     0.000 C
ATOM     24  C5  A00 X   2      53.641  47.215  15.8740  0.00  0.00     0.000 C
ATOM     25  O5  A00 X   2      53.431  46.011  16.6560  0.00  0.00     0.000 O
ATOM     26   O  A00 X   2      51.537  49.436  18.1900  0.00  0.00     0.000 O
ATOM     28  HD  A00 X   2      51.978  49.113  18.8610  0.00  0.00     0.000 HD
BRANCH 21 30
ATOM     28   N  A00 X   2      51.713  46.085  19.1180  0.00  0.00     0.000 N
ATOM     30  HD  A00 X   2      51.305  46.797  19.3960  0.00  0.00     0.000 HD
ATOM     30   O  A00 X   2      50.156  46.802  20.7050  0.00  0.00     0.000 OA
ATOM     31   S  A00 X   2      51.563  46.653  20.5850  0.00  0.00     0.000 S
ATOM     32   O  A00 X   2      52.134  45.630  21.4050  0.00  0.00     0.000 OA
ATOM     33   O  A00 X   2      52.350  47.848  20.6600  0.00  0.00     0.000 OA
ENDBRANCH 21 30
BRANCH 24 34
ATOM     34   C  A00 X   2      54.944  47.168  15.0420  0.00  0.00     0.000 C
ATOM     35   O  A00 X   2      57.547  44.658  15.4690  0.00  0.00     0.000 OA
ATOM     36   O  A00 X   2      55.925  46.307  15.6550  0.00  0.00     0.000 O
ATOM     37   O  A00 X   2      55.281  44.149  15.0260  0.00  0.00     0.000 OA
ATOM     38   S  A00 X   2      56.357  45.063  14.7960  0.00  0.00     0.000 S
ATOM     39   O  A00 X   2      56.549  45.541  13.4600  0.00  0.00     0.000 OA
ENDBRANCH 24 34
BRANCH 20 40
ATOM     40  O4  A00 X   3      51.196  45.999  15.9040  0.00  0.00     0.000 O
BRANCH 40 44
ATOM     41  C1  A00 X   3      50.872  45.934  12.2960  0.00  0.00     0.000 C
ATOM     42  C2  A00 X   3      49.728  46.272  13.2770  0.00  0.00     0.000 C
ATOM     43  C3  A00 X   3      49.604  45.188  14.3790  0.00  0.00     0.000 C
ATOM     44  C4  A00 X   3      50.911  44.847  15.0820  0.00  0.00     0.000 C
ATOM     45  C5  A00 X   3      52.009  44.515  14.0320  0.00  0.00     0.000 C
ATOM     46  O5  A00 X   3      52.084  45.558  13.0070  0.00  0.00     0.000 O
ATOM     47   O  A00 X   3      48.521  45.351  15.2930  0.00  0.00     0.000 O
ATOM     49  HD  A00 X   3      49.110  45.075  15.8650  0.00  0.00     0.000 HD
BRANCH 42 49
ATOM     49   O  A00 X   3      50.023  47.568  13.8420  0.00  0.00     0.000 O
ATOM     50   O  A00 X   3      49.020  49.024  15.4560  0.00  0.00     0.000 OA
ATOM     51   O  A00 X   3      47.627  47.904  13.9080  0.00  0.00     0.000 OA
ATOM     52   O  A00 X   3      49.079  49.588  13.1050  0.00  0.00     0.000 OA
ATOM     53   S  A00 X   3      48.880  48.592  14.1010  0.00  0.00     0.000 S
ENDBRANCH 42 49
BRANCH 45 54
ATOM     54   C  A00 X   3      51.830  43.108  13.4490  0.00  0.00     0.000 C
ATOM     55   O  A00 X   3      52.721  42.583  12.8140  0.00  0.00     0.000 OA
ATOM     56   O  A00 X   3      50.788  42.492  13.6120  0.00  0.00     0.000 OA
ENDBRANCH 45 54
BRANCH 41 57
ATOM     57  O4  A00 X   4      50.454  44.976  11.2990  0.00  0.00     0.000 O
BRANCH 57 61
ATOM     58  C1  A00 X   4      51.579  44.342   7.1790  0.00  0.00     0.000 C
ATOM     59  C2  A00 X   4      52.662  44.188   8.2750  0.00  0.00     0.000 C
ATOM     60  C3  A00 X   4      52.084  44.081   9.7010  0.00  0.00     0.000 C
ATOM     61  C4  A00 X   4      51.027  45.172   9.9750  0.00  0.00     0.000 C
ATOM     62  C5  A00 X   4      49.936  45.006   8.8880  0.00  0.00     0.000 C
ATOM     63  O5  A00 X   4      50.523  45.243   7.5830  0.00  0.00     0.000 O
BRANCH 59 66
ATOM     64   N  A00 X   4      53.534  45.377   8.2910  0.00  0.00     0.000 N
ATOM     66  HD  A00 X   4      53.193  46.127   8.0230  0.00  0.00     0.000 HD
ATOM     66   O  A00 X   4      54.749  44.387   6.4630  0.00  0.00     0.000 OA
ATOM     67   S  A00 X   4      54.951  45.287   7.5550  0.00  0.00     0.000 S
ATOM     68   O  A00 X   4      55.143  46.662   7.1950  0.00  0.00     0.000 OA
ATOM     69   O  A00 X   4      55.775  44.844   8.6440  0.00  0.00     0.000 OA
ENDBRANCH 59 66
BRANCH 62 70
ATOM     70   C  A00 X   4      48.723  45.950   9.0610  0.00  0.00     0.000 C
ATOM     71   O  A00 X   4      48.581  49.546   8.6620  0.00  0.00     0.000 OA
ATOM     72   O  A00 X   4      47.808  48.164  10.4050  0.00  0.00     0.000 OA
ATOM     73   O  A00 X   4      49.062  47.255   8.5650  0.00  0.00     0.000 O
ATOM     74   O  A00 X   4      50.193  48.619  10.1970  0.00  0.00     0.000 OA
ATOM     75   S  A00 X   4      48.931  48.471   9.5470  0.00  0.00     0.000 S
ENDBRANCH 62 70
ENDBRANCH 57 61
ENDBRANCH 41 57
ENDBRANCH 40 44
ENDBRANCH 20 40
ENDBRANCH 19 23
ENDBRANCH 1 19
TORSDOF 14
ENDMDL
MODEL 50
REMARK VINA RESULT:      -1.0     32.232     36.938
ROOT
ATOM      1  C1  A00 X   1      33.698  49.949  18.2360  0.00  0.00     0.000 C
ATOM      2  C2  A00 X   1      34.884  49.002  18.5620  0.00  0.00     0.000 C
ATOM      3  C3  A00 X   1      34.879  47.619  17.8310  0.00  0.00     0.000 C
ATOM      4  C4  A00 X   1      33.535  47.215  17.1720  0.00  0.00     0.000 C
ATOM      5  C5  A00 X   1      32.345  47.943  17.7960  0.00  0.00     0.000 C
ATOM      6  O5  A00 X   1      32.588  49.343  17.5280  0.00  0.00     0.000 O
ATOM      7   O  A00 X   1      35.187  46.600  18.7790  0.00  0.00     0.000 O
ATOM      9  HD  A00 X   1      34.552  46.296  18.2750  0.00  0.00     0.000 HD
ATOM      9   O  A00 X   1      33.555  47.443  15.7630  0.00  0.00     0.000 O
ATOM     11  HD  A00 X   1      32.920  47.139  15.2590  0.00  0.00     0.000 HD
ENDROOT
BRANCH 2 11
ATOM     11   O  A00 X   1      36.103  49.699  18.2390  0.00  0.00     0.000 O
ATOM     12   O  A00 X   1      38.243  48.613  18.3080  0.00  0.00     0.000 OA
ATOM     13   O  A00 X   1      36.971  48.866  20.3650  0.00  0.00     0.000 OA
ATOM     14   O  A00 X   1      37.898  50.769  19.2800  0.00  0.00     0.000 OA
ATOM     15   S  A00 X   1      37.379  49.438  19.1120  0.00  0.00     0.000 S
ENDBRANCH 2 11
BRANCH 5 16
ATOM     16   C  A00 X   1      32.102  47.637  19.2780  0.00  0.00     0.000 C
ATOM     17   O  A00 X   1      31.317  48.328  19.8930  0.00  0.00     0.000 OA
ATOM     18   O  A00 X   1      32.660  46.724  19.8540  0.00  0.00     0.000 OA
ENDBRANCH 5 16
BRANCH 1 19
ATOM     19  O4  A00 X   2      33.243  50.696  19.3910  0.00  0.00     0.000 O
BRANCH 19 23
ATOM     20  C1  A00 X   2      32.578  54.306  17.1790  0.00  0.00     0.000 C
ATOM     21  C2  A00 X   2      33.911  54.179  17.9560  0.00  0.00     0.000 C
ATOM     22  C3  A00 X   2      34.193  52.708  18.3260  0.00  0.00     0.000 C
ATOM     23  C4  A00 X   2      32.995  52.099  19.0870  0.00  0.00     0.000 C
ATOM     24  C5  A00 X   2      31.725  52.305  18.2160  0.00  0.00     0.000 C
ATOM     25  O5  A00 X   2      31.531  53.728  18.0030  0.00  0.00     0.000 O
ATOM     26   O  A00 X   2      35.470  52.635  18.9830  0.00  0.00     0.000 O
ATOM     28  HD  A00 X   2      35.277  53.270  19.5390  0.00  0.00     0.000 HD
BRANCH 21 30
ATOM     28   N  A00 X   2      33.852  55.621  18.2160  0.00  0.00     0.000 N
ATOM     30  HD  A00 X   2      34.663  55.368  18.3870  0.00  0.00     0.000 HD
ATOM     30   O  A00 X   2      36.041  56.431  18.3200  0.00  0.00     0.000 OA
ATOM     31   S  A00 X   2      34.926  56.261  19.1830  0.00  0.00     0.000 S
ATOM     32   O  A00 X   2      34.309  57.476  19.6170  0.00  0.00     0.000 OA
ATOM     33   O  A00 X   2      35.090  55.364  20.2870  0.00  0.00     0.000 OA
ENDBRANCH 21 30
BRANCH 24 34
ATOM     34   C  A00 X   2      30.426  51.583  18.6450  0.00  0.00     0.000 C
ATOM     35   O  A00 X   2      27.374  53.297  19.6460  0.00  0.00     0.000 OA
ATOM     36   O  A00 X   2      29.523  52.486  19.3140  0.00  0.00     0.000 O
ATOM     37   O  A00 X   2      28.468  53.647  17.5790  0.00  0.00     0.000 OA
ATOM     38   S  A00 X   2      28.138  52.701  18.6000  0.00  0.00     0.000 S
ATOM     39   O  A00 X   2      27.691  51.405  18.1850  0.00  0.00     0.000 OA
ENDBRANCH 24 34
BRANCH 20 40
ATOM     40  O4  A00 X   3      32.745  53.517  15.9920  0.00  0.00     0.000 O
BRANCH 40 44
ATOM     41  C1  A00 X   3      31.339  51.093  13.6960  0.00  0.00     0.000 C
ATOM     42  C2  A00 X   3      32.757  51.693  13.5830  0.00  0.00     0.000 C
ATOM     43  C3  A00 X   3      32.713  53.241  13.6590  0.00  0.00     0.000 C
ATOM     44  C4  A00 X   3      31.923  53.794  14.8380  0.00  0.00     0.000 C
ATOM     45  C5  A00 X   3      30.509  53.149  14.8810  0.00  0.00     0.000 C
ATOM     46  O5  A00 X   3      30.598  51.689  14.7960  0.00  0.00     0.000 O
ATOM     47   O  A00 X   3      33.960  53.909  13.4780  0.00  0.00     0.000 O
ATOM     49  HD  A00 X   3      33.647  54.422  14.1020  0.00  0.00     0.000 HD
BRANCH 42 49
ATOM     49   O  A00 X   3      33.540  51.133  14.6600  0.00  0.00     0.000 O
ATOM     50   O  A00 X   3      35.774  51.376  15.4850  0.00  0.00     0.000 OA
ATOM     51   O  A00 X   3      35.425  51.281  13.1490  0.00  0.00     0.000 OA
ATOM     52   O  A00 X   3      35.030  49.333  14.4270  0.00  0.00     0.000 OA
ATOM     53   S  A00 X   3      35.033  50.755  14.4320  0.00  0.00     0.000 S
ENDBRANCH 42 49
BRANCH 45 54
ATOM     54   C  A00 X   3      29.574  53.758  13.8300  0.00  0.00     0.000 C
ATOM     55   O  A00 X   3      30.010  54.487  12.9620  0.00  0.00     0.000 OA
ATOM     56   O  A00 X   3      28.376  53.524  13.8470  0.00  0.00     0.000 OA
ENDBRANCH 45 54
BRANCH 41 57
ATOM     57  O4  A00 X   4      30.641  51.130  12.4310  0.00  0.00     0.000 O
BRANCH 57 61
ATOM     58  C1  A00 X   4      27.733  48.516  10.6000  0.00  0.00     0.000 C
ATOM     59  C2  A00 X   4      27.366  49.215  11.9330  0.00  0.00     0.000 C
ATOM     60  C3  A00 X   4      28.311  50.378  12.2970  0.00  0.00     0.000 C
ATOM     61  C4  A00 X   4      29.795  49.976  12.1580  0.00  0.00     0.000 C
ATOM     62  C5  A00 X   4      29.984  49.508  10.6930  0.00  0.00     0.000 C
ATOM     63  O5  A00 X   4      29.161  48.337  10.4570  0.00  0.00     0.000 O
BRANCH 59 66
ATOM     64   N  A00 X   4      27.462  48.270  13.0600  0.00  0.00     0.000 N
ATOM     66  HD  A00 X   4      28.023  47.615  12.9860  0.00  0.00     0.000 HD
ATOM     66   O  A00 X   4      25.271  47.478  12.4510  0.00  0.00     0.000 OA
ATOM     67   S  A00 X   4      26.116  47.594  13.5980  0.00  0.00     0.000 S
ATOM     68   O  A00 X   4      26.633  46.360  14.1120  0.00  0.00     0.000 OA
ATOM     69   O  A00 X   4      25.744  48.542  14.6100  0.00  0.00     0.000 OA
ENDBRANCH 59 66
BRANCH 62 70
ATOM     70   C  A00 X   4      31.447  49.163  10.3240  0.00  0.00     0.000 C
ATOM     71   O  A00 X   4      33.470  46.383  11.4560  0.00  0.00     0.000 OA
ATOM     72   O  A00 X   4      33.944  48.688  11.3620  0.00  0.00     0.000 OA
ATOM     73   O  A00 X   4      31.761  47.847  10.8060  0.00  0.00     0.000 O
ATOM     74   O  A00 X   4      32.474  47.831  13.1070  0.00  0.00     0.000 OA
ATOM     75   S  A00 X   4      32.980  47.693  11.7790  0.00  0.00     0.000 S
ENDBRANCH 62 70
ENDBRANCH 57 61
ENDBRANCH 41 57
ENDBRANCH 40 44
ENDBRANCH 20 40
ENDBRANCH 19 23
ENDBRANCH 1 19
TORSDOF 14
ENDMDL
MODEL 51
REMARK VINA RESULT:      -1.0     86.665     90.669
ROOT
ATOM      1  C1  A00 X   1      69.084  86.299  57.2320  0.00  0.00     0.000 C
ATOM      2  C2  A00 X   1      69.308  87.551  56.3430  0.00  0.00     0.000 C
ATOM      3  C3  A00 X   1      70.706  87.662  55.6500  0.00  0.00     0.000 C
ATOM      4  C4  A00 X   1      71.807  86.726  56.2130  0.00  0.00     0.000 C
ATOM      5  C5  A00 X   1      71.509  86.280  57.6440  0.00  0.00     0.000 C
ATOM      6  O5  A00 X   1      70.274  85.535  57.5470  0.00  0.00     0.000 O
ATOM      7   O  A00 X   1      71.189  88.994  55.8040  0.00  0.00     0.000 O
ATOM      9  HD  A00 X   1      71.861  88.463  55.9320  0.00  0.00     0.000 HD
ATOM      9   O  A00 X   1      71.995  85.582  55.3810  0.00  0.00     0.000 O
ATOM     11  HD  A00 X   1      72.667  85.051  55.5080  0.00  0.00     0.000 HD
ENDROOT
BRANCH 2 11
ATOM     11   O  A00 X   1      68.281  87.561  55.3320  0.00  0.00     0.000 O
ATOM     12   O  A00 X   1      68.305  89.127  53.5120  0.00  0.00     0.000 OA
ATOM     13   O  A00 X   1      68.056  89.950  55.7880  0.00  0.00     0.000 OA
ATOM     14   O  A00 X   1      66.317  88.689  54.7650  0.00  0.00     0.000 OA
ATOM     15   S  A00 X   1      67.733  88.937  54.8210  0.00  0.00     0.000 S
ENDBRANCH 2 11
BRANCH 5 16
ATOM     16   C  A00 X   1      71.462  87.410  58.6780  0.00  0.00     0.000 C
ATOM     17   O  A00 X   1      71.031  87.166  59.7870  0.00  0.00     0.000 OA
ATOM     18   O  A00 X   1      71.847  88.535  58.4320  0.00  0.00     0.000 OA
ENDBRANCH 5 16
BRANCH 1 19
ATOM     19  O4  A00 X   2      68.311  86.587  58.4220  0.00  0.00     0.000 O
BRANCH 19 23
ATOM     20  C1  A00 X   2      66.071  82.939  58.2140  0.00  0.00     0.000 C
ATOM     21  C2  A00 X   2      65.402  84.221  57.6620  0.00  0.00     0.000 C
ATOM     22  C3  A00 X   2      66.452  85.322  57.4060  0.00  0.00     0.000 C
ATOM     23  C4  A00 X   2      67.288  85.583  58.6800  0.00  0.00     0.000 C
ATOM     24  C5  A00 X   2      67.886  84.226  59.1410  0.00  0.00     0.000 C
ATOM     25  O5  A00 X   2      66.798  83.305  59.4170  0.00  0.00     0.000 O
ATOM     26   O  A00 X   2      65.793  86.463  56.8310  0.00  0.00     0.000 O
ATOM     28  HD  A00 X   2      65.179  86.479  57.4420  0.00  0.00     0.000 HD
BRANCH 21 30
ATOM     28   N  A00 X   2      64.113  83.707  58.1340  0.00  0.00     0.000 N
ATOM     30  HD  A00 X   2      63.939  84.347  57.5770  0.00  0.00     0.000 HD
ATOM     30   O  A00 X   2      62.449  84.470  56.6820  0.00  0.00     0.000 OA
ATOM     31   S  A00 X   2      62.842  84.642  58.0360  0.00  0.00     0.000 S
ATOM     32   O  A00 X   2      61.941  84.091  59.0010  0.00  0.00     0.000 OA
ATOM     33   O  A00 X   2      63.251  85.956  58.4320  0.00  0.00     0.000 OA
ENDBRANCH 21 30
BRANCH 24 34
ATOM     34   C  A00 X   2      68.950  84.246  60.2630  0.00  0.00     0.000 C
ATOM     35   O  A00 X   2      68.405  85.672  63.5680  0.00  0.00     0.000 OA
ATOM     36   O  A00 X   2      68.589  85.168  61.3100  0.00  0.00     0.000 O
ATOM     37   O  A00 X   2      67.040  83.995  62.6110  0.00  0.00     0.000 OA
ATOM     38   S  A00 X   2      68.366  84.522  62.7260  0.00  0.00     0.000 S
ATOM     39   O  A00 X   2      69.436  83.591  62.9190  0.00  0.00     0.000 OA
ENDBRANCH 24 34
BRANCH 20 40
ATOM     40  O4  A00 X   3      66.998  82.519  57.2030  0.00  0.00     0.000 O
BRANCH 40 44
ATOM     41  C1  A00 X   3      70.322  81.300  56.4340  0.00  0.00     0.000 C
ATOM     42  C2  A00 X   3      69.237  81.621  55.3830  0.00  0.00     0.000 C
ATOM     43  C3  A00 X   3      67.900  80.921  55.7350  0.00  0.00     0.000 C
ATOM     44  C4  A00 X   3      67.427  81.141  57.1670  0.00  0.00     0.000 C
ATOM     45  C5  A00 X   3      68.569  80.793  58.1630  0.00  0.00     0.000 C
ATOM     46  O5  A00 X   3      69.814  81.466  57.7870  0.00  0.00     0.000 O
ATOM     47   O  A00 X   3      66.847  81.076  54.7850  0.00  0.00     0.000 O
ATOM     49  HD  A00 X   3      66.363  81.139  55.5010  0.00  0.00     0.000 HD
BRANCH 42 49
ATOM     49   O  A00 X   3      69.090  83.057  55.3520  0.00  0.00     0.000 O
ATOM     50   O  A00 X   3      67.701  84.631  54.2010  0.00  0.00     0.000 OA
ATOM     51   O  A00 X   3      68.573  82.790  53.0030  0.00  0.00     0.000 OA
ATOM     52   O  A00 X   3      70.069  84.462  53.7450  0.00  0.00     0.000 OA
ATOM     53   S  A00 X   3      68.841  83.793  54.0030  0.00  0.00     0.000 S
ENDBRANCH 42 49
BRANCH 45 54
ATOM     54   C  A00 X   3      68.731  79.278  58.3350  0.00  0.00     0.000 C
ATOM     55   O  A00 X   3      68.192  78.507  57.5670  0.00  0.00     0.000 OA
ATOM     56   O  A00 X   3      69.403  78.820  59.2460  0.00  0.00     0.000 OA
ENDBRANCH 45 54
BRANCH 41 57
ATOM     57  O4  A00 X   4      70.938  80.015  56.1920  0.00  0.00     0.000 O
BRANCH 57 61
ATOM     58  C1  A00 X   4      74.916  78.485  56.8790  0.00  0.00     0.000 C
ATOM     59  C2  A00 X   4      74.081  78.953  58.0970  0.00  0.00     0.000 C
ATOM     60  C3  A00 X   4      72.582  79.133  57.7820  0.00  0.00     0.000 C
ATOM     61  C4  A00 X   4      72.361  79.946  56.4880  0.00  0.00     0.000 C
ATOM     62  C5  A00 X   4      73.107  79.186  55.3630  0.00  0.00     0.000 C
ATOM     63  O5  A00 X   4      74.526  79.163  55.6620  0.00  0.00     0.000 O
BRANCH 59 66
ATOM     64   N  A00 X   4      74.560  80.275  58.5390  0.00  0.00     0.000 N
ATOM     66  HD  A00 X   4      74.928  80.786  57.9450  0.00  0.00     0.000 HD
ATOM     66   O  A00 X   4      76.298  79.128  59.7490  0.00  0.00     0.000 OA
ATOM     67   S  A00 X   4      75.543  80.341  59.7990  0.00  0.00     0.000 S
ATOM     68   O  A00 X   4      76.273  81.536  59.4940  0.00  0.00     0.000 OA
ATOM     69   O  A00 X   4      74.586  80.491  60.8590  0.00  0.00     0.000 OA
ENDBRANCH 59 66
BRANCH 62 70
ATOM     70   C  A00 X   4      72.911  79.792  53.9530  0.00  0.00     0.000 C
ATOM     71   O  A00 X   4      74.136  82.943  52.6570  0.00  0.00     0.000 OA
ATOM     72   O  A00 X   4      71.983  81.991  52.5930  0.00  0.00     0.000 OA
ATOM     73   O  A00 X   4      73.773  80.932  53.8030  0.00  0.00     0.000 O
ATOM     74   O  A00 X   4      72.809  82.963  54.6700  0.00  0.00     0.000 OA
ATOM     75   S  A00 X   4      73.113  82.307  53.4390  0.00  0.00     0.000 S
ENDBRANCH 62 70
ENDBRANCH 57 61
ENDBRANCH 41 57
ENDBRANCH 40 44
ENDBRANCH 20 40
ENDBRANCH 19 23
ENDBRANCH 1 19
TORSDOF 14
ENDMDL
MODEL 52
REMARK VINA RESULT:      -1.0     49.436     54.115
ROOT
ATOM      1  C1  A00 X   1      15.188  65.908  29.5650  0.00  0.00     0.000 C
ATOM      2  C2  A00 X   1      14.219  64.770  29.1450  0.00  0.00     0.000 C
ATOM      3  C3  A00 X   1      14.876  63.379  28.8630  0.00  0.00     0.000 C
ATOM      4  C4  A00 X   1      16.415  63.391  28.6780  0.00  0.00     0.000 C
ATOM      5  C5  A00 X   1      16.936  64.767  28.2660  0.00  0.00     0.000 C
ATOM      6  O5  A00 X   1      16.597  65.634  29.3720  0.00  0.00     0.000 O
ATOM      7   O  A00 X   1      14.327  62.850  27.6570  0.00  0.00     0.000 O
ATOM      9  HD  A00 X   1      15.177  62.684  27.6450  0.00  0.00     0.000 HD
ATOM      9   O  A00 X   1      17.086  62.954  29.8590  0.00  0.00     0.000 O
ATOM     11  HD  A00 X   1      17.936  62.788  29.8480  0.00  0.00     0.000 HD
ENDROOT
BRANCH 2 11
ATOM     11   O  A00 X   1      13.236  64.623  30.1880  0.00  0.00     0.000 O
ATOM     12   O  A00 X   1      11.662  62.810  30.2020  0.00  0.00     0.000 OA
ATOM     13   O  A00 X   1      11.580  64.444  28.4020  0.00  0.00     0.000 OA
ATOM     14   O  A00 X   1      10.985  65.064  30.6200  0.00  0.00     0.000 OA
ATOM     15   S  A00 X   1      11.780  64.189  29.8020  0.00  0.00     0.000 S
ENDBRANCH 2 11
BRANCH 5 16
ATOM     16   C  A00 X   1      16.428  65.274  26.9120  0.00  0.00     0.000 C
ATOM     17   O  A00 X   1      16.686  66.414  26.5850  0.00  0.00     0.000 OA
ATOM     18   O  A00 X   1      15.785  64.575  26.1540  0.00  0.00     0.000 OA
ENDBRANCH 5 16
BRANCH 1 19
ATOM     19  O4  A00 X   2      14.818  67.194  29.0090  0.00  0.00     0.000 O
BRANCH 19 23
ATOM     20  C1  A00 X   2      15.736  69.352  32.5950  0.00  0.00     0.000 C
ATOM     21  C2  A00 X   2      14.255  68.979  32.3450  0.00  0.00     0.000 C
ATOM     22  C3  A00 X   2      14.141  67.865  31.2840  0.00  0.00     0.000 C
ATOM     23  C4  A00 X   2      14.885  68.267  29.9910  0.00  0.00     0.000 C
ATOM     24  C5  A00 X   2      16.344  68.633  30.3770  0.00  0.00     0.000 C
ATOM     25  O5  A00 X   2      16.315  69.737  31.3200  0.00  0.00     0.000 O
ATOM     26   O  A00 X   2      12.756  67.507  31.1380  0.00  0.00     0.000 O
ATOM     28  HD  A00 X   2      12.502  68.329  31.0400  0.00  0.00     0.000 HD
BRANCH 21 30
ATOM     28   N  A00 X   2      13.869  70.240  32.9870  0.00  0.00     0.000 N
ATOM     30  HD  A00 X   2      13.158  69.746  32.9560  0.00  0.00     0.000 HD
ATOM     30   O  A00 X   2      11.816  69.913  34.0550  0.00  0.00     0.000 OA
ATOM     31   S  A00 X   2      12.346  70.663  32.9710  0.00  0.00     0.000 S
ATOM     32   O  A00 X   2      12.385  72.077  33.1780  0.00  0.00     0.000 OA
ATOM     33   O  A00 X   2      11.837  70.365  31.6650  0.00  0.00     0.000 OA
ENDBRANCH 21 30
BRANCH 24 34
ATOM     34   C  A00 X   2      17.364  68.851  29.2350  0.00  0.00     0.000 C
ATOM     35   O  A00 X   2      18.992  72.030  28.5300  0.00  0.00     0.000 OA
ATOM     36   O  A00 X   2      17.565  70.254  28.9740  0.00  0.00     0.000 O
ATOM     37   O  A00 X   2      19.065  70.945  30.6310  0.00  0.00     0.000 OA
ATOM     38   S  A00 X   2      19.030  70.777  29.2100  0.00  0.00     0.000 S
ATOM     39   O  A00 X   2      19.906  69.801  28.6350  0.00  0.00     0.000 OA
ENDBRANCH 24 34
BRANCH 20 40
ATOM     40  O4  A00 X   3      16.365  68.151  33.0650  0.00  0.00     0.000 O
BRANCH 40 44
ATOM     41  C1  A00 X   3      19.216  65.924  32.8650  0.00  0.00     0.000 C
ATOM     42  C2  A00 X   3      17.975  65.688  33.7530  0.00  0.00     0.000 C
ATOM     43  C3  A00 X   3      17.658  66.941  34.6090  0.00  0.00     0.000 C
ATOM     44  C4  A00 X   3      17.590  68.244  33.8230  0.00  0.00     0.000 C
ATOM     45  C5  A00 X   3      18.873  68.413  32.9600  0.00  0.00     0.000 C
ATOM     46  O5  A00 X   3      19.139  67.204  32.1780  0.00  0.00     0.000 O
ATOM     47   O  A00 X   3      16.581  66.807  35.5340  0.00  0.00     0.000 O
ATOM     49  HD  A00 X   3      16.413  67.619  35.2830  0.00  0.00     0.000 HD
BRANCH 42 49
ATOM     49   O  A00 X   3      16.879  65.360  32.8710  0.00  0.00     0.000 O
ATOM     50   O  A00 X   3      14.550  64.864  33.1110  0.00  0.00     0.000 OA
ATOM     51   O  A00 X   3      16.079  63.938  34.6580  0.00  0.00     0.000 OA
ATOM     52   O  A00 X   3      16.139  63.178  32.4210  0.00  0.00     0.000 OA
ATOM     53   S  A00 X   3      15.841  64.274  33.2770  0.00  0.00     0.000 S
ENDBRANCH 42 49
BRANCH 45 54
ATOM     54   C  A00 X   3      20.071  68.860  33.8060  0.00  0.00     0.000 C
ATOM     55   O  A00 X   3      20.021  68.822  35.0190  0.00  0.00     0.000 OA
ATOM     56   O  A00 X   3      21.095  69.264  33.2760  0.00  0.00     0.000 OA
ENDBRANCH 45 54
BRANCH 41 57
ATOM     57  O4  A00 X   4      20.444  65.726  33.6010  0.00  0.00     0.000 O
BRANCH 57 61
ATOM     58  C1  A00 X   4      24.337  64.238  32.4750  0.00  0.00     0.000 C
ATOM     59  C2  A00 X   4      23.813  65.529  31.7990  0.00  0.00     0.000 C
ATOM     60  C3  A00 X   4      22.604  66.155  32.5220  0.00  0.00     0.000 C
ATOM     61  C4  A00 X   4      21.522  65.102  32.8460  0.00  0.00     0.000 C
ATOM     62  C5  A00 X   4      22.216  64.014  33.7030  0.00  0.00     0.000 C
ATOM     63  O5  A00 X   4      23.259  63.382  32.9180  0.00  0.00     0.000 O
BRANCH 59 66
ATOM     64   N  A00 X   4      23.340  65.269  30.4270  0.00  0.00     0.000 N
ATOM     66  HD  A00 X   4      23.033  64.478  30.2530  0.00  0.00     0.000 HD
ATOM     66   O  A00 X   4      25.641  65.372  29.7210  0.00  0.00     0.000 OA
ATOM     67   S  A00 X   4      24.325  65.600  29.2110  0.00  0.00     0.000 S
ATOM     68   O  A00 X   4      23.866  64.649  28.2400  0.00  0.00     0.000 OA
ATOM     69   O  A00 X   4      23.940  66.955  28.9340  0.00  0.00     0.000 OA
ENDBRANCH 59 66
BRANCH 62 70
ATOM     70   C  A00 X   4      21.259  62.915  34.2240  0.00  0.00     0.000 C
ATOM     71   O  A00 X   4      19.577  60.309  32.3560  0.00  0.00     0.000 OA
ATOM     72   O  A00 X   4      18.747  61.843  33.9390  0.00  0.00     0.000 OA
ATOM     73   O  A00 X   4      21.027  61.954  33.1810  0.00  0.00     0.000 O
ATOM     74   O  A00 X   4      19.257  62.602  31.6800  0.00  0.00     0.000 OA
ATOM     75   S  A00 X   4      19.544  61.692  32.7420  0.00  0.00     0.000 S
ENDBRANCH 62 70
ENDBRANCH 57 61
ENDBRANCH 41 57
ENDBRANCH 40 44
ENDBRANCH 20 40
ENDBRANCH 19 23
ENDBRANCH 1 19
TORSDOF 14
ENDMDL
MODEL 53
REMARK VINA RESULT:      -1.0     59.882     65.470
ROOT
ATOM      1  C1  A00 X   1       5.028  46.142  69.7570  0.00  0.00     0.000 C
ATOM      2  C2  A00 X   1       3.720  46.180  68.9220  0.00  0.00     0.000 C
ATOM      3  C3  A00 X   1       3.402  44.898  68.0850  0.00  0.00     0.000 C
ATOM      4  C4  A00 X   1       4.583  43.911  67.8980  0.00  0.00     0.000 C
ATOM      5  C5  A00 X   1       5.939  44.593  68.0790  0.00  0.00     0.000 C
ATOM      6  O5  A00 X   1       5.937  45.057  69.4480  0.00  0.00     0.000 O
ATOM      7   O  A00 X   1       2.995  45.294  66.7770  0.00  0.00     0.000 O
ATOM      9  HD  A00 X   1       3.515  44.607  66.6860  0.00  0.00     0.000 HD
ATOM      9   O  A00 X   1       4.480  42.799  68.7880  0.00  0.00     0.000 O
ATOM     11  HD  A00 X   1       4.999  42.112  68.6960  0.00  0.00     0.000 HD
ENDROOT
BRANCH 2 11
ATOM     11   O  A00 X   1       2.629  46.433  69.8270  0.00  0.00     0.000 O
ATOM     12   O  A00 X   1       0.375  46.724  69.0500  0.00  0.00     0.000 OA
ATOM     13   O  A00 X   1       2.077  48.337  68.4010  0.00  0.00     0.000 OA
ATOM     14   O  A00 X   1       1.348  48.198  70.6610  0.00  0.00     0.000 OA
ATOM     15   S  A00 X   1       1.539  47.486  69.4260  0.00  0.00     0.000 S
ENDBRANCH 2 11
BRANCH 5 16
ATOM     16   C  A00 X   1       6.252  45.692  67.0590  0.00  0.00     0.000 C
ATOM     17   O  A00 X   1       7.211  46.411  67.2550  0.00  0.00     0.000 OA
ATOM     18   O  A00 X   1       5.582  45.866  66.0610  0.00  0.00     0.000 OA
ENDBRANCH 5 16
BRANCH 1 19
ATOM     19  O4  A00 X   2       5.716  47.416  69.7820  0.00  0.00     0.000 O
BRANCH 19 23
ATOM     20  C1  A00 X   2       6.962  47.007  73.8620  0.00  0.00     0.000 C
ATOM     21  C2  A00 X   2       5.705  47.866  73.5810  0.00  0.00     0.000 C
ATOM     22  C3  A00 X   2       5.140  47.571  72.1760  0.00  0.00     0.000 C
ATOM     23  C4  A00 X   2       6.237  47.744  71.1020  0.00  0.00     0.000 C
ATOM     24  C5  A00 X   2       7.442  46.851  71.5060  0.00  0.00     0.000 C
ATOM     25  O5  A00 X   2       7.923  47.277  72.8070  0.00  0.00     0.000 O
ATOM     26   O  A00 X   2       3.939  48.339  71.9910  0.00  0.00     0.000 O
ATOM     28  HD  A00 X   2       4.313  49.079  72.2420  0.00  0.00     0.000 HD
BRANCH 21 30
ATOM     28   N  A00 X   2       6.099  48.739  74.6920  0.00  0.00     0.000 N
ATOM     30  HD  A00 X   2       5.270  48.917  74.5150  0.00  0.00     0.000 HD
ATOM     30   O  A00 X   2       4.157  49.587  75.6750  0.00  0.00     0.000 OA
ATOM     31   S  A00 X   2       5.276  50.065  74.9440  0.00  0.00     0.000 S
ATOM     32   O  A00 X   2       6.179  50.887  75.6890  0.00  0.00     0.000 OA
ATOM     33   O  A00 X   2       5.014  50.650  73.6620  0.00  0.00     0.000 OA
ENDBRANCH 21 30
BRANCH 24 34
ATOM     34   C  A00 X   2       8.584  46.665  70.4790  0.00  0.00     0.000 C
ATOM     35   O  A00 X   2      10.549  49.400  69.0940  0.00  0.00     0.000 OA
ATOM     36   O  A00 X   2       8.934  47.916  69.8540  0.00  0.00     0.000 O
ATOM     37   O  A00 X   2      10.320  48.978  71.4100  0.00  0.00     0.000 OA
ATOM     38   S  A00 X   2      10.408  48.402  70.1030  0.00  0.00     0.000 S
ATOM     39   O  A00 X   2      11.246  47.252  69.9390  0.00  0.00     0.000 OA
ENDBRANCH 24 34
BRANCH 20 40
ATOM     40  O4  A00 X   3       6.526  45.643  73.7770  0.00  0.00     0.000 O
BRANCH 40 44
ATOM     41  C1  A00 X   3       7.193  42.289  72.5810  0.00  0.00     0.000 C
ATOM     42  C2  A00 X   3       5.924  42.712  73.3510  0.00  0.00     0.000 C
ATOM     43  C3  A00 X   3       6.291  43.475  74.6500  0.00  0.00     0.000 C
ATOM     44  C4  A00 X   3       7.281  44.617  74.4560  0.00  0.00     0.000 C
ATOM     45  C5  A00 X   3       8.530  44.112  73.6800  0.00  0.00     0.000 C
ATOM     46  O5  A00 X   3       8.136  43.391  72.4680  0.00  0.00     0.000 O
ATOM     47   O  A00 X   3       5.197  43.840  75.4890  0.00  0.00     0.000 O
ATOM     49  HD  A00 X   3       5.663  44.562  75.5910  0.00  0.00     0.000 HD
BRANCH 42 49
ATOM     49   O  A00 X   3       5.142  43.536  72.4580  0.00  0.00     0.000 O
ATOM     50   O  A00 X   3       3.094  44.769  72.5860  0.00  0.00     0.000 OA
ATOM     51   O  A00 X   3       3.201  42.627  73.5810  0.00  0.00     0.000 OA
ATOM     52   O  A00 X   3       3.293  42.780  71.2250  0.00  0.00     0.000 OA
ATOM     53   S  A00 X   3       3.589  43.435  72.4520  0.00  0.00     0.000 S
ENDBRANCH 42 49
BRANCH 45 54
ATOM     54   C  A00 X   3       9.472  43.307  74.5830  0.00  0.00     0.000 C
ATOM     55   O  A00 X   3       9.159  43.044  75.7260  0.00  0.00     0.000 OA
ATOM     56   O  A00 X   3      10.553  42.917  74.1690  0.00  0.00     0.000 OA
ENDBRANCH 45 54
BRANCH 41 57
ATOM     57  O4  A00 X   4       7.767  41.078  73.1220  0.00  0.00     0.000 O
BRANCH 57 61
ATOM     58  C1  A00 X   4       9.878  37.768  71.3240  0.00  0.00     0.000 C
ATOM     59  C2  A00 X   4      10.498  39.184  71.2260  0.00  0.00     0.000 C
ATOM     60  C3  A00 X   4       9.860  40.203  72.1920  0.00  0.00     0.000 C
ATOM     61  C4  A00 X   4       8.318  40.161  72.1350  0.00  0.00     0.000 C
ATOM     62  C5  A00 X   4       7.910  38.704  72.4700  0.00  0.00     0.000 C
ATOM     63  O5  A00 X   4       8.438  37.815  71.4530  0.00  0.00     0.000 O
BRANCH 59 66
ATOM     64   N  A00 X   4      10.285  39.734  69.8740  0.00  0.00     0.000 N
ATOM     66  HD  A00 X   4       9.592  39.457  69.4350  0.00  0.00     0.000 HD
ATOM     66   O  A00 X   4      12.205  38.465  69.1650  0.00  0.00     0.000 OA
ATOM     67   S  A00 X   4      11.491  39.657  68.8270  0.00  0.00     0.000 S
ATOM     68   O  A00 X   4      10.760  39.610  67.5940  0.00  0.00     0.000 OA
ATOM     69   O  A00 X   4      12.131  40.916  69.0840  0.00  0.00     0.000 OA
ENDBRANCH 59 66
BRANCH 62 70
ATOM     70   C  A00 X   4       6.382  38.484  72.5710  0.00  0.00     0.000 C
ATOM     71   O  A00 X   4       3.907  38.563  69.9300  0.00  0.00     0.000 OA
ATOM     72   O  A00 X   4       3.937  39.615  72.0360  0.00  0.00     0.000 OA
ATOM     73   O  A00 X   4       5.832  38.360  71.2490  0.00  0.00     0.000 O
ATOM     74   O  A00 X   4       5.328  40.487  70.2350  0.00  0.00     0.000 OA
ATOM     75   S  A00 X   4       4.694  39.355  70.8320  0.00  0.00     0.000 S
ENDBRANCH 62 70
ENDBRANCH 57 61
ENDBRANCH 41 57
ENDBRANCH 40 44
ENDBRANCH 20 40
ENDBRANCH 19 23
ENDBRANCH 1 19
TORSDOF 14
ENDMDL
MODEL 54
REMARK VINA RESULT:      -1.0     85.017     89.274
ROOT
ATOM      1  C1  A00 X   1      65.769  72.662  72.6010  0.00  0.00     0.000 C
ATOM      2  C2  A00 X   1      67.258  72.383  72.9360  0.00  0.00     0.000 C
ATOM      3  C3  A00 X   1      68.299  72.811  71.8500  0.00  0.00     0.000 C
ATOM      4  C4  A00 X   1      67.715  73.113  70.4460  0.00  0.00     0.000 C
ATOM      5  C5  A00 X   1      66.363  72.435  70.2250  0.00  0.00     0.000 C
ATOM      6  O5  A00 X   1      65.493  73.016  71.2230  0.00  0.00     0.000 O
ATOM      7   O  A00 X   1      69.240  71.754  71.6770  0.00  0.00     0.000 O
ATOM      9  HD  A00 X   1      69.053  72.060  70.8890  0.00  0.00     0.000 HD
ATOM      9   O  A00 X   1      67.591  74.518  70.2240  0.00  0.00     0.000 O
ATOM     11  HD  A00 X   1      67.404  74.824  69.4360  0.00  0.00     0.000 HD
ENDROOT
BRANCH 2 11
ATOM     11   O  A00 X   1      67.564  73.059  74.1710  0.00  0.00     0.000 O
ATOM     12   O  A00 X   1      69.804  73.186  75.0290  0.00  0.00     0.000 OA
ATOM     13   O  A00 X   1      68.725  71.014  74.8340  0.00  0.00     0.000 OA
ATOM     14   O  A00 X   1      67.955  72.604  76.4280  0.00  0.00     0.000 OA
ATOM     15   S  A00 X   1      68.597  72.409  75.1550  0.00  0.00     0.000 S
ENDBRANCH 2 11
BRANCH 5 16
ATOM     16   C  A00 X   1      66.393  70.904  70.2560  0.00  0.00     0.000 C
ATOM     17   O  A00 X   1      65.340  70.302  70.3010  0.00  0.00     0.000 OA
ATOM     18   O  A00 X   1      67.431  70.272  70.2310  0.00  0.00     0.000 OA
ENDBRANCH 5 16
BRANCH 1 19
ATOM     19  O4  A00 X   2      64.883  71.614  73.0650  0.00  0.00     0.000 O
BRANCH 19 23
ATOM     20  C1  A00 X   2      61.806  74.334  74.2920  0.00  0.00     0.000 C
ATOM     21  C2  A00 X   2      62.777  73.815  75.3800  0.00  0.00     0.000 C
ATOM     22  C3  A00 X   2      64.050  73.220  74.7430  0.00  0.00     0.000 C
ATOM     23  C4  A00 X   2      63.683  72.139  73.7020  0.00  0.00     0.000 C
ATOM     24  C5  A00 X   2      62.697  72.775  72.6840  0.00  0.00     0.000 C
ATOM     25  O5  A00 X   2      61.516  73.227  73.3970  0.00  0.00     0.000 O
ATOM     26   O  A00 X   2      64.947  72.817  75.7920  0.00  0.00     0.000 O
ATOM     28  HD  A00 X   2      64.334  72.372  76.2120  0.00  0.00     0.000 HD
BRANCH 21 30
ATOM     28   N  A00 X   2      61.663  73.841  76.3330  0.00  0.00     0.000 N
ATOM     30  HD  A00 X   2      62.391  73.780  76.7990  0.00  0.00     0.000 HD
ATOM     30   O  A00 X   2      62.528  74.319  78.4500  0.00  0.00     0.000 OA
ATOM     31   S  A00 X   2      61.888  73.244  77.7790  0.00  0.00     0.000 S
ATOM     32   O  A00 X   2      60.564  72.951  78.2340  0.00  0.00     0.000 OA
ATOM     33   O  A00 X   2      62.640  72.034  77.6260  0.00  0.00     0.000 OA
ENDBRANCH 21 30
BRANCH 24 34
ATOM     34   C  A00 X   2      62.352  71.972  71.4080  0.00  0.00     0.000 C
ATOM     35   O  A00 X   2      59.008  70.795  70.5780  0.00  0.00     0.000 OA
ATOM     36   O  A00 X   2      61.058  71.347  71.5170  0.00  0.00     0.000 O
ATOM     37   O  A00 X   2      59.542  73.057  71.0170  0.00  0.00     0.000 OA
ATOM     38   S  A00 X   2      59.994  71.819  70.4590  0.00  0.00     0.000 S
ATOM     39   O  A00 X   2      60.670  71.867  69.1980  0.00  0.00     0.000 OA
ENDBRANCH 24 34
BRANCH 20 40
ATOM     40  O4  A00 X   3      62.528  75.349  73.5810  0.00  0.00     0.000 O
BRANCH 40 44
ATOM     41  C1  A00 X   3      63.441  76.840  70.4070  0.00  0.00     0.000 C
ATOM     42  C2  A00 X   3      63.941  77.326  71.7850  0.00  0.00     0.000 C
ATOM     43  C3  A00 X   3      62.757  77.540  72.7620  0.00  0.00     0.000 C
ATOM     44  C4  A00 X   3      61.795  76.362  72.8580  0.00  0.00     0.000 C
ATOM     45  C5  A00 X   3      61.334  75.935  71.4360  0.00  0.00     0.000 C
ATOM     46  O5  A00 X   3      62.482  75.755  70.5460  0.00  0.00     0.000 O
ATOM     47   O  A00 X   3      63.094  78.073  74.0410  0.00  0.00     0.000 O
ATOM     49  HD  A00 X   3      62.491  77.511  74.3090  0.00  0.00     0.000 HD
BRANCH 42 49
ATOM     49   O  A00 X   3      64.860  76.327  72.2780  0.00  0.00     0.000 O
ATOM     50   O  A00 X   3      66.162  75.999  74.2600  0.00  0.00     0.000 OA
ATOM     51   O  A00 X   3      66.045  78.164  73.3180  0.00  0.00     0.000 OA
ATOM     52   O  A00 X   3      67.199  76.478  72.1290  0.00  0.00     0.000 OA
ATOM     53   S  A00 X   3      66.146  76.752  73.0450  0.00  0.00     0.000 S
ENDBRANCH 42 49
BRANCH 45 54
ATOM     54   C  A00 X   3      60.276  76.891  70.8720  0.00  0.00     0.000 C
ATOM     55   O  A00 X   3      59.643  76.597  69.8790  0.00  0.00     0.000 OA
ATOM     56   O  A00 X   3      60.054  77.965  71.4090  0.00  0.00     0.000 OA
ENDBRANCH 45 54
BRANCH 41 57
ATOM     57  O4  A00 X   4      62.973  77.937  69.5910  0.00  0.00     0.000 O
BRANCH 57 61
ATOM     58  C1  A00 X   4      62.984  78.647  65.3330  0.00  0.00     0.000 C
ATOM     59  C2  A00 X   4      62.188  77.436  65.8800  0.00  0.00     0.000 C
ATOM     60  C3  A00 X   4      61.959  77.490  67.4040  0.00  0.00     0.000 C
ATOM     61  C4  A00 X   4      63.260  77.816  68.1690  0.00  0.00     0.000 C
ATOM     62  C5  A00 X   4      63.768  79.167  67.6080  0.00  0.00     0.000 C
ATOM     63  O5  A00 X   4      64.082  79.011  66.2000  0.00  0.00     0.000 O
BRANCH 59 66
ATOM     64   N  A00 X   4      62.924  76.181  65.6420  0.00  0.00     0.000 N
ATOM     66  HD  A00 X   4      63.788  76.226  65.6000  0.00  0.00     0.000 HD
ATOM     66   O  A00 X   4      62.045  76.208  63.4000  0.00  0.00     0.000 OA
ATOM     67   S  A00 X   4      62.502  75.282  64.3890  0.00  0.00     0.000 S
ATOM     68   O  A00 X   4      63.750  74.638  64.1000  0.00  0.00     0.000 OA
ATOM     69   O  A00 X   4      61.528  74.427  65.0070  0.00  0.00     0.000 OA
ENDBRANCH 59 66
BRANCH 62 70
ATOM     70   C  A00 X   4      65.018  79.722  68.3320  0.00  0.00     0.000 C
ATOM     71   O  A00 X   4      68.404  78.441  68.3030  0.00  0.00     0.000 OA
ATOM     72   O  A00 X   4      67.023  79.088  70.0980  0.00  0.00     0.000 OA
ATOM     73   O  A00 X   4      66.189  79.049  67.8420  0.00  0.00     0.000 O
ATOM     74   O  A00 X   4      66.619  76.965  68.9720  0.00  0.00     0.000 OA
ATOM     75   S  A00 X   4      67.097  78.307  68.8830  0.00  0.00     0.000 S
ENDBRANCH 62 70
ENDBRANCH 57 61
ENDBRANCH 41 57
ENDBRANCH 40 44
ENDBRANCH 20 40
ENDBRANCH 19 23
ENDBRANCH 1 19
TORSDOF 14
ENDMDL
MODEL 55
REMARK VINA RESULT:      -1.0     41.798     46.247
ROOT
ATOM      1  C1  A00 X   1      56.339  36.657  47.5600  0.00  0.00     0.000 C
ATOM      2  C2  A00 X   1      57.227  37.310  48.6530  0.00  0.00     0.000 C
ATOM      3  C3  A00 X   1      58.131  38.498  48.1850  0.00  0.00     0.000 C
ATOM      4  C4  A00 X   1      58.309  38.639  46.6510  0.00  0.00     0.000 C
ATOM      5  C5  A00 X   1      58.042  37.325  45.9160  0.00  0.00     0.000 C
ATOM      6  O5  A00 X   1      56.656  37.024  46.1940  0.00  0.00     0.000 O
ATOM      7   O  A00 X   1      59.436  38.322  48.7300  0.00  0.00     0.000 O
ATOM      9  HD  A00 X   1      59.535  38.592  47.9130  0.00  0.00     0.000 HD
ATOM      9   O  A00 X   1      57.473  39.667  46.1200  0.00  0.00     0.000 O
ATOM     11  HD  A00 X   1      57.572  39.936  45.3030  0.00  0.00     0.000 HD
ENDROOT
BRANCH 2 11
ATOM     11   O  A00 X   1      56.358  37.768  49.7070  0.00  0.00     0.000 O
ATOM     12   O  A00 X   1      57.172  39.091  51.5390  0.00  0.00     0.000 OA
ATOM     13   O  A00 X   1      57.982  36.814  51.2620  0.00  0.00     0.000 OA
ATOM     14   O  A00 X   1      55.723  37.222  51.8870  0.00  0.00     0.000 OA
ATOM     15   S  A00 X   1      56.874  37.726  51.1870  0.00  0.00     0.000 S
ENDBRANCH 2 11
BRANCH 5 16
ATOM     16   C  A00 X   1      59.000  36.181  46.2660  0.00  0.00     0.000 C
ATOM     17   O  A00 X   1      58.728  35.060  45.8880  0.00  0.00     0.000 OA
ATOM     18   O  A00 X   1      60.022  36.357  46.8990  0.00  0.00     0.000 OA
ENDBRANCH 5 16
BRANCH 1 19
ATOM     19  O4  A00 X   2      56.231  35.220  47.7090  0.00  0.00     0.000 O
BRANCH 19 23
ATOM     20  C1  A00 X   2      52.083  35.114  46.6370  0.00  0.00     0.000 C
ATOM     21  C2  A00 X   2      52.432  35.103  48.1450  0.00  0.00     0.000 C
ATOM     22  C3  A00 X   2      53.882  35.575  48.3770  0.00  0.00     0.000 C
ATOM     23  C4  A00 X   2      54.868  34.741  47.5270  0.00  0.00     0.000 C
ATOM     24  C5  A00 X   2      54.401  34.817  46.0480  0.00  0.00     0.000 C
ATOM     25  O5  A00 X   2      53.056  34.279  45.9540  0.00  0.00     0.000 O
ATOM     26   O  A00 X   2      54.134  35.613  49.7920  0.00  0.00     0.000 O
ATOM     28  HD  A00 X   2      53.836  34.810  49.9180  0.00  0.00     0.000 HD
BRANCH 21 30
ATOM     28   N  A00 X   2      51.271  34.236  48.3680  0.00  0.00     0.000 N
ATOM     30  HD  A00 X   2      51.504  34.547  49.1420  0.00  0.00     0.000 HD
ATOM     30   O  A00 X   2      50.412  34.703  50.4900  0.00  0.00     0.000 OA
ATOM     31   S  A00 X   2      51.044  33.629  49.8100  0.00  0.00     0.000 S
ATOM     32   O  A00 X   2      50.210  32.491  49.5710  0.00  0.00     0.000 OA
ATOM     33   O  A00 X   2      52.324  33.213  50.3010  0.00  0.00     0.000 OA
ENDBRANCH 21 30
BRANCH 24 34
ATOM     34   C  A00 X   2      55.345  34.256  44.9590  0.00  0.00     0.000 C
ATOM     35   O  A00 X   2      54.514  31.461  42.7790  0.00  0.00     0.000 OA
ATOM     36   O  A00 X   2      54.910  32.958  44.5080  0.00  0.00     0.000 O
ATOM     37   O  A00 X   2      53.198  33.416  42.9820  0.00  0.00     0.000 OA
ATOM     38   S  A00 X   2      54.522  32.872  42.9860  0.00  0.00     0.000 S
ATOM     39   O  A00 X   2      55.535  33.585  42.2690  0.00  0.00     0.000 OA
ENDBRANCH 24 34
BRANCH 20 40
ATOM     40  O4  A00 X   3      52.238  36.476  46.2130  0.00  0.00     0.000 O
BRANCH 40 44
ATOM     41  C1  A00 X   3      53.492  38.787  43.7210  0.00  0.00     0.000 C
ATOM     42  C2  A00 X   3      52.783  39.202  45.0280  0.00  0.00     0.000 C
ATOM     43  C3  A00 X   3      51.443  38.440  45.1990  0.00  0.00     0.000 C
ATOM     44  C4  A00 X   3      51.547  36.930  45.0290  0.00  0.00     0.000 C
ATOM     45  C5  A00 X   3      52.266  36.593  43.6920  0.00  0.00     0.000 C
ATOM     46  O5  A00 X   3      53.519  37.341  43.5690  0.00  0.00     0.000 O
ATOM     47   O  A00 X   3      50.658  38.808  46.3310  0.00  0.00     0.000 O
ATOM     49  HD  A00 X   3      50.508  37.955  46.3620  0.00  0.00     0.000 HD
BRANCH 42 49
ATOM     49   O  A00 X   3      53.694  38.917  46.1130  0.00  0.00     0.000 O
ATOM     50   O  A00 X   3      53.647  39.074  48.5010  0.00  0.00     0.000 OA
ATOM     51   O  A00 X   3      52.711  40.829  47.2240  0.00  0.00     0.000 OA
ATOM     52   O  A00 X   3      55.053  40.518  47.1650  0.00  0.00     0.000 OA
ATOM     53   S  A00 X   3      53.792  39.881  47.3310  0.00  0.00     0.000 S
ENDBRANCH 42 49
BRANCH 45 54
ATOM     54   C  A00 X   3      51.336  36.772  42.4870  0.00  0.00     0.000 C
ATOM     55   O  A00 X   3      50.236  37.269  42.6220  0.00  0.00     0.000 OA
ATOM     56   O  A00 X   3      51.683  36.417  41.3710  0.00  0.00     0.000 OA
ENDBRANCH 45 54
BRANCH 41 57
ATOM     57  O4  A00 X   4      52.955  39.488  42.5770  0.00  0.00     0.000 O
BRANCH 57 61
ATOM     58  C1  A00 X   4      54.730  40.927  38.9130  0.00  0.00     0.000 C
ATOM     59  C2  A00 X   4      54.753  39.405  39.2000  0.00  0.00     0.000 C
ATOM     60  C3  A00 X   4      53.794  38.978  40.3300  0.00  0.00     0.000 C
ATOM     61  C4  A00 X   4      53.937  39.879  41.5750  0.00  0.00     0.000 C
ATOM     62  C5  A00 X   4      53.667  41.328  41.0980  0.00  0.00     0.000 C
ATOM     63  O5  A00 X   4      54.679  41.707  40.1300  0.00  0.00     0.000 O
BRANCH 59 66
ATOM     64   N  A00 X   4      56.094  38.988  39.6470  0.00  0.00     0.000 N
ATOM     66  HD  A00 X   4      56.582  39.578  40.0530  0.00  0.00     0.000 HD
ATOM     66   O  A00 X   4      56.737  38.923  37.3270  0.00  0.00     0.000 OA
ATOM     67   S  A00 X   4      57.074  38.315  38.5770  0.00  0.00     0.000 S
ATOM     68   O  A00 X   4      58.347  38.688  39.1210  0.00  0.00     0.000 OA
ATOM     69   O  A00 X   4      56.738  36.932  38.7610  0.00  0.00     0.000 OA
ENDBRANCH 59 66
BRANCH 62 70
ATOM     70   C  A00 X   4      53.657  42.377  42.2350  0.00  0.00     0.000 C
ATOM     71   O  A00 X   4      56.433  43.591  44.2170  0.00  0.00     0.000 OA
ATOM     72   O  A00 X   4      54.313  42.800  44.8680  0.00  0.00     0.000 OA
ATOM     73   O  A00 X   4      55.009  42.730  42.5670  0.00  0.00     0.000 O
ATOM     74   O  A00 X   4      56.019  41.217  44.1470  0.00  0.00     0.000 OA
ATOM     75   S  A00 X   4      55.476  42.533  44.0510  0.00  0.00     0.000 S
ENDBRANCH 62 70
ENDBRANCH 57 61
ENDBRANCH 41 57
ENDBRANCH 40 44
ENDBRANCH 20 40
ENDBRANCH 19 23
ENDBRANCH 1 19
TORSDOF 14
ENDMDL
MODEL 56
REMARK VINA RESULT:      -1.0     87.924     94.369
ROOT
ATOM      1  C1  A00 X   1      86.724  58.916  77.1860  0.00  0.00     0.000 C
ATOM      2  C2  A00 X   1      86.841  57.645  78.0690  0.00  0.00     0.000 C
ATOM      3  C3  A00 X   1      85.754  56.544  77.8360  0.00  0.00     0.000 C
ATOM      4  C4  A00 X   1      84.504  56.997  77.0380  0.00  0.00     0.000 C
ATOM      5  C5  A00 X   1      84.300  58.511  77.0950  0.00  0.00     0.000 C
ATOM      6  O5  A00 X   1      85.477  59.063  76.4630  0.00  0.00     0.000 O
ATOM      7   O  A00 X   1      85.282  56.091  79.1040  0.00  0.00     0.000 O
ATOM      9  HD  A00 X   1      84.592  56.163  78.5850  0.00  0.00     0.000 HD
ATOM      9   O  A00 X   1      84.571  56.570  75.6780  0.00  0.00     0.000 O
ATOM     11  HD  A00 X   1      83.881  56.641  75.1590  0.00  0.00     0.000 HD
ENDROOT
BRANCH 2 11
ATOM     11   O  A00 X   1      88.144  57.073  77.8440  0.00  0.00     0.000 O
ATOM     12   O  A00 X   1      88.770  54.942  78.7590  0.00  0.00     0.000 OA
ATOM     13   O  A00 X   1      88.277  56.786  80.2660  0.00  0.00     0.000 OA
ATOM     14   O  A00 X   1      90.217  56.840  78.8920  0.00  0.00     0.000 OA
ATOM     15   S  A00 X   1      88.871  56.354  79.0320  0.00  0.00     0.000 S
ENDBRANCH 2 11
BRANCH 5 16
ATOM     16   C  A00 X   1      84.032  59.076  78.4930  0.00  0.00     0.000 C
ATOM     17   O  A00 X   1      84.075  60.279  78.6520  0.00  0.00     0.000 OA
ATOM     18   O  A00 X   1      83.772  58.367  79.4440  0.00  0.00     0.000 OA
ENDBRANCH 5 16
BRANCH 1 19
ATOM     19  O4  A00 X   2      87.068  60.129  77.9000  0.00  0.00     0.000 O
BRANCH 19 23
ATOM     20  C1  A00 X   2      89.113  61.878  74.5650  0.00  0.00     0.000 C
ATOM     21  C2  A00 X   2      89.973  61.163  75.6350  0.00  0.00     0.000 C
ATOM     22  C3  A00 X   2      89.103  60.235  76.5090  0.00  0.00     0.000 C
ATOM     23  C4  A00 X   2      87.916  61.017  77.1170  0.00  0.00     0.000 C
ATOM     24  C5  A00 X   2      87.149  61.698  75.9500  0.00  0.00     0.000 C
ATOM     25  O5  A00 X   2      88.056  62.595  75.2560  0.00  0.00     0.000 O
ATOM     26   O  A00 X   2      89.955  59.545  77.4390  0.00  0.00     0.000 O
ATOM     28  HD  A00 X   2      90.342  60.273  77.7020  0.00  0.00     0.000 HD
BRANCH 21 30
ATOM     28   N  A00 X   2      91.023  62.159  75.4020  0.00  0.00     0.000 N
ATOM     30  HD  A00 X   2      91.391  61.503  75.8320  0.00  0.00     0.000 HD
ATOM     30   O  A00 X   2      93.091  61.132  75.7600  0.00  0.00     0.000 OA
ATOM     31   S  A00 X   2      92.295  62.154  76.3410  0.00  0.00     0.000 S
ATOM     32   O  A00 X   2      92.819  63.478  76.2070  0.00  0.00     0.000 OA
ATOM     33   O  A00 X   2      91.832  61.936  77.6790  0.00  0.00     0.000 OA
ENDBRANCH 21 30
BRANCH 24 34
ATOM     34   C  A00 X   2      85.784  62.355  76.2640  0.00  0.00     0.000 C
ATOM     35   O  A00 X   2      85.120  65.922  75.9700  0.00  0.00     0.000 OA
ATOM     36   O  A00 X   2      85.911  63.784  76.4030  0.00  0.00     0.000 O
ATOM     37   O  A00 X   2      85.945  64.582  74.2050  0.00  0.00     0.000 OA
ATOM     38   S  A00 X   2      85.100  64.634  75.3590  0.00  0.00     0.000 S
ATOM     39   O  A00 X   2      83.806  64.028  75.2610  0.00  0.00     0.000 OA
ENDBRANCH 24 34
BRANCH 20 40
ATOM     40  O4  A00 X   3      88.541  60.833  73.7650  0.00  0.00     0.000 O
BRANCH 40 44
ATOM     41  C1  A00 X   3      85.602  59.510  72.1120  0.00  0.00     0.000 C
ATOM     42  C2  A00 X   3      86.980  58.815  72.1450  0.00  0.00     0.000 C
ATOM     43  C3  A00 X   3      88.103  59.790  71.7060  0.00  0.00     0.000 C
ATOM     44  C4  A00 X   3      88.093  61.133  72.4260  0.00  0.00     0.000 C
ATOM     45  C5  A00 X   3      86.677  61.770  72.3450  0.00  0.00     0.000 C
ATOM     46  O5  A00 X   3      85.649  60.812  72.7570  0.00  0.00     0.000 O
ATOM     47   O  A00 X   3      89.413  59.231  71.6150  0.00  0.00     0.000 O
ATOM     49  HD  A00 X   3      89.640  59.997  71.9490  0.00  0.00     0.000 HD
BRANCH 42 49
ATOM     49   O  A00 X   3      87.186  58.347  73.4960  0.00  0.00     0.000 O
ATOM     50   O  A00 X   3      88.933  57.235  74.6970  0.00  0.00     0.000 OA
ATOM     51   O  A00 X   3      88.426  56.523  72.5000  0.00  0.00     0.000 OA
ATOM     52   O  A00 X   3      86.836  56.136  74.2050  0.00  0.00     0.000 OA
ATOM     53   S  A00 X   3      87.887  56.982  73.7560  0.00  0.00     0.000 S
ENDBRANCH 42 49
BRANCH 45 54
ATOM     54   C  A00 X   3      86.410  62.385  70.9660  0.00  0.00     0.000 C
ATOM     55   O  A00 X   3      87.189  62.214  70.0500  0.00  0.00     0.000 OA
ATOM     56   O  A00 X   3      85.412  63.059  70.7650  0.00  0.00     0.000 OA
ENDBRANCH 45 54
BRANCH 41 57
ATOM     57  O4  A00 X   4      85.049  59.536  70.7760  0.00  0.00     0.000 O
BRANCH 57 61
ATOM     58  C1  A00 X   4      81.013  59.301  69.2610  0.00  0.00     0.000 C
ATOM     59  C2  A00 X   4      81.389  60.484  70.1880  0.00  0.00     0.000 C
ATOM     60  C3  A00 X   4      82.910  60.664  70.3690  0.00  0.00     0.000 C
ATOM     61  C4  A00 X   4      83.610  59.327  70.6990  0.00  0.00     0.000 C
ATOM     62  C5  A00 X   4      83.271  58.360  69.5380  0.00  0.00     0.000 C
ATOM     63  O5  A00 X   4      81.837  58.139  69.5050  0.00  0.00     0.000 O
BRANCH 59 66
ATOM     64   N  A00 X   4      80.858  60.264  71.5460  0.00  0.00     0.000 N
ATOM     66  HD  A00 X   4      80.753  59.445  71.8060  0.00  0.00     0.000 HD
ATOM     66   O  A00 X   4      78.745  61.095  70.7450  0.00  0.00     0.000 OA
ATOM     67   S  A00 X   4      79.499  61.001  71.9560  0.00  0.00     0.000 S
ATOM     68   O  A00 X   4      78.990  60.080  72.9300  0.00  0.00     0.000 OA
ATOM     69   O  A00 X   4      80.027  62.214  72.5120  0.00  0.00     0.000 OA
ENDBRANCH 59 66
BRANCH 62 70
ATOM     70   C  A00 X   4      83.978  56.987  69.6320  0.00  0.00     0.000 C
ATOM     71   O  A00 X   4      83.411  54.309  72.0010  0.00  0.00     0.000 OA
ATOM     72   O  A00 X   4      85.409  55.338  71.2990  0.00  0.00     0.000 OA
ATOM     73   O  A00 X   4      83.269  56.150  70.5600  0.00  0.00     0.000 O
ATOM     74   O  A00 X   4      83.934  56.505  72.8480  0.00  0.00     0.000 OA
ATOM     75   S  A00 X   4      84.065  55.568  71.7790  0.00  0.00     0.000 S
ENDBRANCH 62 70
ENDBRANCH 57 61
ENDBRANCH 41 57
ENDBRANCH 40 44
ENDBRANCH 20 40
ENDBRANCH 19 23
ENDBRANCH 1 19
TORSDOF 14
ENDMDL
MODEL 57
REMARK VINA RESULT:      -1.0     74.597     79.375
ROOT
ATOM      1  C1  A00 X   1      89.055  51.773  44.3620  0.00  0.00     0.000 C
ATOM      2  C2  A00 X   1      88.654  50.275  44.4140  0.00  0.00     0.000 C
ATOM      3  C3  A00 X   1      89.072  49.496  45.7050  0.00  0.00     0.000 C
ATOM      4  C4  A00 X   1      90.134  50.194  46.5930  0.00  0.00     0.000 C
ATOM      5  C5  A00 X   1      90.962  51.212  45.8090  0.00  0.00     0.000 C
ATOM      6  O5  A00 X   1      90.006  52.202  45.3680  0.00  0.00     0.000 O
ATOM      7   O  A00 X   1      89.627  48.240  45.3220  0.00  0.00     0.000 O
ATOM      9  HD  A00 X   1      90.118  48.551  45.9640  0.00  0.00     0.000 HD
ATOM      9   O  A00 X   1      89.534  50.828  47.7230  0.00  0.00     0.000 O
ATOM     11  HD  A00 X   1      90.025  51.139  48.3650  0.00  0.00     0.000 HD
ENDROOT
BRANCH 2 11
ATOM     11   O  A00 X   1      87.223  50.198  44.2620  0.00  0.00     0.000 O
ATOM     12   O  A00 X   1      86.027  48.133  44.5240  0.00  0.00     0.000 OA
ATOM     13   O  A00 X   1      87.632  48.357  42.7100  0.00  0.00     0.000 OA
ATOM     14   O  A00 X   1      85.606  49.603  42.6870  0.00  0.00     0.000 OA
ATOM     15   S  A00 X   1      86.606  48.972  43.5060  0.00  0.00     0.000 S
ENDBRANCH 2 11
BRANCH 5 16
ATOM     16   C  A00 X   1      91.805  50.624  44.6730  0.00  0.00     0.000 C
ATOM     17   O  A00 X   1      92.317  51.383  43.8760  0.00  0.00     0.000 OA
ATOM     18   O  A00 X   1      91.983  49.429  44.5450  0.00  0.00     0.000 OA
ENDBRANCH 5 16
BRANCH 1 19
ATOM     19  O4  A00 X   2      89.457  52.201  43.0380  0.00  0.00     0.000 O
BRANCH 19 23
ATOM     20  C1  A00 X   2      87.515  56.009  43.3430  0.00  0.00     0.000 C
ATOM     21  C2  A00 X   2      86.758  54.879  42.6050  0.00  0.00     0.000 C
ATOM     22  C3  A00 X   2      87.361  53.500  42.9470  0.00  0.00     0.000 C
ATOM     23  C4  A00 X   2      88.881  53.487  42.6670  0.00  0.00     0.000 C
ATOM     24  C5  A00 X   2      89.517  54.672  43.4440  0.00  0.00     0.000 C
ATOM     25  O5  A00 X   2      88.918  55.910  42.9800  0.00  0.00     0.000 O
ATOM     26   O  A00 X   2      86.584  52.482  42.2950  0.00  0.00     0.000 O
ATOM     28  HD  A00 X   2      86.622  52.875  41.5240  0.00  0.00     0.000 HD
BRANCH 21 30
ATOM     28   N  A00 X   2      86.200  55.891  41.7030  0.00  0.00     0.000 N
ATOM     30  HD  A00 X   2      85.723  55.175  41.6030  0.00  0.00     0.000 HD
ATOM     30   O  A00 X   2      84.072  55.185  41.0450  0.00  0.00     0.000 OA
ATOM     31   S  A00 X   2      85.347  55.413  40.4620  0.00  0.00     0.000 S
ATOM     32   O  A00 X   2      85.409  56.522  39.5610  0.00  0.00     0.000 OA
ATOM     33   O  A00 X   2      86.016  54.277  39.9000  0.00  0.00     0.000 OA
ENDBRANCH 21 30
BRANCH 24 34
ATOM     34   C  A00 X   2      91.060  54.746  43.5180  0.00  0.00     0.000 C
ATOM     35   O  A00 X   2      93.238  54.896  40.6040  0.00  0.00     0.000 OA
ATOM     36   O  A00 X   2      91.660  54.439  42.2440  0.00  0.00     0.000 O
ATOM     37   O  A00 X   2      91.485  56.427  41.0240  0.00  0.00     0.000 OA
ATOM     38   S  A00 X   2      92.501  55.602  41.6010  0.00  0.00     0.000 S
ATOM     39   O  A00 X   2      93.291  56.162  42.6560  0.00  0.00     0.000 OA
ENDBRANCH 24 34
BRANCH 20 40
ATOM     40  O4  A00 X   3      87.360  55.731  44.7420  0.00  0.00     0.000 O
BRANCH 40 44
ATOM     41  C1  A00 X   3      88.954  55.509  47.9880  0.00  0.00     0.000 C
ATOM     42  C2  A00 X   3      87.472  55.178  47.7110  0.00  0.00     0.000 C
ATOM     43  C3  A00 X   3      86.780  56.331  46.9380  0.00  0.00     0.000 C
ATOM     44  C4  A00 X   3      87.529  56.800  45.6980  0.00  0.00     0.000 C
ATOM     45  C5  A00 X   3      89.008  57.118  46.0570  0.00  0.00     0.000 C
ATOM     46  O5  A00 X   3      89.617  56.009  46.7940  0.00  0.00     0.000 O
ATOM     47   O  A00 X   3      85.382  56.172  46.7020  0.00  0.00     0.000 O
ATOM     49  HD  A00 X   3      85.586  56.524  45.9380  0.00  0.00     0.000 HD
BRANCH 42 49
ATOM     49   O  A00 X   3      87.447  53.947  46.9550  0.00  0.00     0.000 O
ATOM     50   O  A00 X   3      85.773  52.573  45.9350  0.00  0.00     0.000 OA
ATOM     51   O  A00 X   3      85.348  53.494  48.0700  0.00  0.00     0.000 OA
ATOM     52   O  A00 X   3      87.013  51.830  47.8730  0.00  0.00     0.000 OA
ATOM     53   S  A00 X   3      86.334  52.889  47.2110  0.00  0.00     0.000 S
ENDBRANCH 42 49
BRANCH 45 54
ATOM     54   C  A00 X   3      89.139  58.465  46.7780  0.00  0.00     0.000 C
ATOM     55   O  A00 X   3      88.154  59.053  47.1770  0.00  0.00     0.000 OA
ATOM     56   O  A00 X   3      90.235  58.971  46.9630  0.00  0.00     0.000 OA
ENDBRANCH 45 54
BRANCH 41 57
ATOM     57  O4  A00 X   4      89.103  56.365  49.1430  0.00  0.00     0.000 O
BRANCH 57 61
ATOM     58  C1  A00 X   4      92.146  56.685  52.1890  0.00  0.00     0.000 C
ATOM     59  C2  A00 X   4      92.542  56.948  50.7140  0.00  0.00     0.000 C
ATOM     60  C3  A00 X   4      91.332  57.160  49.7810  0.00  0.00     0.000 C
ATOM     61  C4  A00 X   4      90.255  56.073  49.9840  0.00  0.00     0.000 C
ATOM     62  C5  A00 X   4      89.855  56.129  51.4790  0.00  0.00     0.000 C
ATOM     63  O5  A00 X   4      91.009  55.798  52.2940  0.00  0.00     0.000 O
BRANCH 59 66
ATOM     64   N  A00 X   4      93.261  55.781  50.1730  0.00  0.00     0.000 N
ATOM     66  HD  A00 X   4      93.082  55.006  50.5160  0.00  0.00     0.000 HD
ATOM     66   O  A00 X   4      95.249  56.644  51.2220  0.00  0.00     0.000 OA
ATOM     67   S  A00 X   4      94.858  55.838  50.1080  0.00  0.00     0.000 S
ATOM     68   O  A00 X   4      95.171  54.443  50.2160  0.00  0.00     0.000 OA
ATOM     69   O  A00 X   4      95.039  56.382  48.7920  0.00  0.00     0.000 OA
ENDBRANCH 59 66
BRANCH 62 70
ATOM     70   C  A00 X   4      88.696  55.178  51.8600  0.00  0.00     0.000 C
ATOM     71   O  A00 X   4      88.697  51.561  52.0210  0.00  0.00     0.000 OA
ATOM     72   O  A00 X   4      87.194  53.050  50.9870  0.00  0.00     0.000 OA
ATOM     73   O  A00 X   4      89.209  53.847  52.0310  0.00  0.00     0.000 O
ATOM     74   O  A00 X   4      89.363  52.624  49.9610  0.00  0.00     0.000 OA
ATOM     75   S  A00 X   4      88.588  52.703  51.1570  0.00  0.00     0.000 S
ENDBRANCH 62 70
ENDBRANCH 57 61
ENDBRANCH 41 57
ENDBRANCH 40 44
ENDBRANCH 20 40
ENDBRANCH 19 23
ENDBRANCH 1 19
TORSDOF 14
ENDMDL
MODEL 58
REMARK VINA RESULT:      -1.0     51.237     56.089
ROOT
ATOM      1  C1  A00 X   1      38.765  67.453  25.0960  0.00  0.00     0.000 C
ATOM      2  C2  A00 X   1      40.179  66.932  25.4660  0.00  0.00     0.000 C
ATOM      3  C3  A00 X   1      41.233  66.925  24.3100  0.00  0.00     0.000 C
ATOM      4  C4  A00 X   1      40.657  67.081  22.8800  0.00  0.00     0.000 C
ATOM      5  C5  A00 X   1      39.186  66.674  22.8020  0.00  0.00     0.000 C
ATOM      6  O5  A00 X   1      38.503  67.598  23.6790  0.00  0.00     0.000 O
ATOM      7   O  A00 X   1      41.928  65.680  24.3330  0.00  0.00     0.000 O
ATOM      9  HD  A00 X   1      41.770  65.869  23.5030  0.00  0.00     0.000 HD
ATOM      9   O  A00 X   1      40.815  68.415  22.3970  0.00  0.00     0.000 O
ATOM     11  HD  A00 X   1      40.657  68.604  21.5660  0.00  0.00     0.000 HD
ENDROOT
BRANCH 2 11
ATOM     11   O  A00 X   1      40.676  67.744  26.5490  0.00  0.00     0.000 O
ATOM     12   O  A00 X   1      42.933  67.553  27.3470  0.00  0.00     0.000 OA
ATOM     13   O  A00 X   1      41.425  65.658  27.5760  0.00  0.00     0.000 OA
ATOM     14   O  A00 X   1      41.074  67.638  28.8470  0.00  0.00     0.000 OA
ATOM     15   S  A00 X   1      41.600  67.083  27.6290  0.00  0.00     0.000 S
ENDBRANCH 2 11
BRANCH 5 16
ATOM     16   C  A00 X   1      38.903  65.203  23.1220  0.00  0.00     0.000 C
ATOM     17   O  A00 X   1      37.752  64.855  23.2900  0.00  0.00     0.000 OA
ATOM     18   O  A00 X   1      39.786  64.373  23.2070  0.00  0.00     0.000 OA
ENDBRANCH 5 16
BRANCH 1 19
ATOM     19  O4  A00 X   2      37.706  66.719  25.7570  0.00  0.00     0.000 O
BRANCH 19 23
ATOM     20  C1  A00 X   2      35.321  70.206  26.4760  0.00  0.00     0.000 C
ATOM     21  C2  A00 X   2      36.205  69.693  27.6380  0.00  0.00     0.000 C
ATOM     22  C3  A00 X   2      37.298  68.737  27.1170  0.00  0.00     0.000 C
ATOM     23  C4  A00 X   2      36.669  67.592  26.2910  0.00  0.00     0.000 C
ATOM     24  C5  A00 X   2      35.798  68.233  25.1770  0.00  0.00     0.000 C
ATOM     25  O5  A00 X   2      34.768  69.046  25.7990  0.00  0.00     0.000 O
ATOM     26   O  A00 X   2      38.132  68.344  28.2200  0.00  0.00     0.000 O
ATOM     28  HD  A00 X   2      37.458  68.122  28.7160  0.00  0.00     0.000 HD
BRANCH 21 30
ATOM     28   N  A00 X   2      35.161  70.124  28.5740  0.00  0.00     0.000 N
ATOM     30  HD  A00 X   2      35.879  69.994  29.0410  0.00  0.00     0.000 HD
ATOM     30   O  A00 X   2      36.194  70.776  30.5660  0.00  0.00     0.000 OA
ATOM     31   S  A00 X   2      35.316  69.759  30.1040  0.00  0.00     0.000 S
ATOM     32   O  A00 X   2      33.980  69.840  30.6080  0.00  0.00     0.000 OA
ATOM     33   O  A00 X   2      35.793  68.410  30.1710  0.00  0.00     0.000 OA
ENDBRANCH 21 30
BRANCH 24 34
ATOM     34   C  A00 X   2      35.240  67.309  24.0690  0.00  0.00     0.000 C
ATOM     35   O  A00 X   2      33.119  64.418  24.6990  0.00  0.00     0.000 OA
ATOM     36   O  A00 X   2      34.744  66.073  24.6200  0.00  0.00     0.000 O
ATOM     37   O  A00 X   2      32.618  66.610  25.4330  0.00  0.00     0.000 OA
ATOM     38   S  A00 X   2      33.209  65.810  24.4040  0.00  0.00     0.000 S
ATOM     39   O  A00 X   2      32.925  66.162  23.0450  0.00  0.00     0.000 OA
ENDBRANCH 24 34
BRANCH 20 40
ATOM     40  O4  A00 X   3      36.210  70.901  25.5900  0.00  0.00     0.000 O
BRANCH 40 44
ATOM     41  C1  A00 X   3      37.257  71.510  22.1760  0.00  0.00     0.000 C
ATOM     42  C2  A00 X   3      37.919  72.134  23.4240  0.00  0.00     0.000 C
ATOM     43  C3  A00 X   3      36.858  72.787  24.3470  0.00  0.00     0.000 C
ATOM     44  C4  A00 X   3      35.673  71.889  24.6840  0.00  0.00     0.000 C
ATOM     45  C5  A00 X   3      35.060  71.306  23.3800  0.00  0.00     0.000 C
ATOM     46  O5  A00 X   3      36.098  70.710  22.5360  0.00  0.00     0.000 O
ATOM     47   O  A00 X   3      37.364  73.471  25.4910  0.00  0.00     0.000 O
ATOM     49  HD  A00 X   3      36.670  73.118  25.8700  0.00  0.00     0.000 HD
BRANCH 42 49
ATOM     49   O  A00 X   3      38.627  71.073  24.1020  0.00  0.00     0.000 O
ATOM     50   O  A00 X   3      39.915  70.856  26.1080  0.00  0.00     0.000 OA
ATOM     51   O  A00 X   3      40.214  72.777  24.7620  0.00  0.00     0.000 OA
ATOM     52   O  A00 X   3      40.937  70.689  23.9230  0.00  0.00     0.000 OA
ATOM     53   S  A00 X   3      40.005  71.350  24.7700  0.00  0.00     0.000 S
ENDBRANCH 42 49
BRANCH 45 54
ATOM     54   C  A00 X   3      34.203  72.341  22.6430  0.00  0.00     0.000 C
ATOM     55   O  A00 X   3      34.202  73.504  22.9910  0.00  0.00     0.000 OA
ATOM     56   O  A00 X   3      33.507  72.015  21.6940  0.00  0.00     0.000 OA
ENDBRANCH 45 54
BRANCH 41 57
ATOM     57  O4  A00 X   4      36.993  72.503  21.1600  0.00  0.00     0.000 O
BRANCH 57 61
ATOM     58  C1  A00 X   4      37.002  72.366  16.8450  0.00  0.00     0.000 C
ATOM     59  C2  A00 X   4      36.007  71.460  17.6130  0.00  0.00     0.000 C
ATOM     60  C3  A00 X   4      35.841  71.849  19.0960  0.00  0.00     0.000 C
ATOM     61  C4  A00 X   4      37.205  72.058  19.7900  0.00  0.00     0.000 C
ATOM     62  C5  A00 X   4      37.944  73.151  18.9790  0.00  0.00     0.000 C
ATOM     63  O5  A00 X   4      38.177  72.669  17.6310  0.00  0.00     0.000 O
BRANCH 59 66
ATOM     64   N  A00 X   4      36.498  70.071  17.6200  0.00  0.00     0.000 N
ATOM     66  HD  A00 X   4      37.354  69.949  17.5670  0.00  0.00     0.000 HD
ATOM     66   O  A00 X   4      35.551  69.830  15.4190  0.00  0.00     0.000 OA
ATOM     67   S  A00 X   4      35.874  69.041  16.5670  0.00  0.00     0.000 S
ATOM     68   O  A00 X   4      36.976  68.138  16.4040  0.00  0.00     0.000 OA
ATOM     69   O  A00 X   4      34.789  68.512  17.3430  0.00  0.00     0.000 OA
ENDBRANCH 59 66
BRANCH 62 70
ATOM     70   C  A00 X   4      39.300  73.582  19.5880  0.00  0.00     0.000 C
ATOM     71   O  A00 X   4      42.382  71.695  19.8080  0.00  0.00     0.000 OA
ATOM     72   O  A00 X   4      41.209  72.914  21.4460  0.00  0.00     0.000 OA
ATOM     73   O  A00 X   4      40.306  72.618  19.2360  0.00  0.00     0.000 O
ATOM     74   O  A00 X   4      40.375  70.736  20.7390  0.00  0.00     0.000 OA
ATOM     75   S  A00 X   4      41.093  71.922  20.4000  0.00  0.00     0.000 S
ENDBRANCH 62 70
ENDBRANCH 57 61
ENDBRANCH 41 57
ENDBRANCH 40 44
ENDBRANCH 20 40
ENDBRANCH 19 23
ENDBRANCH 1 19
TORSDOF 14
ENDMDL
MODEL 59
REMARK VINA RESULT:      -1.0     51.496     56.422
ROOT
ATOM      1  C1  A00 X   1      39.933  64.168  35.2880  0.00  0.00     0.000 C
ATOM      2  C2  A00 X   1      39.276  63.896  33.9080  0.00  0.00     0.000 C
ATOM      3  C3  A00 X   1      37.718  63.756  33.9050  0.00  0.00     0.000 C
ATOM      4  C4  A00 X   1      37.063  63.539  35.2940  0.00  0.00     0.000 C
ATOM      5  C5  A00 X   1      38.048  62.966  36.3130  0.00  0.00     0.000 C
ATOM      6  O5  A00 X   1      39.074  63.976  36.4390  0.00  0.00     0.000 O
ATOM      7   O  A00 X   1      37.361  62.629  33.1080  0.00  0.00     0.000 O
ATOM      9  HD  A00 X   1      36.853  62.617  33.8090  0.00  0.00     0.000 HD
ATOM      9   O  A00 X   1      36.495  64.747  35.7980  0.00  0.00     0.000 O
ATOM     11  HD  A00 X   1      35.986  64.736  36.4990  0.00  0.00     0.000 HD
ENDROOT
BRANCH 2 11
ATOM     11   O  A00 X   1      39.652  64.970  33.0240  0.00  0.00     0.000 O
ATOM     12   O  A00 X   1      38.707  65.197  30.8280  0.00  0.00     0.000 OA
ATOM     13   O  A00 X   1      40.066  63.246  31.3430  0.00  0.00     0.000 OA
ATOM     14   O  A00 X   1      41.057  65.404  31.2110  0.00  0.00     0.000 OA
ATOM     15   S  A00 X   1      39.862  64.660  31.5020  0.00  0.00     0.000 S
ENDBRANCH 2 11
BRANCH 5 16
ATOM     16   C  A00 X   1      38.595  61.576  35.9750  0.00  0.00     0.000 C
ATOM     17   O  A00 X   1      39.534  61.149  36.6150  0.00  0.00     0.000 OA
ATOM     18   O  A00 X   1      38.120  60.885  35.0960  0.00  0.00     0.000 OA
ENDBRANCH 5 16
BRANCH 1 19
ATOM     19  O4  A00 X   2      41.198  63.481  35.4520  0.00  0.00     0.000 O
BRANCH 19 23
ATOM     20  C1  A00 X   2      43.070  66.763  37.4740  0.00  0.00     0.000 C
ATOM     21  C2  A00 X   2      43.337  66.612  35.9560  0.00  0.00     0.000 C
ATOM     22  C3  A00 X   2      42.287  65.689  35.3030  0.00  0.00     0.000 C
ATOM     23  C4  A00 X   2      42.224  64.332  36.0390  0.00  0.00     0.000 C
ATOM     24  C5  A00 X   2      41.972  64.619  37.5440  0.00  0.00     0.000 C
ATOM     25  O5  A00 X   2      43.062  65.431  38.0530  0.00  0.00     0.000 O
ATOM     26   O  A00 X   2      42.536  65.637  33.8880  0.00  0.00     0.000 O
ATOM     28  HD  A00 X   2      43.377  65.456  33.9920  0.00  0.00     0.000 HD
BRANCH 21 30
ATOM     28   N  A00 X   2      44.694  67.120  36.1820  0.00  0.00     0.000 N
ATOM     30  HD  A00 X   2      44.545  67.172  35.3310  0.00  0.00     0.000 HD
ATOM     30   O  A00 X   2      45.358  68.295  34.2750  0.00  0.00     0.000 OA
ATOM     31   S  A00 X   2      45.716  67.114  34.9770  0.00  0.00     0.000 S
ATOM     32   O  A00 X   2      46.995  67.157  35.6170  0.00  0.00     0.000 OA
ATOM     33   O  A00 X   2      45.548  65.871  34.2850  0.00  0.00     0.000 OA
ENDBRANCH 21 30
BRANCH 24 34
ATOM     34   C  A00 X   2      41.638  63.422  38.4650  0.00  0.00     0.000 C
ATOM     35   O  A00 X   2      43.800  60.527  38.9140  0.00  0.00     0.000 OA
ATOM     36   O  A00 X   2      42.481  62.289  38.1770  0.00  0.00     0.000 O
ATOM     37   O  A00 X   2      44.487  62.760  39.2840  0.00  0.00     0.000 OA
ATOM     38   S  A00 X   2      43.407  61.824  39.3590  0.00  0.00     0.000 S
ATOM     39   O  A00 X   2      42.596  61.840  40.5390  0.00  0.00     0.000 OA
ENDBRANCH 24 34
BRANCH 20 40
ATOM     40  O4  A00 X   3      41.762  67.342  37.5820  0.00  0.00     0.000 O
BRANCH 40 44
ATOM     41  C1  A00 X   3      38.535  67.267  39.2270  0.00  0.00     0.000 C
ATOM     42  C2  A00 X   3      38.915  68.226  38.0790  0.00  0.00     0.000 C
ATOM     43  C3  A00 X   3      40.251  68.953  38.3820  0.00  0.00     0.000 C
ATOM     44  C4  A00 X   3      41.393  68.033  38.7940  0.00  0.00     0.000 C
ATOM     45  C5  A00 X   3      40.936  67.104  39.9540  0.00  0.00     0.000 C
ATOM     46  O5  A00 X   3      39.668  66.448  39.6300  0.00  0.00     0.000 O
ATOM     47   O  A00 X   3      40.658  69.931  37.4280  0.00  0.00     0.000 O
ATOM     49  HD  A00 X   3      41.442  69.601  37.5910  0.00  0.00     0.000 HD
BRANCH 42 49
ATOM     49   O  A00 X   3      39.008  67.432  36.8760  0.00  0.00     0.000 O
ATOM     50   O  A00 X   3      39.588  67.816  34.5860  0.00  0.00     0.000 OA
ATOM     51   O  A00 X   3      38.247  69.409  35.7060  0.00  0.00     0.000 OA
ATOM     52   O  A00 X   3      37.324  67.282  35.2470  0.00  0.00     0.000 OA
ATOM     53   S  A00 X   3      38.518  68.006  35.5150  0.00  0.00     0.000 S
ENDBRANCH 42 49
BRANCH 45 54
ATOM     54   C  A00 X   3      40.905  67.845  41.2960  0.00  0.00     0.000 C
ATOM     55   O  A00 X   3      41.016  69.053  41.3390  0.00  0.00     0.000 OA
ATOM     56   O  A00 X   3      40.771  67.234  42.3450  0.00  0.00     0.000 OA
ENDBRANCH 45 54
BRANCH 41 57
ATOM     57  O4  A00 X   4      37.899  67.967  40.3200  0.00  0.00     0.000 O
BRANCH 57 61
ATOM     58  C1  A00 X   4      34.827  66.844  43.1380  0.00  0.00     0.000 C
ATOM     59  C2  A00 X   4      36.152  66.041  43.1270  0.00  0.00     0.000 C
ATOM     60  C3  A00 X   4      37.288  66.741  42.3530  0.00  0.00     0.000 C
ATOM     61  C4  A00 X   4      36.817  67.243  40.9720  0.00  0.00     0.000 C
ATOM     62  C5  A00 X   4      35.621  68.191  41.2370  0.00  0.00     0.000 C
ATOM     63  O5  A00 X   4      34.543  67.439  41.8510  0.00  0.00     0.000 O
BRANCH 59 66
ATOM     64   N  A00 X   4      35.948  64.749  42.4480  0.00  0.00     0.000 N
ATOM     66  HD  A00 X   4      35.327  64.707  41.8450  0.00  0.00     0.000 HD
ATOM     66   O  A00 X   4      35.058  63.913  44.5240  0.00  0.00     0.000 OA
ATOM     67   S  A00 X   4      35.727  63.446  43.3500  0.00  0.00     0.000 S
ATOM     68   O  A00 X   4      34.931  62.649  42.4620  0.00  0.00     0.000 OA
ATOM     69   O  A00 X   4      37.084  62.999  43.4850  0.00  0.00     0.000 OA
ENDBRANCH 59 66
BRANCH 62 70
ATOM     70   C  A00 X   4      35.074  68.888  39.9680  0.00  0.00     0.000 C
ATOM     71   O  A00 X   4      33.279  67.429  37.1830  0.00  0.00     0.000 OA
ATOM     72   O  A00 X   4      35.142  68.869  37.2230  0.00  0.00     0.000 OA
ATOM     73   O  A00 X   4      34.220  67.977  39.2570  0.00  0.00     0.000 O
ATOM     74   O  A00 X   4      35.430  66.513  37.7750  0.00  0.00     0.000 OA
ATOM     75   S  A00 X   4      34.573  67.655  37.7640  0.00  0.00     0.000 S
ENDBRANCH 62 70
ENDBRANCH 57 61
ENDBRANCH 41 57
ENDBRANCH 40 44
ENDBRANCH 20 40
ENDBRANCH 19 23
ENDBRANCH 1 19
TORSDOF 14
ENDMDL
MODEL 60
REMARK VINA RESULT:      -1.0     51.398     56.271
ROOT
ATOM      1  C1  A00 X   1      39.933  64.168  35.2880  0.00  0.00     0.000 C
ATOM      2  C2  A00 X   1      38.911  63.852  34.1640  0.00  0.00     0.000 C
ATOM      3  C3  A00 X   1      37.527  63.291  34.6300  0.00  0.00     0.000 C
ATOM      4  C4  A00 X   1      37.473  62.777  36.0920  0.00  0.00     0.000 C
ATOM      5  C5  A00 X   1      38.857  62.407  36.6250  0.00  0.00     0.000 C
ATOM      6  O5  A00 X   1      39.604  63.644  36.5980  0.00  0.00     0.000 O
ATOM      7   O  A00 X   1      37.178  62.186  33.8000  0.00  0.00     0.000 O
ATOM      9  HD  A00 X   1      36.967  61.972  34.6120  0.00  0.00     0.000 HD
ATOM      9   O  A00 X   1      36.862  63.733  36.9590  0.00  0.00     0.000 O
ATOM     11  HD  A00 X   1      36.650  63.518  37.7710  0.00  0.00     0.000 HD
ENDROOT
BRANCH 2 11
ATOM     11   O  A00 X   1      38.697  65.064  33.4130  0.00  0.00     0.000 O
ATOM     12   O  A00 X   1      37.012  65.221  31.7090  0.00  0.00     0.000 OA
ATOM     13   O  A00 X   1      38.869  63.680  31.4080  0.00  0.00     0.000 OA
ATOM     14   O  A00 X   1      39.233  66.030  31.3560  0.00  0.00     0.000 OA
ATOM     15   S  A00 X   1      38.420  64.963  31.8730  0.00  0.00     0.000 S
ENDBRANCH 2 11
BRANCH 5 16
ATOM     16   C  A00 X   1      39.550  61.257  35.8880  0.00  0.00     0.000 C
ATOM     17   O  A00 X   1      40.724  61.048  36.1090  0.00  0.00     0.000 OA
ATOM     18   O  A00 X   1      38.965  60.544  35.0960  0.00  0.00     0.000 OA
ENDBRANCH 5 16
BRANCH 1 19
ATOM     19  O4  A00 X   2      41.295  63.842  34.9160  0.00  0.00     0.000 O
BRANCH 19 23
ATOM     20  C1  A00 X   2      42.964  67.315  36.7920  0.00  0.00     0.000 C
ATOM     21  C2  A00 X   2      42.704  67.382  35.2670  0.00  0.00     0.000 C
ATOM     22  C3  A00 X   2      41.730  66.269  34.8270  0.00  0.00     0.000 C
ATOM     23  C4  A00 X   2      42.240  64.886  35.2890  0.00  0.00     0.000 C
ATOM     24  C5  A00 X   2      42.478  64.955  36.8220  0.00  0.00     0.000 C
ATOM     25  O5  A00 X   2      43.463  65.986  37.0960  0.00  0.00     0.000 O
ATOM     26   O  A00 X   2      41.468  66.416  33.4210  0.00  0.00     0.000 O
ATOM     28  HD  A00 X   2      42.309  66.464  33.2180  0.00  0.00     0.000 HD
BRANCH 21 30
ATOM     28   N  A00 X   2      43.900  68.220  35.1380  0.00  0.00     0.000 N
ATOM     30  HD  A00 X   2      43.452  68.306  34.4010  0.00  0.00     0.000 HD
ATOM     30   O  A00 X   2      43.562  69.700  33.3610  0.00  0.00     0.000 OA
ATOM     31   S  A00 X   2      44.404  68.604  33.6890  0.00  0.00     0.000 S
ATOM     32   O  A00 X   2      45.781  68.938  33.8870  0.00  0.00     0.000 OA
ATOM     33   O  A00 X   2      44.289  67.430  32.8760  0.00  0.00     0.000 OA
ENDBRANCH 21 30
BRANCH 24 34
ATOM     34   C  A00 X   2      42.772  63.634  37.5710  0.00  0.00     0.000 C
ATOM     35   O  A00 X   2      45.550  61.416  36.7840  0.00  0.00     0.000 OA
ATOM     36   O  A00 X   2      43.693  62.807  36.8320  0.00  0.00     0.000 O
ATOM     37   O  A00 X   2      45.798  63.708  37.3100  0.00  0.00     0.000 OA
ATOM     38   S  A00 X   2      45.056  62.509  37.5550  0.00  0.00     0.000 S
ATOM     39   O  A00 X   2      44.733  62.195  38.9150  0.00  0.00     0.000 OA
ENDBRANCH 24 34
BRANCH 20 40
ATOM     40  O4  A00 X   3      41.683  67.500  37.4120  0.00  0.00     0.000 O
BRANCH 40 44
ATOM     41  C1  A00 X   3      39.353  66.394  39.9550  0.00  0.00     0.000 C
ATOM     42  C2  A00 X   3      39.075  67.521  38.9370  0.00  0.00     0.000 C
ATOM     43  C3  A00 X   3      40.229  68.555  38.9260  0.00  0.00     0.000 C
ATOM     44  C4  A00 X   3      41.620  67.951  38.7820  0.00  0.00     0.000 C
ATOM     45  C5  A00 X   3      41.826  66.831  39.8410  0.00  0.00     0.000 C
ATOM     46  O5  A00 X   3      40.709  65.884  39.8230  0.00  0.00     0.000 O
ATOM     47   O  A00 X   3      40.040  69.691  38.0830  0.00  0.00     0.000 O
ATOM     49  HD  A00 X   3      40.884  69.574  37.9260  0.00  0.00     0.000 HD
BRANCH 42 49
ATOM     49   O  A00 X   3      38.914  66.894  37.6460  0.00  0.00     0.000 O
ATOM     50   O  A00 X   3      38.544  67.629  35.3980  0.00  0.00     0.000 OA
ATOM     51   O  A00 X   3      37.362  68.684  37.1520  0.00  0.00     0.000 OA
ATOM     52   O  A00 X   3      36.844  66.437  36.6360  0.00  0.00     0.000 OA
ATOM     53   S  A00 X   3      37.859  67.433  36.6360  0.00  0.00     0.000 S
ENDBRANCH 42 49
BRANCH 45 54
ATOM     54   C  A00 X   3      42.104  67.410  41.2330  0.00  0.00     0.000 C
ATOM     55   O  A00 X   3      41.945  68.594  41.4540  0.00  0.00     0.000 OA
ATOM     56   O  A00 X   3      42.491  66.694  42.1420  0.00  0.00     0.000 OA
ENDBRANCH 45 54
BRANCH 41 57
ATOM     57  O4  A00 X   4      39.003  66.790  41.3000  0.00  0.00     0.000 O
BRANCH 57 61
ATOM     58  C1  A00 X   4      37.465  64.617  44.6980  0.00  0.00     0.000 C
ATOM     59  C2  A00 X   4      38.845  64.213  44.1230  0.00  0.00     0.000 C
ATOM     60  C3  A00 X   4      39.445  65.265  43.1680  0.00  0.00     0.000 C
ATOM     61  C4  A00 X   4      38.415  65.741  42.1210  0.00  0.00     0.000 C
ATOM     62  C5  A00 X   4      37.208  66.297  42.9170  0.00  0.00     0.000 C
ATOM     63  O5  A00 X   4      36.618  65.225  43.6970  0.00  0.00     0.000 O
BRANCH 59 66
ATOM     64   N  A00 X   4      38.713  62.981  43.3250  0.00  0.00     0.000 N
ATOM     66  HD  A00 X   4      37.947  62.826  42.9530  0.00  0.00     0.000 HD
ATOM     66   O  A00 X   4      38.829  61.749  45.3900  0.00  0.00     0.000 OA
ATOM     67   S  A00 X   4      39.127  61.592  44.0010  0.00  0.00     0.000 S
ATOM     68   O  A00 X   4      38.273  60.691  43.2850  0.00  0.00     0.000 OA
ATOM     69   O  A00 X   4      40.508  61.525  43.6160  0.00  0.00     0.000 OA
ENDBRANCH 59 66
BRANCH 62 70
ATOM     70   C  A00 X   4      36.105  66.928  42.0350  0.00  0.00     0.000 C
ATOM     71   O  A00 X   4      33.823  65.292  39.7500  0.00  0.00     0.000 OA
ATOM     72   O  A00 X   4      35.201  67.178  39.4540  0.00  0.00     0.000 OA
ATOM     73   O  A00 X   4      35.286  65.887  41.4810  0.00  0.00     0.000 O
ATOM     74   O  A00 X   4      36.192  64.952  39.4540  0.00  0.00     0.000 OA
ATOM     75   S  A00 X   4      35.152  65.810  39.9210  0.00  0.00     0.000 S
ENDBRANCH 62 70
ENDBRANCH 57 61
ENDBRANCH 41 57
ENDBRANCH 40 44
ENDBRANCH 20 40
ENDBRANCH 19 23
ENDBRANCH 1 19
TORSDOF 14
ENDMDL
MODEL 61
REMARK VINA RESULT:      -1.0     70.517     75.435
ROOT
ATOM      1  C1  A00 X   1      46.880  79.662  46.3320  0.00  0.00     0.000 C
ATOM      2  C2  A00 X   1      46.174  78.948  45.1490  0.00  0.00     0.000 C
ATOM      3  C3  A00 X   1      46.901  79.027  43.7660  0.00  0.00     0.000 C
ATOM      4  C4  A00 X   1      48.020  80.095  43.6590  0.00  0.00     0.000 C
ATOM      5  C5  A00 X   1      47.852  81.212  44.6890  0.00  0.00     0.000 C
ATOM      6  O5  A00 X   1      47.965  80.551  45.9690  0.00  0.00     0.000 O
ATOM      7   O  A00 X   1      45.940  79.345  42.7620  0.00  0.00     0.000 O
ATOM      9  HD  A00 X   1      46.652  79.807  42.5900  0.00  0.00     0.000 HD
ATOM      9   O  A00 X   1      49.315  79.509  43.7900  0.00  0.00     0.000 O
ATOM     11  HD  A00 X   1      50.027  79.971  43.6180  0.00  0.00     0.000 HD
ENDROOT
BRANCH 2 11
ATOM     11   O  A00 X   1      46.004  77.564  45.5110  0.00  0.00     0.000 O
ATOM     12   O  A00 X   1      45.204  75.930  43.9430  0.00  0.00     0.000 OA
ATOM     13   O  A00 X   1      43.742  77.756  44.6100  0.00  0.00     0.000 OA
ATOM     14   O  A00 X   1      44.341  76.062  46.1680  0.00  0.00     0.000 OA
ATOM     15   S  A00 X   1      44.738  76.796  44.9970  0.00  0.00     0.000 S
ENDBRANCH 2 11
BRANCH 5 16
ATOM     16   C  A00 X   1      46.574  82.044  44.5400  0.00  0.00     0.000 C
ATOM     17   O  A00 X   1      46.264  82.800  45.4380  0.00  0.00     0.000 OA
ATOM     18   O  A00 X   1      45.865  81.979  43.5550  0.00  0.00     0.000 OA
ENDBRANCH 5 16
BRANCH 1 19
ATOM     19  O4  A00 X   2      45.949  80.307  47.2350  0.00  0.00     0.000 O
BRANCH 19 23
ATOM     20  C1  A00 X   2      48.116  79.183  50.7580  0.00  0.00     0.000 C
ATOM     21  C2  A00 X   2      46.895  78.316  50.3630  0.00  0.00     0.000 C
ATOM     22  C3  A00 X   2      46.499  78.563  48.8920  0.00  0.00     0.000 C
ATOM     23  C4  A00 X   2      46.273  80.070  48.6350  0.00  0.00     0.000 C
ATOM     24  C5  A00 X   2      47.553  80.826  49.0870  0.00  0.00     0.000 C
ATOM     25  O5  A00 X   2      47.773  80.570  50.4990  0.00  0.00     0.000 O
ATOM     26   O  A00 X   2      45.409  77.689  48.5550  0.00  0.00     0.000 O
ATOM     28  HD  A00 X   2      44.945  77.916  49.2500  0.00  0.00     0.000 HD
BRANCH 21 30
ATOM     28   N  A00 X   2      46.624  78.115  51.7890  0.00  0.00     0.000 N
ATOM     30  HD  A00 X   2      46.167  77.516  51.3600  0.00  0.00     0.000 HD
ATOM     30   O  A00 X   2      45.668  75.999  52.0560  0.00  0.00     0.000 OA
ATOM     31   S  A00 X   2      45.299  77.362  52.2100  0.00  0.00     0.000 S
ATOM     32   O  A00 X   2      45.086  77.780  53.5610  0.00  0.00     0.000 OA
ATOM     33   O  A00 X   2      44.248  77.850  51.3670  0.00  0.00     0.000 OA
ENDBRANCH 21 30
BRANCH 24 34
ATOM     34   C  A00 X   2      47.677  82.324  48.7250  0.00  0.00     0.000 C
ATOM     35   O  A00 X   2      45.278  84.872  49.7300  0.00  0.00     0.000 OA
ATOM     36   O  A00 X   2      46.433  83.019  48.9420  0.00  0.00     0.000 O
ATOM     37   O  A00 X   2      46.393  83.436  51.2430  0.00  0.00     0.000 OA
ATOM     38   S  A00 X   2      46.484  84.167  50.0160  0.00  0.00     0.000 S
ATOM     39   O  A00 X   2      47.689  84.900  49.7680  0.00  0.00     0.000 OA
ENDBRANCH 24 34
BRANCH 20 40
ATOM     40  O4  A00 X   3      49.178  78.779  49.8810  0.00  0.00     0.000 O
BRANCH 40 44
ATOM     41  C1  A00 X   3      51.886  79.826  47.7150  0.00  0.00     0.000 C
ATOM     42  C2  A00 X   3      51.456  78.360  47.9410  0.00  0.00     0.000 C
ATOM     43  C3  A00 X   3      51.365  78.036  49.4540  0.00  0.00     0.000 C
ATOM     44  C4  A00 X   3      50.546  79.030  50.2670  0.00  0.00     0.000 C
ATOM     45  C5  A00 X   3      51.040  80.478  49.9900  0.00  0.00     0.000 C
ATOM     46  O5  A00 X   3      51.121  80.737  48.5510  0.00  0.00     0.000 O
ATOM     47   O  A00 X   3      51.059  76.682  49.7840  0.00  0.00     0.000 O
ATOM     49  HD  A00 X   3      50.582  77.058  50.4010  0.00  0.00     0.000 HD
BRANCH 42 49
ATOM     49   O  A00 X   3      50.180  78.187  47.2860  0.00  0.00     0.000 O
ATOM     50   O  A00 X   3      48.584  76.420  47.0400  0.00  0.00     0.000 OA
ATOM     51   O  A00 X   3      50.887  75.911  46.8680  0.00  0.00     0.000 OA
ATOM     52   O  A00 X   3      49.892  77.216  45.1680  0.00  0.00     0.000 OA
ATOM     53   S  A00 X   3      49.851  76.860  46.5440  0.00  0.00     0.000 S
ENDBRANCH 42 49
BRANCH 45 54
ATOM     54   C  A00 X   3      52.347  80.784  50.7320  0.00  0.00     0.000 C
ATOM     55   O  A00 X   3      52.791  81.913  50.7650  0.00  0.00     0.000 OA
ATOM     56   O  A00 X   3      52.964  79.897  51.3020  0.00  0.00     0.000 OA
ENDBRANCH 45 54
BRANCH 41 57
ATOM     57  O4  A00 X   4      53.318  79.986  47.8290  0.00  0.00     0.000 O
BRANCH 57 61
ATOM     58  C1  A00 X   4      56.151  82.577  45.8550  0.00  0.00     0.000 C
ATOM     59  C2  A00 X   4      55.021  83.220  46.6980  0.00  0.00     0.000 C
ATOM     60  C3  A00 X   4      54.306  82.221  47.6300  0.00  0.00     0.000 C
ATOM     61  C4  A00 X   4      53.912  80.925  46.8890  0.00  0.00     0.000 C
ATOM     62  C5  A00 X   4      55.223  80.342  46.3040  0.00  0.00     0.000 C
ATOM     63  O5  A00 X   4      55.775  81.278  45.3440  0.00  0.00     0.000 O
BRANCH 59 66
ATOM     64   N  A00 X   4      53.975  83.749  45.8040  0.00  0.00     0.000 N
ATOM     66  HD  A00 X   4      53.877  83.367  45.0330  0.00  0.00     0.000 HD
ATOM     66   O  A00 X   4      55.346  85.709  45.5240  0.00  0.00     0.000 OA
ATOM     67   S  A00 X   4      53.972  85.317  45.4870  0.00  0.00     0.000 S
ATOM     68   O  A00 X   4      53.366  85.316  44.1870  0.00  0.00     0.000 OA
ATOM     69   O  A00 X   4      53.113  85.785  46.5370  0.00  0.00     0.000 OA
ENDBRANCH 59 66
BRANCH 62 70
ATOM     70   C  A00 X   4      55.049  78.970  45.6100  0.00  0.00     0.000 C
ATOM     71   O  A00 X   4      53.341  78.203  42.5120  0.00  0.00     0.000 OA
ATOM     72   O  A00 X   4      53.194  77.196  44.6350  0.00  0.00     0.000 OA
ATOM     73   O  A00 X   4      54.523  79.170  44.2880  0.00  0.00     0.000 O
ATOM     74   O  A00 X   4      52.121  79.349  44.2470  0.00  0.00     0.000 OA
ATOM     75   S  A00 X   4      53.180  78.451  43.9170  0.00  0.00     0.000 S
ENDBRANCH 62 70
ENDBRANCH 57 61
ENDBRANCH 41 57
ENDBRANCH 40 44
ENDBRANCH 20 40
ENDBRANCH 19 23
ENDBRANCH 1 19
TORSDOF 14
ENDMDL
MODEL 62
REMARK VINA RESULT:      -1.0     37.739     42.776
ROOT
ATOM      1  C1  A00 X   1      36.932  53.257  11.3030  0.00  0.00     0.000 C
ATOM      2  C2  A00 X   1      37.881  52.030  11.2680  0.00  0.00     0.000 C
ATOM      3  C3  A00 X   1      39.051  52.095  10.2310  0.00  0.00     0.000 C
ATOM      4  C4  A00 X   1      38.910  53.179   9.1320  0.00  0.00     0.000 C
ATOM      5  C5  A00 X   1      37.457  53.608   8.9260  0.00  0.00     0.000 C
ATOM      6  O5  A00 X   1      37.060  54.180  10.1930  0.00  0.00     0.000 O
ATOM      7   O  A00 X   1      39.133  50.842   9.5560  0.00  0.00     0.000 O
ATOM      9  HD  A00 X   1      39.249  51.461   8.9610  0.00  0.00     0.000 HD
ATOM      9   O  A00 X   1      39.714  54.323   9.4210  0.00  0.00     0.000 O
ATOM     11  HD  A00 X   1      39.829  54.942   8.8270  0.00  0.00     0.000 HD
ENDROOT
BRANCH 2 11
ATOM     11   O  A00 X   1      38.433  51.865  12.5890  0.00  0.00     0.000 O
ATOM     12   O  A00 X   1      40.176  50.278  13.0480  0.00  0.00     0.000 OA
ATOM     13   O  A00 X   1      38.000  49.477  12.3150  0.00  0.00     0.000 OA
ATOM     14   O  A00 X   1      38.257  50.477  14.4570  0.00  0.00     0.000 OA
ATOM     15   S  A00 X   1      38.743  50.418  13.1060  0.00  0.00     0.000 S
ENDBRANCH 2 11
BRANCH 5 16
ATOM     16   C  A00 X   1      36.520  52.501   8.4320  0.00  0.00     0.000 C
ATOM     17   O  A00 X   1      35.322  52.701   8.4550  0.00  0.00     0.000 OA
ATOM     18   O  A00 X   1      36.931  51.437   8.0140  0.00  0.00     0.000 OA
ENDBRANCH 5 16
BRANCH 1 19
ATOM     19  O4  A00 X   2      35.548  52.890  11.5280  0.00  0.00     0.000 O
BRANCH 19 23
ATOM     20  C1  A00 X   2      34.765  56.224  14.1040  0.00  0.00     0.000 C
ATOM     21  C2  A00 X   2      35.082  54.864  14.7720  0.00  0.00     0.000 C
ATOM     22  C3  A00 X   2      35.752  53.902  13.7680  0.00  0.00     0.000 C
ATOM     23  C4  A00 X   2      34.890  53.759  12.4940  0.00  0.00     0.000 C
ATOM     24  C5  A00 X   2      34.628  55.184  11.9350  0.00  0.00     0.000 C
ATOM     25  O5  A00 X   2      33.932  55.961  12.9440  0.00  0.00     0.000 O
ATOM     26   O  A00 X   2      36.089  52.683  14.4520  0.00  0.00     0.000 O
ATOM     28  HD  A00 X   2      35.295  52.594  14.7880  0.00  0.00     0.000 HD
BRANCH 21 30
ATOM     28   N  A00 X   2      34.146  55.214  15.8440  0.00  0.00     0.000 N
ATOM     30  HD  A00 X   2      34.624  54.553  16.1350  0.00  0.00     0.000 HD
ATOM     30   O  A00 X   2      34.909  54.236  17.8240  0.00  0.00     0.000 OA
ATOM     31   S  A00 X   2      33.804  54.125  16.9380  0.00  0.00     0.000 S
ATOM     32   O  A00 X   2      32.554  54.565  17.4750  0.00  0.00     0.000 OA
ATOM     33   O  A00 X   2      33.641  52.876  16.2560  0.00  0.00     0.000 OA
ENDBRANCH 21 30
BRANCH 24 34
ATOM     34   C  A00 X   2      33.982  55.307  10.5350  0.00  0.00     0.000 C
ATOM     35   O  A00 X   2      30.760  53.863   9.6410  0.00  0.00     0.000 OA
ATOM     36   O  A00 X   2      32.908  54.359  10.3700  0.00  0.00     0.000 O
ATOM     37   O  A00 X   2      31.086  55.351  11.4510  0.00  0.00     0.000 OA
ATOM     38   S  A00 X   2      31.488  54.990  10.1260  0.00  0.00     0.000 S
ATOM     39   O  A00 X   2      31.673  56.047   9.1770  0.00  0.00     0.000 OA
ENDBRANCH 24 34
BRANCH 20 40
ATOM     40  O4  A00 X   3      36.030  56.751  13.6780  0.00  0.00     0.000 O
BRANCH 40 44
ATOM     41  C1  A00 X   3      37.924  58.375  11.0510  0.00  0.00     0.000 C
ATOM     42  C2  A00 X   3      38.511  57.912  12.4020  0.00  0.00     0.000 C
ATOM     43  C3  A00 X   3      37.660  58.440  13.5870  0.00  0.00     0.000 C
ATOM     44  C4  A00 X   3      36.166  58.172  13.4620  0.00  0.00     0.000 C
ATOM     45  C5  A00 X   3      35.650  58.669  12.0820  0.00  0.00     0.000 C
ATOM     46  O5  A00 X   3      36.487  58.156  10.9950  0.00  0.00     0.000 O
ATOM     47   O  A00 X   3      38.158  58.146  14.8910  0.00  0.00     0.000 O
ATOM     49  HD  A00 X   3      37.318  58.027  15.0620  0.00  0.00     0.000 HD
BRANCH 42 49
ATOM     49   O  A00 X   3      38.543  56.469  12.3770  0.00  0.00     0.000 O
ATOM     50   O  A00 X   3      39.174  54.723  13.8890  0.00  0.00     0.000 OA
ATOM     51   O  A00 X   3      40.534  56.652  13.7420  0.00  0.00     0.000 OA
ATOM     52   O  A00 X   3      40.450  55.188  11.8880  0.00  0.00     0.000 OA
ATOM     53   S  A00 X   3      39.739  55.698  13.0090  0.00  0.00     0.000 S
ENDBRANCH 42 49
BRANCH 45 54
ATOM     54   C  A00 X   3      35.489  60.193  12.0510  0.00  0.00     0.000 C
ATOM     55   O  A00 X   3      34.910  60.736  11.1320  0.00  0.00     0.000 OA
ATOM     56   O  A00 X   3      35.940  60.888  12.9490  0.00  0.00     0.000 OA
ENDBRANCH 45 54
BRANCH 41 57
ATOM     57  O4  A00 X   4      38.324  59.726  10.7300  0.00  0.00     0.000 O
BRANCH 57 61
ATOM     58  C1  A00 X   4      39.138  61.741   6.9990  0.00  0.00     0.000 C
ATOM     59  C2  A00 X   4      37.717  61.173   7.2410  0.00  0.00     0.000 C
ATOM     60  C3  A00 X   4      37.443  60.808   8.7140  0.00  0.00     0.000 C
ATOM     61  C4  A00 X   4      38.592  59.973   9.3200  0.00  0.00     0.000 C
ATOM     62  C5  A00 X   4      39.878  60.820   9.1580  0.00  0.00     0.000 C
ATOM     63  O5  A00 X   4      40.144  61.019   7.7460  0.00  0.00     0.000 O
BRANCH 59 66
ATOM     64   N  A00 X   4      37.546  59.921   6.4810  0.00  0.00     0.000 N
ATOM     66  HD  A00 X   4      38.256  59.455   6.3150  0.00  0.00     0.000 HD
ATOM     66   O  A00 X   4      37.048  61.276   4.5540  0.00  0.00     0.000 OA
ATOM     67   S  A00 X   4      36.762  59.982   5.0890  0.00  0.00     0.000 S
ATOM     68   O  A00 X   4      37.372  58.881   4.4010  0.00  0.00     0.000 OA
ATOM     69   O  A00 X   4      35.424  59.724   5.5400  0.00  0.00     0.000 OA
ENDBRANCH 59 66
BRANCH 62 70
ATOM     70   C  A00 X   4      41.134  60.193   9.8110  0.00  0.00     0.000 C
ATOM     71   O  A00 X   4      42.966  57.235   8.8080  0.00  0.00     0.000 OA
ATOM     72   O  A00 X   4      42.144  57.890  10.9150  0.00  0.00     0.000 OA
ATOM     73   O  A00 X   4      41.664  59.179   8.9420  0.00  0.00     0.000 O
ATOM     74   O  A00 X   4      40.601  57.037   9.2340  0.00  0.00     0.000 OA
ATOM     75   S  A00 X   4      41.817  57.727   9.5160  0.00  0.00     0.000 S
ENDBRANCH 62 70
ENDBRANCH 57 61
ENDBRANCH 41 57
ENDBRANCH 40 44
ENDBRANCH 20 40
ENDBRANCH 19 23
ENDBRANCH 1 19
TORSDOF 14
ENDMDL
MODEL 63
REMARK VINA RESULT:      -1.0     57.789     62.356
ROOT
ATOM      1  C1  A00 X   1      30.661  75.018  31.1270  0.00  0.00     0.000 C
ATOM      2  C2  A00 X   1      29.333  75.570  31.7110  0.00  0.00     0.000 C
ATOM      3  C3  A00 X   1      29.166  75.458  33.2630  0.00  0.00     0.000 C
ATOM      4  C4  A00 X   1      30.155  74.499  33.9740  0.00  0.00     0.000 C
ATOM      5  C5  A00 X   1      30.729  73.451  33.0210  0.00  0.00     0.000 C
ATOM      6  O5  A00 X   1      31.457  74.214  32.0320  0.00  0.00     0.000 O
ATOM      7   O  A00 X   1      27.856  74.974  33.5480  0.00  0.00     0.000 O
ATOM      9  HD  A00 X   1      28.400  74.572  34.0880  0.00  0.00     0.000 HD
ATOM      9   O  A00 X   1      31.218  75.216  34.6010  0.00  0.00     0.000 O
ATOM     11  HD  A00 X   1      31.762  74.813  35.1410  0.00  0.00     0.000 HD
ENDROOT
BRANCH 2 11
ATOM     11   O  A00 X   1      29.227  76.954  31.3260  0.00  0.00     0.000 O
ATOM     12   O  A00 X   1      27.480  78.374  32.1630  0.00  0.00     0.000 OA
ATOM     13   O  A00 X   1      26.899  76.469  30.7670  0.00  0.00     0.000 OA
ATOM     14   O  A00 X   1      28.059  78.330  29.8450  0.00  0.00     0.000 OA
ATOM     15   S  A00 X   1      27.808  77.551  31.0270  0.00  0.00     0.000 S
ENDBRANCH 2 11
BRANCH 5 16
ATOM     16   C  A00 X   1      29.699  72.490  32.4170  0.00  0.00     0.000 C
ATOM     17   O  A00 X   1      30.041  71.773  31.5000  0.00  0.00     0.000 OA
ATOM     18   O  A00 X   1      28.558  72.416  32.8280  0.00  0.00     0.000 OA
ENDBRANCH 5 16
BRANCH 1 19
ATOM     19  O4  A00 X   2      30.481  74.356  29.8510  0.00  0.00     0.000 O
BRANCH 19 23
ATOM     20  C1  A00 X   2      34.090  75.940  28.1690  0.00  0.00     0.000 C
ATOM     21  C2  A00 X   2      32.765  76.665  27.8300  0.00  0.00     0.000 C
ATOM     22  C3  A00 X   2      31.652  76.268  28.8220  0.00  0.00     0.000 C
ATOM     23  C4  A00 X   2      31.497  74.731  28.8780  0.00  0.00     0.000 C
ATOM     24  C5  A00 X   2      32.890  74.126  29.2060  0.00  0.00     0.000 C
ATOM     25  O5  A00 X   2      33.824  74.512  28.1650  0.00  0.00     0.000 O
ATOM     26   O  A00 X   2      30.465  77.017  28.5080  0.00  0.00     0.000 O
ATOM     28  HD  A00 X   2      30.495  76.808  27.6680  0.00  0.00     0.000 HD
BRANCH 21 30
ATOM     28   N  A00 X   2      33.309  76.958  26.5000  0.00  0.00     0.000 N
ATOM     30  HD  A00 X   2      32.626  77.479  26.6120  0.00  0.00     0.000 HD
ATOM     30   O  A00 X   2      32.425  78.999  25.7870  0.00  0.00     0.000 OA
ATOM     31   S  A00 X   2      32.363  77.628  25.4250  0.00  0.00     0.000 S
ATOM     32   O  A00 X   2      32.985  77.303  24.1790  0.00  0.00     0.000 OA
ATOM     33   O  A00 X   2      31.086  76.986  25.5260  0.00  0.00     0.000 OA
ENDBRANCH 21 30
BRANCH 24 34
ATOM     34   C  A00 X   2      32.964  72.619  29.5460  0.00  0.00     0.000 C
ATOM     35   O  A00 X   2      34.756  70.161  27.5440  0.00  0.00     0.000 OA
ATOM     36   O  A00 X   2      33.424  71.850  28.4160  0.00  0.00     0.000 O
ATOM     37   O  A00 X   2      35.748  72.111  28.4420  0.00  0.00     0.000 OA
ATOM     38   S  A00 X   2      34.776  71.079  28.6350  0.00  0.00     0.000 S
ATOM     39   O  A00 X   2      34.695  70.479  29.9330  0.00  0.00     0.000 OA
ENDBRANCH 24 34
BRANCH 20 40
ATOM     40  O4  A00 X   3      34.433  76.360  29.4980  0.00  0.00     0.000 O
BRANCH 40 44
ATOM     41  C1  A00 X   3      35.595  75.440  32.8040  0.00  0.00     0.000 C
ATOM     42  C2  A00 X   3      35.197  76.870  32.3770  0.00  0.00     0.000 C
ATOM     43  C3  A00 X   3      35.919  77.279  31.0680  0.00  0.00     0.000 C
ATOM     44  C4  A00 X   3      35.805  76.265  29.9370  0.00  0.00     0.000 C
ATOM     45  C5  A00 X   3      36.226  74.856  30.4420  0.00  0.00     0.000 C
ATOM     46  O5  A00 X   3      35.528  74.515  31.6830  0.00  0.00     0.000 O
ATOM     47   O  A00 X   3      35.694  78.616  30.6240  0.00  0.00     0.000 O
ATOM     49  HD  A00 X   3      35.683  78.236  29.8460  0.00  0.00     0.000 HD
BRANCH 42 49
ATOM     49   O  A00 X   3      33.762  76.878  32.2130  0.00  0.00     0.000 O
ATOM     50   O  A00 X   3      32.104  78.470  31.5420  0.00  0.00     0.000 OA
ATOM     51   O  A00 X   3      33.853  79.176  32.9680  0.00  0.00     0.000 OA
ATOM     52   O  A00 X   3      32.243  77.670  33.8200  0.00  0.00     0.000 OA
ATOM     53   S  A00 X   3      32.928  78.115  32.6550  0.00  0.00     0.000 S
ENDBRANCH 42 49
BRANCH 45 54
ATOM     54   C  A00 X   3      37.750  74.724  30.5500  0.00  0.00     0.000 C
ATOM     55   O  A00 X   3      38.263  73.648  30.7820  0.00  0.00     0.000 OA
ATOM     56   O  A00 X   3      38.474  75.697  30.4070  0.00  0.00     0.000 OA
ENDBRANCH 45 54
BRANCH 41 57
ATOM     57  O4  A00 X   4      36.860  75.424  33.5030  0.00  0.00     0.000 O
BRANCH 57 61
ATOM     58  C1  A00 X   4      38.409  72.994  36.7180  0.00  0.00     0.000 C
ATOM     59  C2  A00 X   4      38.017  72.303  35.3880  0.00  0.00     0.000 C
ATOM     60  C3  A00 X   4      37.826  73.287  34.2170  0.00  0.00     0.000 C
ATOM     61  C4  A00 X   4      36.940  74.487  34.6140  0.00  0.00     0.000 C
ATOM     62  C5  A00 X   4      37.629  75.154  35.8300  0.00  0.00     0.000 C
ATOM     63  O5  A00 X   4      37.663  74.214  36.9350  0.00  0.00     0.000 O
BRANCH 59 66
ATOM     64   N  A00 X   4      36.725  71.606  35.5240  0.00  0.00     0.000 N
ATOM     66  HD  A00 X   4      36.160  71.920  36.1000  0.00  0.00     0.000 HD
ATOM     66   O  A00 X   4      37.928  69.784  36.5410  0.00  0.00     0.000 OA
ATOM     67   S  A00 X   4      36.740  70.028  35.7850  0.00  0.00     0.000 S
ATOM     68   O  A00 X   4      35.509  69.874  36.5040  0.00  0.00     0.000 OA
ATOM     69   O  A00 X   4      36.696  69.547  34.4330  0.00  0.00     0.000 OA
ENDBRANCH 59 66
BRANCH 62 70
ATOM     70   C  A00 X   4      36.942  76.454  36.3120  0.00  0.00     0.000 C
ATOM     71   O  A00 X   4      33.741  76.843  37.9580  0.00  0.00     0.000 OA
ATOM     72   O  A00 X   4      34.658  77.965  36.1020  0.00  0.00     0.000 OA
ATOM     73   O  A00 X   4      35.808  76.117  37.1270  0.00  0.00     0.000 O
ATOM     74   O  A00 X   4      33.815  75.693  35.8400  0.00  0.00     0.000 OA
ATOM     75   S  A00 X   4      34.405  76.671  36.6970  0.00  0.00     0.000 S
ENDBRANCH 62 70
ENDBRANCH 57 61
ENDBRANCH 41 57
ENDBRANCH 40 44
ENDBRANCH 20 40
ENDBRANCH 19 23
ENDBRANCH 1 19
TORSDOF 14
ENDMDL
MODEL 64
REMARK VINA RESULT:      -1.0     82.326     87.922
ROOT
ATOM      1  C1  A00 X   1      42.281  76.866  77.5650  0.00  0.00     0.000 C
ATOM      2  C2  A00 X   1      43.189  75.619  77.3990  0.00  0.00     0.000 C
ATOM      3  C3  A00 X   1      42.506  74.346  76.7980  0.00  0.00     0.000 C
ATOM      4  C4  A00 X   1      40.956  74.362  76.7860  0.00  0.00     0.000 C
ATOM      5  C5  A00 X   1      40.380  75.326  77.8220  0.00  0.00     0.000 C
ATOM      6  O5  A00 X   1      40.859  76.629  77.4170  0.00  0.00     0.000 O
ATOM      7   O  A00 X   1      42.894  73.211  77.5700  0.00  0.00     0.000 O
ATOM      9  HD  A00 X   1      42.050  73.125  77.3940  0.00  0.00     0.000 HD
ATOM      9   O  A00 X   1      40.448  74.685  75.4910  0.00  0.00     0.000 O
ATOM     11  HD  A00 X   1      39.605  74.598  75.3150  0.00  0.00     0.000 HD
ENDROOT
BRANCH 2 11
ATOM     11   O  A00 X   1      44.301  75.994  76.5640  0.00  0.00     0.000 O
ATOM     12   O  A00 X   1      45.894  74.381  75.7700  0.00  0.00     0.000 OA
ATOM     13   O  A00 X   1      45.715  74.801  78.1590  0.00  0.00     0.000 OA
ATOM     14   O  A00 X   1      46.583  76.471  76.7040  0.00  0.00     0.000 OA
ATOM     15   S  A00 X   1      45.702  75.341  76.8270  0.00  0.00     0.000 S
ENDBRANCH 2 11
BRANCH 5 16
ATOM     16   C  A00 X   1      40.704  74.980  79.2790  0.00  0.00     0.000 C
ATOM     17   O  A00 X   1      40.457  75.800  80.1400  0.00  0.00     0.000 OA
ATOM     18   O  A00 X   1      41.191  73.916  79.6040  0.00  0.00     0.000 OA
ENDBRANCH 5 16
BRANCH 1 19
ATOM     19  O4  A00 X   2      42.569  77.614  78.7710  0.00  0.00     0.000 O
BRANCH 19 23
ATOM     20  C1  A00 X   2      42.034  81.433  76.9000  0.00  0.00     0.000 C
ATOM     21  C2  A00 X   2      43.481  80.900  77.0360  0.00  0.00     0.000 C
ATOM     22  C3  A00 X   2      43.484  79.382  77.3140  0.00  0.00     0.000 C
ATOM     23  C4  A00 X   2      42.605  79.052  78.5410  0.00  0.00     0.000 C
ATOM     24  C5  A00 X   2      41.195  79.652  78.2900  0.00  0.00     0.000 C
ATOM     25  O5  A00 X   2      41.321  81.088  78.1180  0.00  0.00     0.000 O
ATOM     26   O  A00 X   2      44.847  78.925  77.3630  0.00  0.00     0.000 O
ATOM     28  HD  A00 X   2      45.087  79.544  77.9200  0.00  0.00     0.000 HD
BRANCH 21 30
ATOM     28   N  A00 X   2      43.931  82.282  77.2330  0.00  0.00     0.000 N
ATOM     30  HD  A00 X   2      44.635  81.812  77.0510  0.00  0.00     0.000 HD
ATOM     30   O  A00 X   2      46.086  82.477  76.3530  0.00  0.00     0.000 OA
ATOM     31   S  A00 X   2      45.442  82.540  77.6170  0.00  0.00     0.000 S
ATOM     32   O  A00 X   2      45.421  83.837  78.2200  0.00  0.00     0.000 OA
ATOM     33   O  A00 X   2      45.809  81.548  78.5830  0.00  0.00     0.000 OA
ENDBRANCH 21 30
BRANCH 24 34
ATOM     34   C  A00 X   2      40.058  79.266  79.2650  0.00  0.00     0.000 C
ATOM     35   O  A00 X   2      38.295  81.641  81.3880  0.00  0.00     0.000 OA
ATOM     36   O  A00 X   2      39.799  80.322  80.2110  0.00  0.00     0.000 O
ATOM     37   O  A00 X   2      38.464  81.842  79.0380  0.00  0.00     0.000 OA
ATOM     38   S  A00 X   2      38.356  80.943  80.1460  0.00  0.00     0.000 S
ATOM     39   O  A00 X   2      37.447  79.843  80.0230  0.00  0.00     0.000 OA
ENDBRANCH 24 34
BRANCH 20 40
ATOM     40  O4  A00 X   3      41.462  80.722  75.7920  0.00  0.00     0.000 O
BRANCH 40 44
ATOM     41  C1  A00 X   3      38.617  78.921  74.4580  0.00  0.00     0.000 C
ATOM     42  C2  A00 X   3      39.949  79.141  73.7090  0.00  0.00     0.000 C
ATOM     43  C3  A00 X   3      40.353  80.638  73.7230  0.00  0.00     0.000 C
ATOM     44  C4  A00 X   3      40.328  81.287  75.1000  0.00  0.00     0.000 C
ATOM     45  C5  A00 X   3      38.957  81.027  75.7870  0.00  0.00     0.000 C
ATOM     46  O5  A00 X   3      38.612  79.604  75.7410  0.00  0.00     0.000 O
ATOM     47   O  A00 X   3      41.526  80.973  72.9840  0.00  0.00     0.000 O
ATOM     49  HD  A00 X   3      41.662  81.502  73.6570  0.00  0.00     0.000 HD
BRANCH 42 49
ATOM     49   O  A00 X   3      40.942  78.320  74.3610  0.00  0.00     0.000 O
ATOM     50   O  A00 X   3      43.286  77.904  74.1060  0.00  0.00     0.000 OA
ATOM     51   O  A00 X   3      41.939  78.069  72.1700  0.00  0.00     0.000 OA
ATOM     52   O  A00 X   3      41.636  76.210  73.5980  0.00  0.00     0.000 OA
ATOM     53   S  A00 X   3      42.023  77.577  73.5230  0.00  0.00     0.000 S
ENDBRANCH 42 49
BRANCH 45 54
ATOM     54   C  A00 X   3      37.858  81.933  75.2210  0.00  0.00     0.000 C
ATOM     55   O  A00 X   3      36.757  81.965  75.7330  0.00  0.00     0.000 OA
ATOM     56   O  A00 X   3      38.068  82.637  74.2460  0.00  0.00     0.000 OA
ENDBRANCH 45 54
BRANCH 41 57
ATOM     57  O4  A00 X   4      37.478  79.230  73.6230  0.00  0.00     0.000 O
BRANCH 57 61
ATOM     58  C1  A00 X   4      33.505  77.564  73.3390  0.00  0.00     0.000 C
ATOM     59  C2  A00 X   4      33.940  78.220  74.6730  0.00  0.00     0.000 C
ATOM     60  C3  A00 X   4      35.212  79.083  74.5480  0.00  0.00     0.000 C
ATOM     61  C4  A00 X   4      36.334  78.344  73.7870  0.00  0.00     0.000 C
ATOM     62  C5  A00 X   4      35.746  77.966  72.4040  0.00  0.00     0.000 C
ATOM     63  O5  A00 X   4      34.633  77.055  72.5910  0.00  0.00     0.000 O
BRANCH 59 66
ATOM     64   N  A00 X   4      34.237  77.043  75.5090  0.00  0.00     0.000 N
ATOM     66  HD  A00 X   4      34.428  76.302  75.1030  0.00  0.00     0.000 HD
ATOM     66   O  A00 X   4      31.906  77.009  76.1140  0.00  0.00     0.000 OA
ATOM     67   S  A00 X   4      33.181  76.629  76.6370  0.00  0.00     0.000 S
ATOM     68   O  A00 X   4      33.422  75.218  76.7120  0.00  0.00     0.000 OA
ATOM     69   O  A00 X   4      33.696  77.373  77.7510  0.00  0.00     0.000 OA
ENDBRANCH 59 66
BRANCH 62 70
ATOM     70   C  A00 X   4      36.765  77.307  71.4440  0.00  0.00     0.000 C
ATOM     71   O  A00 X   4      38.268  74.020  71.6500  0.00  0.00     0.000 OA
ATOM     72   O  A00 X   4      39.245  76.134  71.3040  0.00  0.00     0.000 OA
ATOM     73   O  A00 X   4      36.896  75.915  71.7730  0.00  0.00     0.000 O
ATOM     74   O  A00 X   4      38.488  75.508  73.5350  0.00  0.00     0.000 OA
ATOM     75   S  A00 X   4      38.326  75.375  72.1230  0.00  0.00     0.000 S
ENDBRANCH 62 70
ENDBRANCH 57 61
ENDBRANCH 41 57
ENDBRANCH 40 44
ENDBRANCH 20 40
ENDBRANCH 19 23
ENDBRANCH 1 19
TORSDOF 14
ENDMDL
MODEL 65
REMARK VINA RESULT:      -1.0     43.309     48.153
ROOT
ATOM      1  C1  A00 X   1      38.323  56.581  37.9500  0.00  0.00     0.000 C
ATOM      2  C2  A00 X   1      38.478  56.977  39.4430  0.00  0.00     0.000 C
ATOM      3  C3  A00 X   1      39.393  58.211  39.7350  0.00  0.00     0.000 C
ATOM      4  C4  A00 X   1      40.311  58.655  38.5670  0.00  0.00     0.000 C
ATOM      5  C5  A00 X   1      40.562  57.524  37.5690  0.00  0.00     0.000 C
ATOM      6  O5  A00 X   1      39.257  57.208  37.0360  0.00  0.00     0.000 O
ATOM      7   O  A00 X   1      40.252  57.896  40.8280  0.00  0.00     0.000 O
ATOM      9  HD  A00 X   1      40.728  58.322  40.2440  0.00  0.00     0.000 HD
ATOM      9   O  A00 X   1      39.778  59.790  37.8850  0.00  0.00     0.000 O
ATOM     11  HD  A00 X   1      40.254  60.216  37.3010  0.00  0.00     0.000 HD
ENDROOT
BRANCH 2 11
ATOM     11   O  A00 X   1      37.161  57.234  39.9670  0.00  0.00     0.000 O
ATOM     12   O  A00 X   1      36.824  58.140  42.1650  0.00  0.00     0.000 OA
ATOM     13   O  A00 X   1      37.847  55.946  41.9260  0.00  0.00     0.000 OA
ATOM     14   O  A00 X   1      35.558  56.275  41.3680  0.00  0.00     0.000 OA
ATOM     15   S  A00 X   1      36.859  56.881  41.4640  0.00  0.00     0.000 S
ENDBRANCH 2 11
BRANCH 5 16
ATOM     16   C  A00 X   1      41.302  56.309  38.1390  0.00  0.00     0.000 C
ATOM     17   O  A00 X   1      41.354  55.296  37.4740  0.00  0.00     0.000 OA
ATOM     18   O  A00 X   1      41.842  56.327  39.2270  0.00  0.00     0.000 OA
ENDBRANCH 5 16
BRANCH 1 19
ATOM     19  O4  A00 X   2      38.273  55.147  37.7520  0.00  0.00     0.000 O
BRANCH 19 23
ATOM     20  C1  A00 X   2      35.274  55.363  34.6980  0.00  0.00     0.000 C
ATOM     21  C2  A00 X   2      34.805  55.050  36.1390  0.00  0.00     0.000 C
ATOM     22  C3  A00 X   2      35.893  55.428  37.1660  0.00  0.00     0.000 C
ATOM     23  C4  A00 X   2      37.235  54.749  36.8110  0.00  0.00     0.000 C
ATOM     24  C5  A00 X   2      37.583  55.123  35.3440  0.00  0.00     0.000 C
ATOM     25  O5  A00 X   2      36.520  54.650  34.4760  0.00  0.00     0.000 O
ATOM     26   O  A00 X   2      35.385  55.184  38.4880  0.00  0.00     0.000 O
ATOM     28  HD  A00 X   2      35.127  54.380  38.2950  0.00  0.00     0.000 HD
BRANCH 21 30
ATOM     28   N  A00 X   2      33.763  54.188  35.5730  0.00  0.00     0.000 N
ATOM     30  HD  A00 X   2      33.545  54.336  36.3970  0.00  0.00     0.000 HD
ATOM     30   O  A00 X   2      31.909  54.257  36.9920  0.00  0.00     0.000 OA
ATOM     31   S  A00 X   2      32.881  53.318  36.5540  0.00  0.00     0.000 S
ATOM     32   O  A00 X   2      32.376  52.272  35.7200  0.00  0.00     0.000 OA
ATOM     33   O  A00 X   2      33.760  52.781  37.5500  0.00  0.00     0.000 OA
ENDBRANCH 21 30
BRANCH 24 34
ATOM     34   C  A00 X   2      38.991  54.759  34.8170  0.00  0.00     0.000 C
ATOM     35   O  A00 X   2      39.607  52.463  32.0590  0.00  0.00     0.000 OA
ATOM     36   O  A00 X   2      38.949  53.585  33.9820  0.00  0.00     0.000 O
ATOM     37   O  A00 X   2      38.224  54.375  31.9030  0.00  0.00     0.000 OA
ATOM     38   S  A00 X   2      39.398  53.806  32.4910  0.00  0.00     0.000 S
ATOM     39   O  A00 X   2      40.577  54.618  32.5390  0.00  0.00     0.000 OA
ENDBRANCH 24 34
BRANCH 20 40
ATOM     40  O4  A00 X   3      35.518  56.777  34.6680  0.00  0.00     0.000 O
BRANCH 40 44
ATOM     41  C1  A00 X   3      37.671  59.501  33.6360  0.00  0.00     0.000 C
ATOM     42  C2  A00 X   3      36.368  59.668  34.4460  0.00  0.00     0.000 C
ATOM     43  C3  A00 X   3      35.192  58.921  33.7660  0.00  0.00     0.000 C
ATOM     44  C4  A00 X   3      35.487  57.472  33.4030  0.00  0.00     0.000 C
ATOM     45  C5  A00 X   3      36.807  57.386  32.5860  0.00  0.00     0.000 C
ATOM     46  O5  A00 X   3      37.886  58.112  33.2590  0.00  0.00     0.000 O
ATOM     47   O  A00 X   3      33.915  59.078  34.3820  0.00  0.00     0.000 O
ATOM     49  HD  A00 X   3      33.838  58.240  34.1770  0.00  0.00     0.000 HD
BRANCH 42 49
ATOM     49   O  A00 X   3      36.624  59.153  35.7710  0.00  0.00     0.000 O
ATOM     50   O  A00 X   3      35.362  58.832  37.7800  0.00  0.00     0.000 OA
ATOM     51   O  A00 X   3      35.059  60.827  36.5480  0.00  0.00     0.000 OA
ATOM     52   O  A00 X   3      37.125  60.481  37.6420  0.00  0.00     0.000 OA
ATOM     53   S  A00 X   3      36.012  59.853  37.0190  0.00  0.00     0.000 S
ENDBRANCH 42 49
BRANCH 45 54
ATOM     54   C  A00 X   3      36.604  57.822  31.1300  0.00  0.00     0.000 C
ATOM     55   O  A00 X   3      35.558  58.328  30.7760  0.00  0.00     0.000 OA
ATOM     56   O  A00 X   3      37.487  57.668  30.3020  0.00  0.00     0.000 OA
ENDBRANCH 45 54
BRANCH 41 57
ATOM     57  O4  A00 X   4      37.733  60.426  32.5270  0.00  0.00     0.000 O
BRANCH 57 61
ATOM     58  C1  A00 X   4      40.996  62.508  30.6150  0.00  0.00     0.000 C
ATOM     59  C2  A00 X   4      40.990  60.960  30.5910  0.00  0.00     0.000 C
ATOM     60  C3  A00 X   4      39.628  60.344  30.9740  0.00  0.00     0.000 C
ATOM     61  C4  A00 X   4      39.052  60.980  32.2570  0.00  0.00     0.000 C
ATOM     62  C5  A00 X   4      38.948  62.501  31.9810  0.00  0.00     0.000 C
ATOM     63  O5  A00 X   4      40.277  63.036  31.7530  0.00  0.00     0.000 O
BRANCH 59 66
ATOM     64   N  A00 X   4      41.950  60.432  31.5770  0.00  0.00     0.000 N
ATOM     66  HD  A00 X   4      42.119  60.920  32.2720  0.00  0.00     0.000 HD
ATOM     66   O  A00 X   4      43.679  60.802  29.9410  0.00  0.00     0.000 OA
ATOM     67   S  A00 X   4      43.385  59.956  31.0560  0.00  0.00     0.000 S
ATOM     68   O  A00 X   4      44.176  60.186  32.2300  0.00  0.00     0.000 OA
ATOM     69   O  A00 X   4      43.113  58.571  30.7920  0.00  0.00     0.000 OA
ENDBRANCH 59 66
BRANCH 62 70
ATOM     70   C  A00 X   4      38.283  63.306  33.1230  0.00  0.00     0.000 C
ATOM     71   O  A00 X   4      39.569  64.025  36.4300  0.00  0.00     0.000 OA
ATOM     72   O  A00 X   4      37.478  63.186  35.7460  0.00  0.00     0.000 OA
ATOM     73   O  A00 X   4      39.249  63.547  34.1590  0.00  0.00     0.000 O
ATOM     74   O  A00 X   4      39.428  61.724  35.7240  0.00  0.00     0.000 OA
ATOM     75   S  A00 X   4      38.911  63.049  35.6070  0.00  0.00     0.000 S
ENDBRANCH 62 70
ENDBRANCH 57 61
ENDBRANCH 41 57
ENDBRANCH 40 44
ENDBRANCH 20 40
ENDBRANCH 19 23
ENDBRANCH 1 19
TORSDOF 14
ENDMDL
MODEL 66
REMARK VINA RESULT:      -1.0     95.399    100.049
ROOT
ATOM      1  C1  A00 X   1      80.656  65.152  82.8080  0.00  0.00     0.000 C
ATOM      2  C2  A00 X   1      80.233  65.129  81.3150  0.00  0.00     0.000 C
ATOM      3  C3  A00 X   1      79.378  63.900  80.8620  0.00  0.00     0.000 C
ATOM      4  C4  A00 X   1      79.368  62.696  81.8380  0.00  0.00     0.000 C
ATOM      5  C5  A00 X   1      80.583  62.694  82.7650  0.00  0.00     0.000 C
ATOM      6  O5  A00 X   1      80.461  63.912  83.5330  0.00  0.00     0.000 O
ATOM      7   O  A00 X   1      79.895  63.414  79.6250  0.00  0.00     0.000 O
ATOM      9  HD  A00 X   1      79.704  62.723  80.1110  0.00  0.00     0.000 HD
ATOM      9   O  A00 X   1      78.170  62.663  82.6140  0.00  0.00     0.000 O
ATOM     11  HD  A00 X   1      77.979  61.972  83.1000  0.00  0.00     0.000 HD
ENDROOT
BRANCH 2 11
ATOM     11   O  A00 X   1      79.496  66.338  81.0490  0.00  0.00     0.000 O
ATOM     12   O  A00 X   1      78.665  66.863  78.8580  0.00  0.00     0.000 OA
ATOM     13   O  A00 X   1      81.067  66.722  79.2190  0.00  0.00     0.000 OA
ATOM     14   O  A00 X   1      79.804  68.487  80.1920  0.00  0.00     0.000 OA
ATOM     15   S  A00 X   1      79.785  67.127  79.7260  0.00  0.00     0.000 S
ENDBRANCH 2 11
BRANCH 5 16
ATOM     16   C  A00 X   1      81.936  62.547  82.0600  0.00  0.00     0.000 C
ATOM     17   O  A00 X   1      82.949  62.738  82.7010  0.00  0.00     0.000 OA
ATOM     18   O  A00 X   1      82.030  62.241  80.8880  0.00  0.00     0.000 OA
ENDBRANCH 5 16
BRANCH 1 19
ATOM     19  O4  A00 X   2      81.993  65.674  83.0050  0.00  0.00     0.000 O
BRANCH 19 23
ATOM     20  C1  A00 X   2      80.990  67.712  86.6390  0.00  0.00     0.000 C
ATOM     21  C2  A00 X   2      81.015  68.546  85.3360  0.00  0.00     0.000 C
ATOM     22  C3  A00 X   2      80.958  67.630  84.0960  0.00  0.00     0.000 C
ATOM     23  C4  A00 X   2      82.080  66.569  84.1510  0.00  0.00     0.000 C
ATOM     24  C5  A00 X   2      81.957  65.818  85.5050  0.00  0.00     0.000 C
ATOM     25  O5  A00 X   2      82.100  66.777  86.5850  0.00  0.00     0.000 O
ATOM     26   O  A00 X   2      80.915  68.452  82.9170  0.00  0.00     0.000 O
ATOM     28  HD  A00 X   2      81.594  68.930  83.1640  0.00  0.00     0.000 HD
BRANCH 21 30
ATOM     28   N  A00 X   2      81.508  69.684  86.1190  0.00  0.00     0.000 N
ATOM     30  HD  A00 X   2      81.233  70.001  85.3610  0.00  0.00     0.000 HD
ATOM     30   O  A00 X   2      80.704  71.645  85.1370  0.00  0.00     0.000 OA
ATOM     31   S  A00 X   2      81.948  70.996  85.3560  0.00  0.00     0.000 S
ATOM     32   O  A00 X   2      82.817  71.652  86.2830  0.00  0.00     0.000 OA
ATOM     33   O  A00 X   2      82.679  70.586  84.1940  0.00  0.00     0.000 OA
ENDBRANCH 21 30
BRANCH 24 34
ATOM     34   C  A00 X   2      82.819  64.551  85.7130  0.00  0.00     0.000 C
ATOM     35   O  A00 X   2      85.363  64.215  88.2960  0.00  0.00     0.000 OA
ATOM     36   O  A00 X   2      83.959  64.826  86.5520  0.00  0.00     0.000 O
ATOM     37   O  A00 X   2      83.106  64.771  88.7290  0.00  0.00     0.000 OA
ATOM     38   S  A00 X   2      84.006  64.025  87.9040  0.00  0.00     0.000 S
ATOM     39   O  A00 X   2      83.650  62.674  87.5870  0.00  0.00     0.000 OA
ENDBRANCH 24 34
BRANCH 20 40
ATOM     40  O4  A00 X   3      79.751  66.988  86.6120  0.00  0.00     0.000 O
BRANCH 40 44
ATOM     41  C1  A00 X   3      77.994  63.869  87.1690  0.00  0.00     0.000 C
ATOM     42  C2  A00 X   3      77.341  65.165  86.6410  0.00  0.00     0.000 C
ATOM     43  C3  A00 X   3      77.688  66.372  87.5510  0.00  0.00     0.000 C
ATOM     44  C4  A00 X   3      79.172  66.531  87.8530  0.00  0.00     0.000 C
ATOM     45  C5  A00 X   3      79.754  65.190  88.3830  0.00  0.00     0.000 C
ATOM     46  O5  A00 X   3      79.394  64.079  87.5000  0.00  0.00     0.000 O
ATOM     47   O  A00 X   3      77.067  67.609  87.2080  0.00  0.00     0.000 O
ATOM     49  HD  A00 X   3      77.840  67.929  87.4290  0.00  0.00     0.000 HD
BRANCH 42 49
ATOM     49   O  A00 X   3      77.823  65.364  85.2940  0.00  0.00     0.000 O
ATOM     50   O  A00 X   3      77.553  67.015  83.5830  0.00  0.00     0.000 OA
ATOM     51   O  A00 X   3      75.663  66.355  84.8410  0.00  0.00     0.000 OA
ATOM     52   O  A00 X   3      76.630  64.792  83.3550  0.00  0.00     0.000 OA
ATOM     53   S  A00 X   3      76.873  65.916  84.1920  0.00  0.00     0.000 S
ENDBRANCH 42 49
BRANCH 45 54
ATOM     54   C  A00 X   3      79.373  64.945  89.8480  0.00  0.00     0.000 C
ATOM     55   O  A00 X   3      79.853  64.017  90.4660  0.00  0.00     0.000 OA
ATOM     56   O  A00 X   3      78.578  65.677  90.4180  0.00  0.00     0.000 OA
ENDBRANCH 45 54
BRANCH 41 57
ATOM     57  O4  A00 X   4      77.220  63.278  88.2370  0.00  0.00     0.000 O
BRANCH 57 61
ATOM     58  C1  A00 X   4      76.508  59.193  89.4380  0.00  0.00     0.000 C
ATOM     59  C2  A00 X   4      77.960  59.731  89.4640  0.00  0.00     0.000 C
ATOM     60  C3  A00 X   4      78.048  61.268  89.3700  0.00  0.00     0.000 C
ATOM     61  C4  A00 X   4      77.167  61.823  88.2300  0.00  0.00     0.000 C
ATOM     62  C5  A00 X   4      75.725  61.338  88.5190  0.00  0.00     0.000 C
ATOM     63  O5  A00 X   4      75.690  59.889  88.4700  0.00  0.00     0.000 O
BRANCH 59 66
ATOM     64   N  A00 X   4      78.721  59.226  88.3070  0.00  0.00     0.000 N
ATOM     66  HD  A00 X   4      78.277  59.038  87.5880  0.00  0.00     0.000 HD
ATOM     66   O  A00 X   4      79.067  57.192  89.5500  0.00  0.00     0.000 OA
ATOM     67   S  A00 X   4      79.690  57.973  88.5270  0.00  0.00     0.000 S
ATOM     68   O  A00 X   4      79.670  57.397  87.2140  0.00  0.00     0.000 OA
ATOM     69   O  A00 X   4      80.912  58.652  88.8530  0.00  0.00     0.000 OA
ENDBRANCH 59 66
BRANCH 62 70
ATOM     70   C  A00 X   4      74.664  61.889  87.5370  0.00  0.00     0.000 C
ATOM     71   O  A00 X   4      74.206  61.108  84.0310  0.00  0.00     0.000 OA
ATOM     72   O  A00 X   4      74.321  63.183  85.1380  0.00  0.00     0.000 OA
ATOM     73   O  A00 X   4      74.699  61.123  86.3210  0.00  0.00     0.000 O
ATOM     74   O  A00 X   4      76.362  61.905  84.7630  0.00  0.00     0.000 OA
ATOM     75   S  A00 X   4      74.950  61.891  84.9770  0.00  0.00     0.000 S
ENDBRANCH 62 70
ENDBRANCH 57 61
ENDBRANCH 41 57
ENDBRANCH 40 44
ENDBRANCH 20 40
ENDBRANCH 19 23
ENDBRANCH 1 19
TORSDOF 14
ENDMDL
MODEL 67
REMARK VINA RESULT:      -1.0     81.977     87.972
ROOT
ATOM      1  C1  A00 X   1      43.610  77.288  77.8230  0.00  0.00     0.000 C
ATOM      2  C2  A00 X   1      44.913  76.474  77.6050  0.00  0.00     0.000 C
ATOM      3  C3  A00 X   1      44.729  75.006  77.0990  0.00  0.00     0.000 C
ATOM      4  C4  A00 X   1      43.295  74.429  77.2280  0.00  0.00     0.000 C
ATOM      5  C5  A00 X   1      42.473  75.158  78.2900  0.00  0.00     0.000 C
ATOM      6  O5  A00 X   1      42.381  76.519  77.8120  0.00  0.00     0.000 O
ATOM      7   O  A00 X   1      45.579  74.150  77.8580  0.00  0.00     0.000 O
ATOM      9  HD  A00 X   1      44.823  73.738  77.7620  0.00  0.00     0.000 HD
ATOM      9   O  A00 X   1      42.606  74.460  75.9780  0.00  0.00     0.000 O
ATOM     11  HD  A00 X   1      41.850  74.048  75.8820  0.00  0.00     0.000 HD
ENDROOT
BRANCH 2 11
ATOM     11   O  A00 X   1      45.728  77.197  76.6630  0.00  0.00     0.000 O
ATOM     12   O  A00 X   1      47.754  76.271  75.7640  0.00  0.00     0.000 OA
ATOM     13   O  A00 X   1      47.608  76.725  78.1490  0.00  0.00     0.000 OA
ATOM     14   O  A00 X   1      47.654  78.514  76.5820  0.00  0.00     0.000 OA
ATOM     15   S  A00 X   1      47.288  77.143  76.8120  0.00  0.00     0.000 S
ENDBRANCH 2 11
BRANCH 5 16
ATOM     16   C  A00 X   1      43.014  75.045  79.7190  0.00  0.00     0.000 C
ATOM     17   O  A00 X   1      42.536  75.756  80.5790  0.00  0.00     0.000 OA
ATOM     18   O  A00 X   1      43.896  74.266  80.0220  0.00  0.00     0.000 OA
ENDBRANCH 5 16
BRANCH 1 19
ATOM     19  O4  A00 X   2      43.678  78.157  78.9800  0.00  0.00     0.000 O
BRANCH 19 23
ATOM     20  C1  A00 X   2      41.576  81.371  77.0770  0.00  0.00     0.000 C
ATOM     21  C2  A00 X   2      43.123  81.439  77.0930  0.00  0.00     0.000 C
ATOM     22  C3  A00 X   2      43.730  80.055  77.4050  0.00  0.00     0.000 C
ATOM     23  C4  A00 X   2      43.141  79.485  78.7150  0.00  0.00     0.000 C
ATOM     24  C5  A00 X   2      41.594  79.487  78.5790  0.00  0.00     0.000 C
ATOM     25  O5  A00 X   2      41.145  80.850  78.3630  0.00  0.00     0.000 O
ATOM     26   O  A00 X   2      45.163  80.155  77.3400  0.00  0.00     0.000 O
ATOM     28  HD  A00 X   2      45.188  80.849  77.8580  0.00  0.00     0.000 HD
BRANCH 21 30
ATOM     28   N  A00 X   2      43.020  82.896  77.2150  0.00  0.00     0.000 N
ATOM     30  HD  A00 X   2      43.835  82.721  76.9810  0.00  0.00     0.000 HD
ATOM     30   O  A00 X   2      44.861  83.848  76.1380  0.00  0.00     0.000 OA
ATOM     31   S  A00 X   2      44.340  83.733  77.4530  0.00  0.00     0.000 S
ATOM     32   O  A00 X   2      43.867  84.955  78.0250  0.00  0.00     0.000 OA
ATOM     33   O  A00 X   2      45.132  83.012  78.4050  0.00  0.00     0.000 OA
ENDBRANCH 21 30
BRANCH 24 34
ATOM     34   C  A00 X   2      40.770  78.752  79.6630  0.00  0.00     0.000 C
ATOM     35   O  A00 X   2      38.395  80.393  81.8830  0.00  0.00     0.000 OA
ATOM     36   O  A00 X   2      40.198  79.682  80.6040  0.00  0.00     0.000 O
ATOM     37   O  A00 X   2      38.296  80.509  79.5230  0.00  0.00     0.000 OA
ATOM     38   S  A00 X   2      38.626  79.702  80.6570  0.00  0.00     0.000 S
ATOM     39   O  A00 X   2      38.203  78.334  80.6430  0.00  0.00     0.000 OA
ENDBRANCH 24 34
BRANCH 20 40
ATOM     40  O4  A00 X   3      41.240  80.435  76.0430  0.00  0.00     0.000 O
BRANCH 40 44
ATOM     41  C1  A00 X   3      39.214  77.612  75.0170  0.00  0.00     0.000 C
ATOM     42  C2  A00 X   3      40.298  78.281  74.1450  0.00  0.00     0.000 C
ATOM     43  C3  A00 X   3      40.095  79.816  74.0870  0.00  0.00     0.000 C
ATOM     44  C4  A00 X   3      39.927  80.485  75.4450  0.00  0.00     0.000 C
ATOM     45  C5  A00 X   3      38.818  79.761  76.2600  0.00  0.00     0.000 C
ATOM     46  O5  A00 X   3      39.044  78.314  76.2800  0.00  0.00     0.000 O
ATOM     47   O  A00 X   3      40.990  80.531  73.2370  0.00  0.00     0.000 O
ATOM     49  HD  A00 X   3      40.962  81.109  73.8810  0.00  0.00     0.000 HD
BRANCH 42 49
ATOM     49   O  A00 X   3      41.577  77.938  74.7230  0.00  0.00     0.000 O
ATOM     50   O  A00 X   3      43.874  78.433  74.2640  0.00  0.00     0.000 OA
ATOM     51   O  A00 X   3      42.425  77.963  72.4560  0.00  0.00     0.000 OA
ATOM     52   O  A00 X   3      42.969  76.213  73.9490  0.00  0.00     0.000 OA
ATOM     53   S  A00 X   3      42.794  77.617  73.8060  0.00  0.00     0.000 S
ENDBRANCH 42 49
BRANCH 45 54
ATOM     54   C  A00 X   3      37.415  80.146  75.7760  0.00  0.00     0.000 C
ATOM     55   O  A00 X   3      36.429  79.785  76.3860  0.00  0.00     0.000 OA
ATOM     56   O  A00 X   3      37.264  80.821  74.7690  0.00  0.00     0.000 OA
ENDBRANCH 45 54
BRANCH 41 57
ATOM     57  O4  A00 X   4      37.985  77.416  74.2840  0.00  0.00     0.000 O
BRANCH 57 61
ATOM     58  C1  A00 X   4      34.948  74.349  74.4030  0.00  0.00     0.000 C
ATOM     59  C2  A00 X   4      35.197  75.195  75.6760  0.00  0.00     0.000 C
ATOM     60  C3  A00 X   4      36.026  76.469  75.4150  0.00  0.00     0.000 C
ATOM     61  C4  A00 X   4      37.285  76.172  74.5720  0.00  0.00     0.000 C
ATOM     62  C5  A00 X   4      36.785  75.521  73.2580  0.00  0.00     0.000 C
ATOM     63  O5  A00 X   4      36.126  74.267  73.5680  0.00  0.00     0.000 O
BRANCH 59 66
ATOM     64   N  A00 X   4      35.984  74.330  76.5740  0.00  0.00     0.000 N
ATOM     66  HD  A00 X   4      36.457  73.702  76.2100  0.00  0.00     0.000 HD
ATOM     66   O  A00 X   4      33.900  73.385  77.3250  0.00  0.00     0.000 OA
ATOM     67   S  A00 X   4      35.231  73.619  77.7920  0.00  0.00     0.000 S
ATOM     68   O  A00 X   4      36.044  72.449  77.9520  0.00  0.00     0.000 OA
ATOM     69   O  A00 X   4      35.416  74.608  78.8160  0.00  0.00     0.000 OA
ENDBRANCH 59 66
BRANCH 62 70
ATOM     70   C  A00 X   4      37.903  75.247  72.2240  0.00  0.00     0.000 C
ATOM     71   O  A00 X   4      40.566  72.798  72.3690  0.00  0.00     0.000 OA
ATOM     72   O  A00 X   4      40.625  75.101  71.8860  0.00  0.00     0.000 OA
ATOM     73   O  A00 X   4      38.584  74.030  72.5720  0.00  0.00     0.000 O
ATOM     74   O  A00 X   4      40.339  74.362  74.1900  0.00  0.00     0.000 OA
ATOM     75   S  A00 X   4      40.134  74.097  72.8020  0.00  0.00     0.000 S
ENDBRANCH 62 70
ENDBRANCH 57 61
ENDBRANCH 41 57
ENDBRANCH 40 44
ENDBRANCH 20 40
ENDBRANCH 19 23
ENDBRANCH 1 19
TORSDOF 14
ENDMDL
MODEL 68
REMARK VINA RESULT:      -1.0     31.741     38.066
ROOT
ATOM      1  C1  A00 X   1      26.211  55.054  15.8800  0.00  0.00     0.000 C
ATOM      2  C2  A00 X   1      25.832  55.566  14.4640  0.00  0.00     0.000 C
ATOM      3  C3  A00 X   1      26.390  54.737  13.2610  0.00  0.00     0.000 C
ATOM      4  C4  A00 X   1      27.533  53.746  13.6050  0.00  0.00     0.000 C
ATOM      5  C5  A00 X   1      28.265  54.133  14.8890  0.00  0.00     0.000 C
ATOM      6  O5  A00 X   1      27.259  54.054  15.9240  0.00  0.00     0.000 O
ATOM      7   O  A00 X   1      26.914  55.637  12.2880  0.00  0.00     0.000 O
ATOM      9  HD  A00 X   1      27.466  54.973  12.3450  0.00  0.00     0.000 HD
ATOM      9   O  A00 X   1      27.049  52.408  13.7100  0.00  0.00     0.000 O
ATOM     11  HD  A00 X   1      27.601  51.743  13.7660  0.00  0.00     0.000 HD
ENDROOT
BRANCH 2 11
ATOM     11   O  A00 X   1      24.394  55.603  14.3820  0.00  0.00     0.000 O
ATOM     12   O  A00 X   1      23.254  56.560  12.4980  0.00  0.00     0.000 OA
ATOM     13   O  A00 X   1      24.627  57.988  13.9090  0.00  0.00     0.000 OA
ATOM     14   O  A00 X   1      22.603  57.057  14.7430  0.00  0.00     0.000 OA
ATOM     15   S  A00 X   1      23.699  56.894  13.8270  0.00  0.00     0.000 S
ENDBRANCH 2 11
BRANCH 5 16
ATOM     16   C  A00 X   1      28.989  55.483  14.8410  0.00  0.00     0.000 C
ATOM     17   O  A00 X   1      29.436  55.940  15.8730  0.00  0.00     0.000 OA
ATOM     18   O  A00 X   1      29.138  56.106  13.8080  0.00  0.00     0.000 OA
ENDBRANCH 5 16
BRANCH 1 19
ATOM     19  O4  A00 X   2      26.468  56.130  16.8150  0.00  0.00     0.000 O
BRANCH 19 23
ATOM     20  C1  A00 X   2      24.720  54.063  20.1380  0.00  0.00     0.000 C
ATOM     21  C2  A00 X   2      23.846  55.112  19.4090  0.00  0.00     0.000 C
ATOM     22  C3  A00 X   2      24.427  55.440  18.0180  0.00  0.00     0.000 C
ATOM     23  C4  A00 X   2      25.907  55.869  18.1340  0.00  0.00     0.000 C
ATOM     24  C5  A00 X   2      26.667  54.749  18.8950  0.00  0.00     0.000 C
ATOM     25  O5  A00 X   2      26.072  54.590  20.2090  0.00  0.00     0.000 O
ATOM     26   O  A00 X   2      23.545  56.363  17.3550  0.00  0.00     0.000 O
ATOM     28  HD  A00 X   2      23.518  56.901  18.0340  0.00  0.00     0.000 HD
BRANCH 21 30
ATOM     28   N  A00 X   2      23.235  55.444  20.7000  0.00  0.00     0.000 N
ATOM     30  HD  A00 X   2      22.722  55.778  20.0870  0.00  0.00     0.000 HD
ATOM     30   O  A00 X   2      21.024  56.094  20.3130  0.00  0.00     0.000 OA
ATOM     31   S  A00 X   2      22.238  56.669  20.7740  0.00  0.00     0.000 S
ATOM     32   O  A00 X   2      22.247  57.029  22.1590  0.00  0.00     0.000 OA
ATOM     33   O  A00 X   2      22.800  57.722  19.9830  0.00  0.00     0.000 OA
ENDBRANCH 21 30
BRANCH 24 34
ATOM     34   C  A00 X   2      28.211  54.825  18.9450  0.00  0.00     0.000 C
ATOM     35   O  A00 X   2      30.140  55.182  22.0130  0.00  0.00     0.000 OA
ATOM     36   O  A00 X   2      28.670  55.314  20.2210  0.00  0.00     0.000 O
ATOM     37   O  A00 X   2      28.579  53.448  21.6280  0.00  0.00     0.000 OA
ATOM     38   S  A00 X   2      29.559  54.312  21.0440  0.00  0.00     0.000 S
ATOM     39   O  A00 X   2      30.484  53.734  20.1150  0.00  0.00     0.000 OA
ENDBRANCH 24 34
BRANCH 20 40
ATOM     40  O4  A00 X   3      24.703  52.896  19.3030  0.00  0.00     0.000 O
BRANCH 40 44
ATOM     41  C1  A00 X   3      26.548  50.171  17.7890  0.00  0.00     0.000 C
ATOM     42  C2  A00 X   3      25.040  50.435  17.5840  0.00  0.00     0.000 C
ATOM     43  C3  A00 X   3      24.317  50.607  18.9440  0.00  0.00     0.000 C
ATOM     44  C4  A00 X   3      24.974  51.605  19.8890  0.00  0.00     0.000 C
ATOM     45  C5  A00 X   3      26.485  51.272  20.0480  0.00  0.00     0.000 C
ATOM     46  O5  A00 X   3      27.124  51.108  18.7410  0.00  0.00     0.000 O
ATOM     47   O  A00 X   3      22.901  50.769  18.8800  0.00  0.00     0.000 O
ATOM     49  HD  A00 X   3      23.051  51.337  19.5170  0.00  0.00     0.000 HD
BRANCH 42 49
ATOM     49   O  A00 X   3      24.925  51.622  16.7700  0.00  0.00     0.000 O
ATOM     50   O  A00 X   3      23.141  52.959  15.8990  0.00  0.00     0.000 OA
ATOM     51   O  A00 X   3      22.928  50.605  15.8560  0.00  0.00     0.000 OA
ATOM     52   O  A00 X   3      24.539  51.617  14.4540  0.00  0.00     0.000 OA
ATOM     53   S  A00 X   3      23.822  51.723  15.6770  0.00  0.00     0.000 S
ENDBRANCH 42 49
BRANCH 45 54
ATOM     54   C  A00 X   3      26.707  50.077  20.9830  0.00  0.00     0.000 C
ATOM     55   O  A00 X   3      27.821  49.799  21.3770  0.00  0.00     0.000 OA
ATOM     56   O  A00 X   3      25.769  49.384  21.3460  0.00  0.00     0.000 OA
ENDBRANCH 45 54
BRANCH 41 57
ATOM     57  O4  A00 X   4      26.811  48.784  18.0970  0.00  0.00     0.000 O
BRANCH 57 61
ATOM     58  C1  A00 X   4      30.090  46.135  17.1670  0.00  0.00     0.000 C
ATOM     59  C2  A00 X   4      30.373  47.391  18.0280  0.00  0.00     0.000 C
ATOM     60  C3  A00 X   4      29.098  48.052  18.5900  0.00  0.00     0.000 C
ATOM     61  C4  A00 X   4      28.020  48.236  17.5000  0.00  0.00     0.000 C
ATOM     62  C5  A00 X   4      27.741  46.827  16.9200  0.00  0.00     0.000 C
ATOM     63  O5  A00 X   4      28.949  46.319  16.2980  0.00  0.00     0.000 O
BRANCH 59 66
ATOM     64   N  A00 X   4      31.029  48.437  17.2210  0.00  0.00     0.000 N
ATOM     66  HD  A00 X   4      30.863  48.449  16.3710  0.00  0.00     0.000 HD
ATOM     66   O  A00 X   4      33.106  47.273  17.5840  0.00  0.00     0.000 OA
ATOM     67   S  A00 X   4      32.617  48.592  17.3300  0.00  0.00     0.000 S
ATOM     68   O  A00 X   4      32.914  49.121  16.0300  0.00  0.00     0.000 OA
ATOM     69   O  A00 X   4      32.705  49.555  18.3900  0.00  0.00     0.000 OA
ENDBRANCH 59 66
BRANCH 62 70
ATOM     70   C  A00 X   4      26.597  46.788  15.8790  0.00  0.00     0.000 C
ATOM     71   O  A00 X   4      26.556  48.125  12.5150  0.00  0.00     0.000 OA
ATOM     72   O  A00 X   4      25.005  48.346  14.2730  0.00  0.00     0.000 OA
ATOM     73   O  A00 X   4      27.102  47.215  14.6030  0.00  0.00     0.000 O
ATOM     74   O  A00 X   4      27.086  49.610  14.3390  0.00  0.00     0.000 OA
ATOM     75   S  A00 X   4      26.401  48.434  13.9090  0.00  0.00     0.000 S
ENDBRANCH 62 70
ENDBRANCH 57 61
ENDBRANCH 41 57
ENDBRANCH 40 44
ENDBRANCH 20 40
ENDBRANCH 19 23
ENDBRANCH 1 19
TORSDOF 14
ENDMDL
MODEL 69
REMARK VINA RESULT:      -1.0     45.670     50.962
ROOT
ATOM      1  C1  A00 X   1      25.662  63.438  37.7660  0.00  0.00     0.000 C
ATOM      2  C2  A00 X   1      25.196  64.767  38.4170  0.00  0.00     0.000 C
ATOM      3  C3  A00 X   1      23.846  64.710  39.2050  0.00  0.00     0.000 C
ATOM      4  C4  A00 X   1      22.968  63.461  38.9380  0.00  0.00     0.000 C
ATOM      5  C5  A00 X   1      23.292  62.804  37.5960  0.00  0.00     0.000 C
ATOM      6  O5  A00 X   1      24.669  62.383  37.7160  0.00  0.00     0.000 O
ATOM      7   O  A00 X   1      23.058  65.843  38.8460  0.00  0.00     0.000 O
ATOM      9  HD  A00 X   1      22.524  65.163  38.8860  0.00  0.00     0.000 HD
ATOM      9   O  A00 X   1      23.092  62.501  39.9870  0.00  0.00     0.000 O
ATOM     11  HD  A00 X   1      22.558  61.821  40.0270  0.00  0.00     0.000 HD
ENDROOT
BRANCH 2 11
ATOM     11   O  A00 X   1      26.240  65.210  39.3060  0.00  0.00     0.000 O
ATOM     12   O  A00 X   1      26.103  67.297  40.4870  0.00  0.00     0.000 OA
ATOM     13   O  A00 X   1      26.215  67.309  38.0570  0.00  0.00     0.000 OA
ATOM     14   O  A00 X   1      28.094  66.628  39.3460  0.00  0.00     0.000 OA
ATOM     15   S  A00 X   1      26.660  66.720  39.2900  0.00  0.00     0.000 S
ENDBRANCH 2 11
BRANCH 5 16
ATOM     16   C  A00 X   1      23.023  63.677  36.3660  0.00  0.00     0.000 C
ATOM     17   O  A00 X   1      23.439  63.306  35.2870  0.00  0.00     0.000 OA
ATOM     18   O  A00 X   1      22.405  64.721  36.4300  0.00  0.00     0.000 OA
ENDBRANCH 5 16
BRANCH 1 19
ATOM     19  O4  A00 X   2      26.289  63.635  36.4750  0.00  0.00     0.000 O
BRANCH 19 23
ATOM     20  C1  A00 X   2      29.197  60.546  37.0760  0.00  0.00     0.000 C
ATOM     21  C2  A00 X   2      29.640  62.005  37.3400  0.00  0.00     0.000 C
ATOM     22  C3  A00 X   2      28.416  62.929  37.5060  0.00  0.00     0.000 C
ATOM     23  C4  A00 X   2      27.468  62.800  36.2930  0.00  0.00     0.000 C
ATOM     24  C5  A00 X   2      27.115  61.297  36.1250  0.00  0.00     0.000 C
ATOM     25  O5  A00 X   2      28.340  60.551  35.9040  0.00  0.00     0.000 O
ATOM     26   O  A00 X   2      28.878  64.255  37.8160  0.00  0.00     0.000 O
ATOM     28  HD  A00 X   2      29.438  64.269  37.1560  0.00  0.00     0.000 HD
BRANCH 21 30
ATOM     28   N  A00 X   2      30.972  61.651  36.8400  0.00  0.00     0.000 N
ATOM     30  HD  A00 X   2      31.054  62.403  37.2620  0.00  0.00     0.000 HD
ATOM     30   O  A00 X   2      32.545  62.952  37.9770  0.00  0.00     0.000 OA
ATOM     31   S  A00 X   2      32.043  62.799  36.6570  0.00  0.00     0.000 S
ATOM     32   O  A00 X   2      32.972  62.250  35.7180  0.00  0.00     0.000 OA
ATOM     33   O  A00 X   2      31.365  63.925  36.0860  0.00  0.00     0.000 OA
ENDBRANCH 21 30
BRANCH 24 34
ATOM     34   C  A00 X   2      25.998  60.921  35.1220  0.00  0.00     0.000 C
ATOM     35   O  A00 X   2      26.078  61.745  31.5760  0.00  0.00     0.000 OA
ATOM     36   O  A00 X   2      26.124  61.669  33.8960  0.00  0.00     0.000 O
ATOM     37   O  A00 X   2      27.777  60.536  32.6910  0.00  0.00     0.000 OA
ATOM     38   S  A00 X   2      26.374  60.804  32.6060  0.00  0.00     0.000 S
ATOM     39   O  A00 X   2      25.479  59.689  32.6860  0.00  0.00     0.000 OA
ENDBRANCH 24 34
BRANCH 20 40
ATOM     40  O4  A00 X   3      28.433  60.158  38.2280  0.00  0.00     0.000 O
BRANCH 40 44
ATOM     41  C1  A00 X   3      25.476  58.514  39.5220  0.00  0.00     0.000 C
ATOM     42  C2  A00 X   3      26.541  59.220  40.3890  0.00  0.00     0.000 C
ATOM     43  C3  A00 X   3      27.966  58.726  40.0300  0.00  0.00     0.000 C
ATOM     44  C4  A00 X   3      28.291  58.756  38.5420  0.00  0.00     0.000 C
ATOM     45  C5  A00 X   3      27.179  58.024  37.7390  0.00  0.00     0.000 C
ATOM     46  O5  A00 X   3      25.852  58.514  38.1170  0.00  0.00     0.000 O
ATOM     47   O  A00 X   3      29.026  59.247  40.8290  0.00  0.00     0.000 O
ATOM     49  HD  A00 X   3      29.440  59.263  40.0690  0.00  0.00     0.000 HD
BRANCH 42 49
ATOM     49   O  A00 X   3      26.401  60.639  40.1590  0.00  0.00     0.000 O
ATOM     50   O  A00 X   3      27.523  62.629  40.8730  0.00  0.00     0.000 OA
ATOM     51   O  A00 X   3      27.119  60.917  42.4530  0.00  0.00     0.000 OA
ATOM     52   O  A00 X   3      25.272  62.116  41.5940  0.00  0.00     0.000 OA
ATOM     53   S  A00 X   3      26.589  61.648  41.3290  0.00  0.00     0.000 S
ENDBRANCH 42 49
BRANCH 45 54
ATOM     54   C  A00 X   3      27.312  56.500  37.8470  0.00  0.00     0.000 C
ATOM     55   O  A00 X   3      26.643  55.769  37.1450  0.00  0.00     0.000 OA
ATOM     56   O  A00 X   3      28.092  55.995  38.6390  0.00  0.00     0.000 OA
ENDBRANCH 45 54
BRANCH 41 57
ATOM     57  O4  A00 X   4      25.147  57.206  40.0420  0.00  0.00     0.000 O
BRANCH 57 61
ATOM     58  C1  A00 X   4      21.493  54.907  40.1090  0.00  0.00     0.000 C
ATOM     59  C2  A00 X   4      22.101  55.293  38.7370  0.00  0.00     0.000 C
ATOM     60  C3  A00 X   4      23.560  55.785  38.8280  0.00  0.00     0.000 C
ATOM     61  C4  A00 X   4      23.742  56.838  39.9420  0.00  0.00     0.000 C
ATOM     62  C5  A00 X   4      23.269  56.167  41.2560  0.00  0.00     0.000 C
ATOM     63  O5  A00 X   4      21.859  55.844  41.1470  0.00  0.00     0.000 O
BRANCH 59 66
ATOM     64   N  A00 X   4      21.342  56.411  38.1490  0.00  0.00     0.000 N
ATOM     66  HD  A00 X   4      20.942  56.953  38.6930  0.00  0.00     0.000 HD
ATOM     66   O  A00 X   4      19.744  54.786  37.3720  0.00  0.00     0.000 OA
ATOM     67   S  A00 X   4      20.249  56.078  37.0290  0.00  0.00     0.000 S
ATOM     68   O  A00 X   4      19.338  57.168  37.2250  0.00  0.00     0.000 OA
ATOM     69   O  A00 X   4      21.055  56.190  35.8470  0.00  0.00     0.000 OA
ENDBRANCH 59 66
BRANCH 62 70
ATOM     70   C  A00 X   4      23.478  57.036  42.5200  0.00  0.00     0.000 C
ATOM     71   O  A00 X   4      21.770  60.081  43.4770  0.00  0.00     0.000 OA
ATOM     72   O  A00 X   4      24.068  59.571  43.3960  0.00  0.00     0.000 OA
ATOM     73   O  A00 X   4      22.421  58.005  42.6100  0.00  0.00     0.000 O
ATOM     74   O  A00 X   4      22.855  59.996  41.3250  0.00  0.00     0.000 OA
ATOM     75   S  A00 X   4      22.818  59.520  42.6710  0.00  0.00     0.000 S
ENDBRANCH 62 70
ENDBRANCH 57 61
ENDBRANCH 41 57
ENDBRANCH 40 44
ENDBRANCH 20 40
ENDBRANCH 19 23
ENDBRANCH 1 19
TORSDOF 14
ENDMDL
MODEL 70
REMARK VINA RESULT:      -1.0     68.611     75.749
ROOT
ATOM      1  C1  A00 X   1      79.465  68.110  34.5430  0.00  0.00     0.000 C
ATOM      2  C2  A00 X   1      79.287  69.324  35.4930  0.00  0.00     0.000 C
ATOM      3  C3  A00 X   1      78.404  69.082  36.7600  0.00  0.00     0.000 C
ATOM      4  C4  A00 X   1      77.527  67.803  36.7290  0.00  0.00     0.000 C
ATOM      5  C5  A00 X   1      77.265  67.317  35.3040  0.00  0.00     0.000 C
ATOM      6  O5  A00 X   1      78.573  66.993  34.7810  0.00  0.00     0.000 O
ATOM      7   O  A00 X   1      77.510  70.182  36.9120  0.00  0.00     0.000 O
ATOM      9  HD  A00 X   1      77.060  69.462  37.0860  0.00  0.00     0.000 HD
ATOM      9   O  A00 X   1      78.110  66.752  37.4980  0.00  0.00     0.000 O
ATOM     11  HD  A00 X   1      77.661  66.032  37.6720  0.00  0.00     0.000 HD
ENDROOT
BRANCH 2 11
ATOM     11   O  A00 X   1      80.599  69.750  35.9100  0.00  0.00     0.000 O
ATOM     12   O  A00 X   1      80.912  71.429  37.5990  0.00  0.00     0.000 OA
ATOM     13   O  A00 X   1      79.827  72.033  35.5070  0.00  0.00     0.000 OA
ATOM     14   O  A00 X   1      82.137  71.469  35.5470  0.00  0.00     0.000 OA
ATOM     15   S  A00 X   1      80.854  71.275  36.1670  0.00  0.00     0.000 S
ENDBRANCH 2 11
BRANCH 5 16
ATOM     16   C  A00 X   1      76.476  68.291  34.4220  0.00  0.00     0.000 C
ATOM     17   O  A00 X   1      76.406  68.069  33.2310  0.00  0.00     0.000 OA
ATOM     18   O  A00 X   1      75.914  69.269  34.8730  0.00  0.00     0.000 OA
ENDBRANCH 5 16
BRANCH 1 19
ATOM     19  O4  A00 X   2      79.477  68.488  33.1440  0.00  0.00     0.000 O
BRANCH 19 23
ATOM     20  C1  A00 X   2      82.567  65.709  32.1000  0.00  0.00     0.000 C
ATOM     21  C2  A00 X   2      82.984  67.176  32.3630  0.00  0.00     0.000 C
ATOM     22  C3  A00 X   2      81.880  67.932  33.1310  0.00  0.00     0.000 C
ATOM     23  C4  A00 X   2      80.528  67.816  32.3930  0.00  0.00     0.000 C
ATOM     24  C5  A00 X   2      80.234  66.307  32.1740  0.00  0.00     0.000 C
ATOM     25  O5  A00 X   2      81.305  65.732  31.3810  0.00  0.00     0.000 O
ATOM     26   O  A00 X   2      82.343  69.264  33.4110  0.00  0.00     0.000 O
ATOM     28  HD  A00 X   2      82.580  69.408  32.5900  0.00  0.00     0.000 HD
BRANCH 21 30
ATOM     28   N  A00 X   2      84.013  67.029  31.3290  0.00  0.00     0.000 N
ATOM     30  HD  A00 X   2      84.213  67.739  31.7830  0.00  0.00     0.000 HD
ATOM     30   O  A00 X   2      85.827  68.381  31.9110  0.00  0.00     0.000 OA
ATOM     31   S  A00 X   2      84.839  68.305  30.8940  0.00  0.00     0.000 S
ATOM     32   O  A00 X   2      85.332  67.962  29.5960  0.00  0.00     0.000 OA
ATOM     33   O  A00 X   2      83.915  69.396  30.8030  0.00  0.00     0.000 OA
ENDBRANCH 21 30
BRANCH 24 34
ATOM     34   C  A00 X   2      78.830  65.908  31.6600  0.00  0.00     0.000 C
ATOM     35   O  A00 X   2      78.211  64.317  28.4440  0.00  0.00     0.000 OA
ATOM     36   O  A00 X   2      78.850  65.635  30.2440  0.00  0.00     0.000 O
ATOM     37   O  A00 X   2      79.680  63.454  30.0840  0.00  0.00     0.000 OA
ATOM     38   S  A00 X   2      78.463  64.166  29.8390  0.00  0.00     0.000 S
ATOM     39   O  A00 X   2      77.320  63.816  30.6280  0.00  0.00     0.000 OA
ENDBRANCH 24 34
BRANCH 20 40
ATOM     40  O4  A00 X   3      82.370  65.123  33.3950  0.00  0.00     0.000 O
BRANCH 40 44
ATOM     41  C1  A00 X   3      80.314  63.036  35.5270  0.00  0.00     0.000 C
ATOM     42  C2  A00 X   3      81.598  63.764  35.9810  0.00  0.00     0.000 C
ATOM     43  C3  A00 X   3      82.774  63.470  35.0150  0.00  0.00     0.000 C
ATOM     44  C4  A00 X   3      82.454  63.689  33.5420  0.00  0.00     0.000 C
ATOM     45  C5  A00 X   3      81.155  62.923  33.1610  0.00  0.00     0.000 C
ATOM     46  O5  A00 X   3      80.076  63.222  34.1040  0.00  0.00     0.000 O
ATOM     47   O  A00 X   3      84.037  64.022  35.3850  0.00  0.00     0.000 O
ATOM     49  HD  A00 X   3      84.098  64.161  34.5320  0.00  0.00     0.000 HD
BRANCH 42 49
ATOM     49   O  A00 X   3      81.291  65.174  36.0260  0.00  0.00     0.000 O
ATOM     50   O  A00 X   3      82.488  67.194  36.4970  0.00  0.00     0.000 OA
ATOM     51   O  A00 X   3      82.876  65.295  37.8510  0.00  0.00     0.000 OA
ATOM     52   O  A00 X   3      80.772  66.362  37.9840  0.00  0.00     0.000 OA
ATOM     53   S  A00 X   3      81.886  66.073  37.1490  0.00  0.00     0.000 S
ENDBRANCH 42 49
BRANCH 45 54
ATOM     54   C  A00 X   3      81.411  61.421  32.9920  0.00  0.00     0.000 C
ATOM     55   O  A00 X   3      82.492  60.943  33.2680  0.00  0.00     0.000 OA
ATOM     56   O  A00 X   3      80.534  60.680  32.5770  0.00  0.00     0.000 OA
ENDBRANCH 45 54
BRANCH 41 57
ATOM     57  O4  A00 X   4      80.307  61.653  35.9480  0.00  0.00     0.000 O
BRANCH 57 61
ATOM     58  C1  A00 X   4      77.154  58.969  37.1690  0.00  0.00     0.000 C
ATOM     59  C2  A00 X   4      77.119  59.550  35.7330  0.00  0.00     0.000 C
ATOM     60  C3  A00 X   4      78.452  60.189  35.2960  0.00  0.00     0.000 C
ATOM     61  C4  A00 X   4      79.011  61.143  36.3720  0.00  0.00     0.000 C
ATOM     62  C5  A00 X   4      79.163  60.302  37.6640  0.00  0.00     0.000 C
ATOM     63  O5  A00 X   4      77.856  59.838  38.0880  0.00  0.00     0.000 O
BRANCH 59 66
ATOM     64   N  A00 X   4      76.116  60.628  35.6640  0.00  0.00     0.000 N
ATOM     66  HD  A00 X   4      75.944  61.062  36.3940  0.00  0.00     0.000 HD
ATOM     66   O  A00 X   4      74.445  58.919  35.3740  0.00  0.00     0.000 OA
ATOM     67   S  A00 X   4      74.681  60.289  35.0440  0.00  0.00     0.000 S
ATOM     68   O  A00 X   4      73.867  61.241  35.7410  0.00  0.00     0.000 OA
ATOM     69   O  A00 X   4      74.918  60.615  33.6660  0.00  0.00     0.000 OA
ENDBRANCH 59 66
BRANCH 62 70
ATOM     70   C  A00 X   4      79.819  61.064  38.8410  0.00  0.00     0.000 C
ATOM     71   O  A00 X   4      78.472  63.795  40.7980  0.00  0.00     0.000 OA
ATOM     72   O  A00 X   4      80.559  63.553  39.7350  0.00  0.00     0.000 OA
ATOM     73   O  A00 X   4      78.835  61.896  39.4750  0.00  0.00     0.000 O
ATOM     74   O  A00 X   4      78.577  64.037  38.4020  0.00  0.00     0.000 OA
ATOM     75   S  A00 X   4      79.127  63.434  39.5730  0.00  0.00     0.000 S
ENDBRANCH 62 70
ENDBRANCH 57 61
ENDBRANCH 41 57
ENDBRANCH 40 44
ENDBRANCH 20 40
ENDBRANCH 19 23
ENDBRANCH 1 19
TORSDOF 14
ENDMDL
MODEL 71
REMARK VINA RESULT:      -1.0     58.498     63.039
ROOT
ATOM      1  C1  A00 X   1      35.636  16.970  79.3720  0.00  0.00     0.000 C
ATOM      2  C2  A00 X   1      35.909  15.814  80.3710  0.00  0.00     0.000 C
ATOM      3  C3  A00 X   1      37.395  15.336  80.4800  0.00  0.00     0.000 C
ATOM      4  C4  A00 X   1      38.333  15.804  79.3370  0.00  0.00     0.000 C
ATOM      5  C5  A00 X   1      37.561  16.166  78.0690  0.00  0.00     0.000 C
ATOM      6  O5  A00 X   1      36.718  17.274  78.4560  0.00  0.00     0.000 O
ATOM      7   O  A00 X   1      37.419  13.911  80.4650  0.00  0.00     0.000 O
ATOM      9  HD  A00 X   1      38.076  14.182  79.9700  0.00  0.00     0.000 HD
ATOM      9   O  A00 X   1      39.139  16.909  79.7440  0.00  0.00     0.000 O
ATOM     11  HD  A00 X   1      39.796  17.181  79.2490  0.00  0.00     0.000 HD
ENDROOT
BRANCH 2 11
ATOM     11   O  A00 X   1      35.458  16.242  81.6710  0.00  0.00     0.000 O
ATOM     12   O  A00 X   1      35.397  14.748  83.5500  0.00  0.00     0.000 OA
ATOM     13   O  A00 X   1      33.969  14.306  81.6310  0.00  0.00     0.000 OA
ATOM     14   O  A00 X   1      33.560  16.186  83.0300  0.00  0.00     0.000 OA
ATOM     15   S  A00 X   1      34.550  15.281  82.5130  0.00  0.00     0.000 S
ENDBRANCH 2 11
BRANCH 5 16
ATOM     16   C  A00 X   1      36.793  15.008  77.4240  0.00  0.00     0.000 C
ATOM     17   O  A00 X   1      36.002  15.257  76.5380  0.00  0.00     0.000 OA
ATOM     18   O  A00 X   1      36.954  13.852  77.7620  0.00  0.00     0.000 OA
ENDBRANCH 5 16
BRANCH 1 19
ATOM     19  O4  A00 X   2      34.377  16.820  78.6710  0.00  0.00     0.000 O
BRANCH 19 23
ATOM     20  C1  A00 X   2      33.497  21.013  78.7420  0.00  0.00     0.000 C
ATOM     21  C2  A00 X   2      32.810  20.121  79.8040  0.00  0.00     0.000 C
ATOM     22  C3  A00 X   2      33.534  18.764  79.9340  0.00  0.00     0.000 C
ATOM     23  C4  A00 X   2      33.650  18.076  78.5550  0.00  0.00     0.000 C
ATOM     24  C5  A00 X   2      34.334  19.074  77.5820  0.00  0.00     0.000 C
ATOM     25  O5  A00 X   2      33.520  20.273  77.4930  0.00  0.00     0.000 O
ATOM     26   O  A00 X   2      32.902  18.002  80.9760  0.00  0.00     0.000 O
ATOM     28  HD  A00 X   2      32.108  18.124  80.6540  0.00  0.00     0.000 HD
BRANCH 21 30
ATOM     28   N  A00 X   2      31.632  20.989  79.7160  0.00  0.00     0.000 N
ATOM     30  HD  A00 X   2      31.545  20.521  80.4390  0.00  0.00     0.000 HD
ATOM     30   O  A00 X   2      30.600  21.031  81.8110  0.00  0.00     0.000 OA
ATOM     31   S  A00 X   2      30.322  20.572  80.4960  0.00  0.00     0.000 S
ATOM     32   O  A00 X   2      29.283  21.282  79.8170  0.00  0.00     0.000 OA
ATOM     33   O  A00 X   2      30.157  19.160  80.3230  0.00  0.00     0.000 OA
ENDBRANCH 21 30
BRANCH 24 34
ATOM     34   C  A00 X   2      34.776  18.549  76.1960  0.00  0.00     0.000 C
ATOM     35   O  A00 X   2      33.375  19.696  73.0370  0.00  0.00     0.000 OA
ATOM     36   O  A00 X   2      33.826  18.908  75.1730  0.00  0.00     0.000 O
ATOM     37   O  A00 X   2      34.344  21.128  74.6500  0.00  0.00     0.000 OA
ATOM     38   S  A00 X   2      34.384  19.837  74.0340  0.00  0.00     0.000 S
ATOM     39   O  A00 X   2      35.668  19.313  73.6770  0.00  0.00     0.000 OA
ENDBRANCH 24 34
BRANCH 20 40
ATOM     40  O4  A00 X   3      34.840  21.208  79.2100  0.00  0.00     0.000 O
BRANCH 40 44
ATOM     41  C1  A00 X   3      38.371  21.300  78.4050  0.00  0.00     0.000 C
ATOM     42  C2  A00 X   3      37.785  21.501  79.8190  0.00  0.00     0.000 C
ATOM     43  C3  A00 X   3      36.660  22.567  79.8080  0.00  0.00     0.000 C
ATOM     44  C4  A00 X   3      35.591  22.350  78.7440  0.00  0.00     0.000 C
ATOM     45  C5  A00 X   3      36.256  22.161  77.3520  0.00  0.00     0.000 C
ATOM     46  O5  A00 X   3      37.318  21.155  77.4120  0.00  0.00     0.000 O
ATOM     47   O  A00 X   3      36.103  22.899  81.0790  0.00  0.00     0.000 O
ATOM     49  HD  A00 X   3      35.366  22.918  80.6250  0.00  0.00     0.000 HD
BRANCH 42 49
ATOM     49   O  A00 X   3      37.291  20.217  80.2580  0.00  0.00     0.000 O
ATOM     50   O  A00 X   3      36.190  19.356  82.2020  0.00  0.00     0.000 OA
ATOM     51   O  A00 X   3      37.956  20.904  82.4820  0.00  0.00     0.000 OA
ATOM     52   O  A00 X   3      38.467  18.747  81.6620  0.00  0.00     0.000 OA
ATOM     53   S  A00 X   3      37.478  19.766  81.7360  0.00  0.00     0.000 S
ENDBRANCH 42 49
BRANCH 45 54
ATOM     54   C  A00 X   3      36.724  23.497  76.7620  0.00  0.00     0.000 C
ATOM     55   O  A00 X   3      37.113  23.564  75.6130  0.00  0.00     0.000 OA
ATOM     56   O  A00 X   3      36.716  24.516  77.4350  0.00  0.00     0.000 OA
ENDBRANCH 45 54
BRANCH 41 57
ATOM     57  O4  A00 X   4      39.346  22.317  78.0810  0.00  0.00     0.000 O
BRANCH 57 61
ATOM     58  C1  A00 X   4      42.933  22.288  75.6800  0.00  0.00     0.000 C
ATOM     59  C2  A00 X   4      41.581  21.968  74.9960  0.00  0.00     0.000 C
ATOM     60  C3  A00 X   4      40.355  22.356  75.8470  0.00  0.00     0.000 C
ATOM     61  C4  A00 X   4      40.485  21.855  77.3020  0.00  0.00     0.000 C
ATOM     62  C5  A00 X   4      41.797  22.465  77.8560  0.00  0.00     0.000 C
ATOM     63  O5  A00 X   4      42.919  21.961  77.0880  0.00  0.00     0.000 O
BRANCH 59 66
ATOM     64   N  A00 X   4      41.454  20.518  74.7640  0.00  0.00     0.000 N
ATOM     66  HD  A00 X   4      41.876  19.989  75.3050  0.00  0.00     0.000 HD
ATOM     66   O  A00 X   4      42.791  20.819  72.7840  0.00  0.00     0.000 OA
ATOM     67   S  A00 X   4      41.779  19.953  73.3040  0.00  0.00     0.000 S
ATOM     68   O  A00 X   4      42.211  18.626  73.6300  0.00  0.00     0.000 OA
ATOM     69   O  A00 X   4      40.474  20.018  72.7110  0.00  0.00     0.000 OA
ENDBRANCH 59 66
BRANCH 62 70
ATOM     70   C  A00 X   4      42.050  22.164  79.3530  0.00  0.00     0.000 C
ATOM     71   O  A00 X   4      42.892  19.008  80.9140  0.00  0.00     0.000 OA
ATOM     72   O  A00 X   4      41.252  20.605  81.4680  0.00  0.00     0.000 OA
ATOM     73   O  A00 X   4      42.594  20.841  79.4860  0.00  0.00     0.000 O
ATOM     74   O  A00 X   4      40.899  19.129  79.5610  0.00  0.00     0.000 OA
ATOM     75   S  A00 X   4      41.827  19.821  80.3980  0.00  0.00     0.000 S
ENDBRANCH 62 70
ENDBRANCH 57 61
ENDBRANCH 41 57
ENDBRANCH 40 44
ENDBRANCH 20 40
ENDBRANCH 19 23
ENDBRANCH 1 19
TORSDOF 14
ENDMDL
MODEL 72
REMARK VINA RESULT:      -1.0     30.240     36.548
ROOT
ATOM      1  C1  A00 X   1      47.930  32.765  39.8990  0.00  0.00     0.000 C
ATOM      2  C2  A00 X   1      46.594  33.058  40.6320  0.00  0.00     0.000 C
ATOM      3  C3  A00 X   1      45.384  32.144  40.2470  0.00  0.00     0.000 C
ATOM      4  C4  A00 X   1      45.556  31.320  38.9450  0.00  0.00     0.000 C
ATOM      5  C5  A00 X   1      46.596  31.933  38.0080  0.00  0.00     0.000 C
ATOM      6  O5  A00 X   1      47.834  31.885  38.7520  0.00  0.00     0.000 O
ATOM      7   O  A00 X   1      44.233  32.964  40.0580  0.00  0.00     0.000 O
ATOM      9  HD  A00 X   1      44.228  32.369  39.4300  0.00  0.00     0.000 HD
ATOM      9   O  A00 X   1      45.900  29.964  39.2280  0.00  0.00     0.000 O
ATOM     11  HD  A00 X   1      45.895  29.369  38.5990  0.00  0.00     0.000 HD
ENDROOT
BRANCH 2 11
ATOM     11   O  A00 X   1      46.836  32.944  42.0480  0.00  0.00     0.000 O
ATOM     12   O  A00 X   1      45.137  33.437  43.6710  0.00  0.00     0.000 OA
ATOM     13   O  A00 X   1      45.962  35.217  42.2340  0.00  0.00     0.000 OA
ATOM     14   O  A00 X   1      47.368  34.264  43.8990  0.00  0.00     0.000 OA
ATOM     15   S  A00 X   1      46.262  34.043  43.0060  0.00  0.00     0.000 S
ENDBRANCH 2 11
BRANCH 5 16
ATOM     16   C  A00 X   1      46.251  33.330  37.4820  0.00  0.00     0.000 C
ATOM     17   O  A00 X   1      47.109  33.959  36.8970  0.00  0.00     0.000 OA
ATOM     18   O  A00 X   1      45.151  33.826  37.6220  0.00  0.00     0.000 OA
ENDBRANCH 5 16
BRANCH 1 19
ATOM     19  O4  A00 X   2      48.672  33.968  39.5820  0.00  0.00     0.000 O
BRANCH 19 23
ATOM     20  C1  A00 X   2      52.492  32.167  40.3090  0.00  0.00     0.000 C
ATOM     21  C2  A00 X   2      51.881  33.030  41.4400  0.00  0.00     0.000 C
ATOM     22  C3  A00 X   2      50.369  33.238  41.2170  0.00  0.00     0.000 C
ATOM     23  C4  A00 X   2      50.102  33.819  39.8100  0.00  0.00     0.000 C
ATOM     24  C5  A00 X   2      50.777  32.879  38.7730  0.00  0.00     0.000 C
ATOM     25  O5  A00 X   2      52.201  32.826  39.0480  0.00  0.00     0.000 O
ATOM     26   O  A00 X   2      49.838  33.984  42.3250  0.00  0.00     0.000 O
ATOM     28  HD  A00 X   2      50.448  34.596  42.2710  0.00  0.00     0.000 HD
BRANCH 21 30
ATOM     28   N  A00 X   2      53.237  33.463  41.7930  0.00  0.00     0.000 N
ATOM     30  HD  A00 X   2      52.727  33.664  42.4640  0.00  0.00     0.000 HD
ATOM     30   O  A00 X   2      53.303  33.839  44.0980  0.00  0.00     0.000 OA
ATOM     31   S  A00 X   2      53.412  34.584  42.8940  0.00  0.00     0.000 S
ATOM     32   O  A00 X   2      54.713  35.117  42.6300  0.00  0.00     0.000 OA
ATOM     33   O  A00 X   2      52.409  35.577  42.6510  0.00  0.00     0.000 OA
ENDBRANCH 21 30
BRANCH 24 34
ATOM     34   C  A00 X   2      50.466  33.108  37.2750  0.00  0.00     0.000 C
ATOM     35   O  A00 X   2      51.091  36.234  35.5170  0.00  0.00     0.000 OA
ATOM     36   O  A00 X   2      50.480  34.512  36.9480  0.00  0.00     0.000 O
ATOM     37   O  A00 X   2      52.747  35.029  36.6970  0.00  0.00     0.000 OA
ATOM     38   S  A00 X   2      51.565  34.944  35.8950  0.00  0.00     0.000 S
ATOM     39   O  A00 X   2      51.538  33.959  34.8570  0.00  0.00     0.000 OA
ENDBRANCH 24 34
BRANCH 20 40
ATOM     40  O4  A00 X   3      51.802  30.910  40.3640  0.00  0.00     0.000 O
BRANCH 40 44
ATOM     41  C1  A00 X   3      50.178  28.227  38.5500  0.00  0.00     0.000 C
ATOM     42  C2  A00 X   3      50.293  28.307  40.0880  0.00  0.00     0.000 C
ATOM     43  C3  A00 X   3      51.758  28.567  40.5230  0.00  0.00     0.000 C
ATOM     44  C4  A00 X   3      52.432  29.734  39.8130  0.00  0.00     0.000 C
ATOM     45  C5  A00 X   3      52.279  29.580  38.2740  0.00  0.00     0.000 C
ATOM     46  O5  A00 X   3      50.884  29.326  37.9090  0.00  0.00     0.000 O
ATOM     47   O  A00 X   3      51.998  28.573  41.9290  0.00  0.00     0.000 O
ATOM     49  HD  A00 X   3      52.528  29.226  41.7210  0.00  0.00     0.000 HD
BRANCH 42 49
ATOM     49   O  A00 X   3      49.416  29.370  40.5230  0.00  0.00     0.000 O
ATOM     50   O  A00 X   3      48.839  30.395  42.6070  0.00  0.00     0.000 OA
ATOM     51   O  A00 X   3      49.066  28.044  42.5170  0.00  0.00     0.000 OA
ATOM     52   O  A00 X   3      47.254  29.046  41.3780  0.00  0.00     0.000 OA
ATOM     53   S  A00 X   3      48.590  29.220  41.8330  0.00  0.00     0.000 S
ENDBRANCH 42 49
BRANCH 45 54
ATOM     54   C  A00 X   3      53.249  28.536  37.7080  0.00  0.00     0.000 C
ATOM     55   O  A00 X   3      53.429  28.442  36.5110  0.00  0.00     0.000 OA
ATOM     56   O  A00 X   3      53.857  27.781  38.4510  0.00  0.00     0.000 OA
ENDBRANCH 45 54
BRANCH 41 57
ATOM     57  O4  A00 X   4      50.551  26.922  38.0540  0.00  0.00     0.000 O
BRANCH 57 61
ATOM     58  C1  A00 X   4      49.190  24.546  34.7160  0.00  0.00     0.000 C
ATOM     59  C2  A00 X   4      49.858  25.914  34.4290  0.00  0.00     0.000 C
ATOM     60  C3  A00 X   4      50.615  26.495  35.6410  0.00  0.00     0.000 C
ATOM     61  C4  A00 X   4      49.764  26.441  36.9280  0.00  0.00     0.000 C
ATOM     62  C5  A00 X   4      49.382  24.955  37.1360  0.00  0.00     0.000 C
ATOM     63  O5  A00 X   4      48.568  24.510  36.0210  0.00  0.00     0.000 O
BRANCH 59 66
ATOM     64   N  A00 X   4      48.836  26.920  34.0860  0.00  0.00     0.000 N
ATOM     66  HD  A00 X   4      48.043  26.812  34.4160  0.00  0.00     0.000 HD
ATOM     66   O  A00 X   4      48.862  26.036  31.8460  0.00  0.00     0.000 OA
ATOM     67   S  A00 X   4      48.592  27.256  32.5410  0.00  0.00     0.000 S
ATOM     68   O  A00 X   4      47.216  27.654  32.5770  0.00  0.00     0.000 OA
ATOM     69   O  A00 X   4      49.515  28.342  32.3700  0.00  0.00     0.000 OA
ENDBRANCH 59 66
BRANCH 62 70
ATOM     70   C  A00 X   4      48.612  24.678  38.4490  0.00  0.00     0.000 C
ATOM     71   O  A00 X   4      45.235  25.638  39.3340  0.00  0.00     0.000 OA
ATOM     72   O  A00 X   4      47.256  25.870  40.5190  0.00  0.00     0.000 OA
ATOM     73   O  A00 X   4      47.228  25.021  38.2690  0.00  0.00     0.000 O
ATOM     74   O  A00 X   4      46.780  27.358  38.6490  0.00  0.00     0.000 OA
ATOM     75   S  A00 X   4      46.600  26.074  39.2470  0.00  0.00     0.000 S
ENDBRANCH 62 70
ENDBRANCH 57 61
ENDBRANCH 41 57
ENDBRANCH 40 44
ENDBRANCH 20 40
ENDBRANCH 19 23
ENDBRANCH 1 19
TORSDOF 14
ENDMDL
MODEL 73
REMARK VINA RESULT:      -1.0     50.901     55.943
ROOT
ATOM      1  C1  A00 X   1      41.204  63.065  34.5190  0.00  0.00     0.000 C
ATOM      2  C2  A00 X   1      40.172  62.522  33.4950  0.00  0.00     0.000 C
ATOM      3  C3  A00 X   1      38.726  62.278  34.0390  0.00  0.00     0.000 C
ATOM      4  C4  A00 X   1      38.589  62.253  35.5840  0.00  0.00     0.000 C
ATOM      5  C5  A00 X   1      39.913  61.927  36.2750  0.00  0.00     0.000 C
ATOM      6  O5  A00 X   1      40.795  63.011  35.9080  0.00  0.00     0.000 O
ATOM      7   O  A00 X   1      38.268  61.012  33.5710  0.00  0.00     0.000 O
ATOM      9  HD  A00 X   1      38.020  61.084  34.3980  0.00  0.00     0.000 HD
ATOM      9   O  A00 X   1      38.075  63.487  36.0820  0.00  0.00     0.000 O
ATOM     11  HD  A00 X   1      37.827  63.559  36.9090  0.00  0.00     0.000 HD
ENDROOT
BRANCH 2 11
ATOM     11   O  A00 X   1      40.109  63.455  32.3980  0.00  0.00     0.000 O
ATOM     12   O  A00 X   1      38.474  63.255  30.6520  0.00  0.00     0.000 OA
ATOM     13   O  A00 X   1      40.142  61.506  30.9270  0.00  0.00     0.000 OA
ATOM     14   O  A00 X   1      40.778  63.670  30.1720  0.00  0.00     0.000 OA
ATOM     15   S  A00 X   1      39.840  62.911  30.9540  0.00  0.00     0.000 S
ENDBRANCH 2 11
BRANCH 5 16
ATOM     16   C  A00 X   1      40.483  60.540  35.9620  0.00  0.00     0.000 C
ATOM     17   O  A00 X   1      41.622  60.291  36.2980  0.00  0.00     0.000 OA
ATOM     18   O  A00 X   1      39.835  59.681  35.3990  0.00  0.00     0.000 OA
ENDBRANCH 5 16
BRANCH 1 19
ATOM     19  O4  A00 X   2      42.526  62.502  34.3350  0.00  0.00     0.000 O
BRANCH 19 23
ATOM     20  C1  A00 X   2      44.546  66.197  35.1290  0.00  0.00     0.000 C
ATOM     21  C2  A00 X   2      44.319  65.811  33.6470  0.00  0.00     0.000 C
ATOM     22  C3  A00 X   2      43.233  64.722  33.5230  0.00  0.00     0.000 C
ATOM     23  C4  A00 X   2      43.577  63.507  34.4150  0.00  0.00     0.000 C
ATOM     24  C5  A00 X   2      43.797  64.027  35.8620  0.00  0.00     0.000 C
ATOM     25  O5  A00 X   2      44.888  64.985  35.8530  0.00  0.00     0.000 O
ATOM     26   O  A00 X   2      43.012  64.448  32.1290  0.00  0.00     0.000 O
ATOM     28  HD  A00 X   2      43.856  64.345  31.9640  0.00  0.00     0.000 HD
BRANCH 21 30
ATOM     28   N  A00 X   2      45.604  66.441  33.3260  0.00  0.00     0.000 N
ATOM     30  HD  A00 X   2      45.181  66.338  32.5770  0.00  0.00     0.000 HD
ATOM     30   O  A00 X   2      45.463  67.318  31.1650  0.00  0.00     0.000 OA
ATOM     31   S  A00 X   2      46.171  66.300  31.8570  0.00  0.00     0.000 S
ATOM     32   O  A00 X   2      47.573  66.538  32.0120  0.00  0.00     0.000 OA
ATOM     33   O  A00 X   2      45.939  64.949  31.4410  0.00  0.00     0.000 OA
ENDBRANCH 21 30
BRANCH 24 34
ATOM     34   C  A00 X   2      43.929  62.983  36.9960  0.00  0.00     0.000 C
ATOM     35   O  A00 X   2      46.926  62.529  39.0130  0.00  0.00     0.000 OA
ATOM     36   O  A00 X   2      45.308  62.789  37.3690  0.00  0.00     0.000 O
ATOM     37   O  A00 X   2      45.787  64.589  38.7830  0.00  0.00     0.000 OA
ATOM     38   S  A00 X   2      45.659  63.165  38.8550  0.00  0.00     0.000 S
ATOM     39   O  A00 X   2      44.607  62.634  39.6680  0.00  0.00     0.000 OA
ENDBRANCH 24 34
BRANCH 20 40
ATOM     40  O4  A00 X   3      43.285  66.696  35.5970  0.00  0.00     0.000 O
BRANCH 40 44
ATOM     41  C1  A00 X   3      40.802  66.728  38.2360  0.00  0.00     0.000 C
ATOM     42  C2  A00 X   3      40.673  67.486  36.8960  0.00  0.00     0.000 C
ATOM     43  C3  A00 X   3      41.940  68.333  36.6130  0.00  0.00     0.000 C
ATOM     44  C4  A00 X   3      43.253  67.572  36.7440  0.00  0.00     0.000 C
ATOM     45  C5  A00 X   3      43.311  66.843  38.1160  0.00  0.00     0.000 C
ATOM     46  O5  A00 X   3      42.092  66.065  38.3460  0.00  0.00     0.000 O
ATOM     47   O  A00 X   3      41.897  69.145  35.4410  0.00  0.00     0.000 O
ATOM     49  HD  A00 X   3      42.723  68.897  35.3750  0.00  0.00     0.000 HD
BRANCH 42 49
ATOM     49   O  A00 X   3      40.461  66.493  35.8680  0.00  0.00     0.000 O
ATOM     50   O  A00 X   3      40.230  66.489  33.4850  0.00  0.00     0.000 OA
ATOM     51   O  A00 X   3      39.155  68.186  34.7330  0.00  0.00     0.000 OA
ATOM     52   O  A00 X   3      38.370  65.966  34.9380  0.00  0.00     0.000 OA
ATOM     53   S  A00 X   3      39.501  66.787  34.6780  0.00  0.00     0.000 S
ENDBRANCH 42 49
BRANCH 45 54
ATOM     54   C  A00 X   3      43.633  67.812  39.2600  0.00  0.00     0.000 C
ATOM     55   O  A00 X   3      43.604  69.012  39.0820  0.00  0.00     0.000 OA
ATOM     56   O  A00 X   3      43.925  67.393  40.3700  0.00  0.00     0.000 OA
ENDBRANCH 45 54
BRANCH 41 57
ATOM     57  O4  A00 X   4      40.480  67.576  39.3610  0.00  0.00     0.000 O
BRANCH 57 61
ATOM     58  C1  A00 X   4      38.642  66.802  43.1900  0.00  0.00     0.000 C
ATOM     59  C2  A00 X   4      39.977  66.094  42.8520  0.00  0.00     0.000 C
ATOM     60  C3  A00 X   4      40.710  66.708  41.6430  0.00  0.00     0.000 C
ATOM     61  C4  A00 X   4      39.761  66.919  40.4430  0.00  0.00     0.000 C
ATOM     62  C5  A00 X   4      38.612  67.825  40.9510  0.00  0.00     0.000 C
ATOM     63  O5  A00 X   4      37.888  67.134  42.0010  0.00  0.00     0.000 O
BRANCH 59 66
ATOM     64   N  A00 X   4      39.627  64.708  42.4920  0.00  0.00     0.000 N
ATOM     66  HD  A00 X   4      38.829  64.564  42.1870  0.00  0.00     0.000 HD
ATOM     66   O  A00 X   4      39.656  64.195  44.8440  0.00  0.00     0.000 OA
ATOM     67   S  A00 X   4      39.862  63.560  43.5800  0.00  0.00     0.000 S
ATOM     68   O  A00 X   4      38.851  62.622  43.1890  0.00  0.00     0.000 OA
ATOM     69   O  A00 X   4      41.198  63.160  43.2420  0.00  0.00     0.000 OA
ENDBRANCH 59 66
BRANCH 62 70
ATOM     70   C  A00 X   4      37.605  68.242  39.8530  0.00  0.00     0.000 C
ATOM     71   O  A00 X   4      35.199  66.189  38.0910  0.00  0.00     0.000 OA
ATOM     72   O  A00 X   4      36.786  67.729  37.2820  0.00  0.00     0.000 OA
ATOM     73   O  A00 X   4      36.684  67.165  39.6180  0.00  0.00     0.000 O
ATOM     74   O  A00 X   4      37.520  65.536  38.0510  0.00  0.00     0.000 OA
ATOM     75   S  A00 X   4      36.573  66.599  38.1590  0.00  0.00     0.000 S
ENDBRANCH 62 70
ENDBRANCH 57 61
ENDBRANCH 41 57
ENDBRANCH 40 44
ENDBRANCH 20 40
ENDBRANCH 19 23
ENDBRANCH 1 19
TORSDOF 14
ENDMDL
MODEL 74
REMARK VINA RESULT:      -1.0     86.258     92.000
ROOT
ATOM      1  C1  A00 X   1      88.013  70.744  61.6860  0.00  0.00     0.000 C
ATOM      2  C2  A00 X   1      88.781  71.314  62.9080  0.00  0.00     0.000 C
ATOM      3  C3  A00 X   1      88.202  70.950  64.3150  0.00  0.00     0.000 C
ATOM      4  C4  A00 X   1      86.756  70.390  64.3180  0.00  0.00     0.000 C
ATOM      5  C5  A00 X   1      85.978  70.794  63.0660  0.00  0.00     0.000 C
ATOM      6  O5  A00 X   1      86.704  70.191  61.9720  0.00  0.00     0.000 O
ATOM      7   O  A00 X   1      88.183  72.126  65.1200  0.00  0.00     0.000 O
ATOM      9  HD  A00 X   1      87.442  71.703  65.2680  0.00  0.00     0.000 HD
ATOM      9   O  A00 X   1      86.747  68.969  64.4540  0.00  0.00     0.000 O
ATOM     11  HD  A00 X   1      86.006  68.546  64.6030  0.00  0.00     0.000 HD
ENDROOT
BRANCH 2 11
ATOM     11   O  A00 X   1      90.142  70.848  62.8260  0.00  0.00     0.000 O
ATOM     12   O  A00 X   1      91.717  71.207  64.6040  0.00  0.00     0.000 OA
ATOM     13   O  A00 X   1      90.804  73.124  63.4170  0.00  0.00     0.000 OA
ATOM     14   O  A00 X   1      92.286  71.622  62.3200  0.00  0.00     0.000 OA
ATOM     15   S  A00 X   1      91.293  71.775  63.3490  0.00  0.00     0.000 S
ENDBRANCH 2 11
BRANCH 5 16
ATOM     16   C  A00 X   1      85.758  72.301  62.8990  0.00  0.00     0.000 C
ATOM     17   O  A00 X   1      85.341  72.713  61.8350  0.00  0.00     0.000 OA
ATOM     18   O  A00 X   1      85.978  73.095  63.7910  0.00  0.00     0.000 OA
ENDBRANCH 5 16
BRANCH 1 19
ATOM     19  O4  A00 X   2      87.963  71.669  60.5730  0.00  0.00     0.000 O
BRANCH 19 23
ATOM     20  C1  A00 X   2      88.504  68.615  57.6160  0.00  0.00     0.000 C
ATOM     21  C2  A00 X   2      89.752  69.425  58.0420  0.00  0.00     0.000 C
ATOM     22  C3  A00 X   2      89.503  70.155  59.3780  0.00  0.00     0.000 C
ATOM     23  C4  A00 X   2      88.225  71.020  59.2950  0.00  0.00     0.000 C
ATOM     24  C5  A00 X   2      87.058  70.101  58.8430  0.00  0.00     0.000 C
ATOM     25  O5  A00 X   2      87.383  69.536  57.5460  0.00  0.00     0.000 O
ATOM     26   O  A00 X   2      90.709  70.835  59.7640  0.00  0.00     0.000 O
ATOM     28  HD  A00 X   2      90.804  71.212  58.9900  0.00  0.00     0.000 HD
BRANCH 21 30
ATOM     28   N  A00 X   2      90.246  69.318  56.6660  0.00  0.00     0.000 N
ATOM     30  HD  A00 X   2      90.918  69.562  57.1550  0.00  0.00     0.000 HD
ATOM     30   O  A00 X   2      92.581  69.259  56.7340  0.00  0.00     0.000 OA
ATOM     31   S  A00 X   2      91.550  70.115  56.2640  0.00  0.00     0.000 S
ATOM     32   O  A00 X   2      91.456  70.223  54.8400  0.00  0.00     0.000 OA
ATOM     33   O  A00 X   2      91.457  71.411  56.8670  0.00  0.00     0.000 OA
ENDBRANCH 21 30
BRANCH 24 34
ATOM     34   C  A00 X   2      85.620  70.670  58.9020  0.00  0.00     0.000 C
ATOM     35   O  A00 X   2      84.541  73.673  57.1500  0.00  0.00     0.000 OA
ATOM     36   O  A00 X   2      85.575  72.027  58.4170  0.00  0.00     0.000 O
ATOM     37   O  A00 X   2      85.542  71.812  56.0890  0.00  0.00     0.000 OA
ATOM     38   S  A00 X   2      84.682  72.254  57.1430  0.00  0.00     0.000 S
ATOM     39   O  A00 X   2      83.470  71.523  57.3630  0.00  0.00     0.000 OA
ENDBRANCH 24 34
BRANCH 20 40
ATOM     40  O4  A00 X   3      88.280  67.665  58.6680  0.00  0.00     0.000 O
BRANCH 40 44
ATOM     41  C1  A00 X   3      85.920  66.034  60.8800  0.00  0.00     0.000 C
ATOM     42  C2  A00 X   3      87.445  65.789  60.8850  0.00  0.00     0.000 C
ATOM     43  C3  A00 X   3      87.961  65.475  59.4570  0.00  0.00     0.000 C
ATOM     44  C4  A00 X   3      87.519  66.470  58.3910  0.00  0.00     0.000 C
ATOM     45  C5  A00 X   3      85.977  66.659  58.4460  0.00  0.00     0.000 C
ATOM     46  O5  A00 X   3      85.533  66.943  59.8120  0.00  0.00     0.000 O
ATOM     47   O  A00 X   3      89.345  65.146  59.3530  0.00  0.00     0.000 O
ATOM     49  HD  A00 X   3      89.287  65.618  58.6290  0.00  0.00     0.000 HD
BRANCH 42 49
ATOM     49   O  A00 X   3      88.063  66.980  61.4200  0.00  0.00     0.000 O
ATOM     50   O  A00 X   3      90.297  67.744  61.8160  0.00  0.00     0.000 OA
ATOM     51   O  A00 X   3      89.751  65.500  62.3240  0.00  0.00     0.000 OA
ATOM     52   O  A00 X   3      88.796  67.217  63.6380  0.00  0.00     0.000 OA
ATOM     53   S  A00 X   3      89.302  66.870  62.3550  0.00  0.00     0.000 S
ENDBRANCH 42 49
BRANCH 45 54
ATOM     54   C  A00 X   3      85.237  65.479  57.8040  0.00  0.00     0.000 C
ATOM     55   O  A00 X   3      84.041  65.533  57.6030  0.00  0.00     0.000 OA
ATOM     56   O  A00 X   3      85.837  64.464  57.4860  0.00  0.00     0.000 OA
ENDBRANCH 45 54
BRANCH 41 57
ATOM     57  O4  A00 X   4      85.180  64.793  60.8920  0.00  0.00     0.000 O
BRANCH 57 61
ATOM     58  C1  A00 X   4      81.400  63.642  62.6320  0.00  0.00     0.000 C
ATOM     59  C2  A00 X   4      81.414  64.765  61.5650  0.00  0.00     0.000 C
ATOM     60  C3  A00 X   4      82.732  64.839  60.7680  0.00  0.00     0.000 C
ATOM     61  C4  A00 X   4      83.966  64.804  61.6950  0.00  0.00     0.000 C
ATOM     62  C5  A00 X   4      83.855  63.497  62.5180  0.00  0.00     0.000 C
ATOM     63  O5  A00 X   4      82.659  63.549  63.3380  0.00  0.00     0.000 O
BRANCH 59 66
ATOM     64   N  A00 X   4      81.272  66.076  62.2230  0.00  0.00     0.000 N
ATOM     66  HD  A00 X   4      81.557  66.147  63.0380  0.00  0.00     0.000 HD
ATOM     66   O  A00 X   4      78.897  65.683  62.2710  0.00  0.00     0.000 OA
ATOM     67   S  A00 X   4      79.829  66.766  62.2340  0.00  0.00     0.000 S
ATOM     68   O  A00 X   4      79.922  67.541  63.4360  0.00  0.00     0.000 OA
ATOM     69   O  A00 X   4      79.909  67.539  61.0270  0.00  0.00     0.000 OA
ENDBRANCH 59 66
BRANCH 62 70
ATOM     70   C  A00 X   4      85.069  63.225  63.4380  0.00  0.00     0.000 C
ATOM     71   O  A00 X   4      86.092  65.006  66.4200  0.00  0.00     0.000 OA
ATOM     72   O  A00 X   4      87.326  64.352  64.5240  0.00  0.00     0.000 OA
ATOM     73   O  A00 X   4      84.947  64.015  64.6320  0.00  0.00     0.000 O
ATOM     74   O  A00 X   4      85.806  66.251  64.3750  0.00  0.00     0.000 OA
ATOM     75   S  A00 X   4      86.117  64.998  64.9840  0.00  0.00     0.000 S
ENDBRANCH 62 70
ENDBRANCH 57 61
ENDBRANCH 41 57
ENDBRANCH 40 44
ENDBRANCH 20 40
ENDBRANCH 19 23
ENDBRANCH 1 19
TORSDOF 14
ENDMDL
MODEL 75
REMARK VINA RESULT:      -1.0     55.793     61.297
ROOT
ATOM      1  C1  A00 X   1      58.162  53.468  48.5090  0.00  0.00     0.000 C
ATOM      2  C2  A00 X   1      58.817  53.702  47.1210  0.00  0.00     0.000 C
ATOM      3  C3  A00 X   1      59.666  55.008  46.9740  0.00  0.00     0.000 C
ATOM      4  C4  A00 X   1      59.453  56.072  48.0810  0.00  0.00     0.000 C
ATOM      5  C5  A00 X   1      58.106  55.911  48.7850  0.00  0.00     0.000 C
ATOM      6  O5  A00 X   1      58.170  54.606  49.4050  0.00  0.00     0.000 O
ATOM      7   O  A00 X   1      59.329  55.635  45.7390  0.00  0.00     0.000 O
ATOM      9  HD  A00 X   1      59.401  56.262  46.3320  0.00  0.00     0.000 HD
ATOM      9   O  A00 X   1      60.507  56.043  49.0430  0.00  0.00     0.000 O
ATOM     11  HD  A00 X   1      60.579  56.670  49.6360  0.00  0.00     0.000 HD
ENDROOT
BRANCH 2 11
ATOM     11   O  A00 X   1      59.653  52.564  46.8330  0.00  0.00     0.000 O
ATOM     12   O  A00 X   1      61.120  52.514  44.9320  0.00  0.00     0.000 OA
ATOM     13   O  A00 X   1      58.716  52.628  44.5790  0.00  0.00     0.000 OA
ATOM     14   O  A00 X   1      59.709  50.664  45.4790  0.00  0.00     0.000 OA
ATOM     15   S  A00 X   1      59.806  52.092  45.3460  0.00  0.00     0.000 S
ENDBRANCH 2 11
BRANCH 5 16
ATOM     16   C  A00 X   1      56.878  56.104  47.8890  0.00  0.00     0.000 C
ATOM     17   O  A00 X   1      55.789  55.781  48.3170  0.00  0.00     0.000 OA
ATOM     18   O  A00 X   1      56.955  56.573  46.7710  0.00  0.00     0.000 OA
ENDBRANCH 5 16
BRANCH 1 19
ATOM     19  O4  A00 X   2      56.842  52.879  48.4130  0.00  0.00     0.000 O
BRANCH 19 23
ATOM     20  C1  A00 X   2      57.412  50.300  51.7880  0.00  0.00     0.000 C
ATOM     21  C2  A00 X   2      57.637  49.696  50.3810  0.00  0.00     0.000 C
ATOM     22  C3  A00 X   2      57.823  50.809  49.3290  0.00  0.00     0.000 C
ATOM     23  C4  A00 X   2      56.640  51.802  49.3730  0.00  0.00     0.000 C
ATOM     24  C5  A00 X   2      56.508  52.319  50.8310  0.00  0.00     0.000 C
ATOM     25  O5  A00 X   2      56.265  51.188  51.7080  0.00  0.00     0.000 O
ATOM     26   O  A00 X   2      58.096  50.198  48.0560  0.00  0.00     0.000 O
ATOM     28  HD  A00 X   2      57.420  49.661  48.1120  0.00  0.00     0.000 HD
BRANCH 21 30
ATOM     28   N  A00 X   2      57.105  48.425  50.8830  0.00  0.00     0.000 N
ATOM     30  HD  A00 X   2      57.511  48.250  50.1390  0.00  0.00     0.000 HD
ATOM     30   O  A00 X   2      58.173  46.688  49.7430  0.00  0.00     0.000 OA
ATOM     31   S  A00 X   2      56.871  47.244  49.8600  0.00  0.00     0.000 S
ATOM     32   O  A00 X   2      55.915  46.409  50.5190  0.00  0.00     0.000 OA
ATOM     33   O  A00 X   2      56.300  47.815  48.6760  0.00  0.00     0.000 OA
ENDBRANCH 21 30
BRANCH 24 34
ATOM     34   C  A00 X   2      55.545  53.500  51.0990  0.00  0.00     0.000 C
ATOM     35   O  A00 X   2      52.580  53.279  53.2010  0.00  0.00     0.000 OA
ATOM     36   O  A00 X   2      54.298  53.041  51.6580  0.00  0.00     0.000 O
ATOM     37   O  A00 X   2      54.761  52.724  53.9290  0.00  0.00     0.000 OA
ATOM     38   S  A00 X   2      53.970  53.580  53.0980  0.00  0.00     0.000 S
ATOM     39   O  A00 X   2      54.290  54.976  53.0910  0.00  0.00     0.000 OA
ENDBRANCH 24 34
BRANCH 20 40
ATOM     40  O4  A00 X   3      58.591  51.065  52.0750  0.00  0.00     0.000 O
BRANCH 40 44
ATOM     41  C1  A00 X   3      60.015  54.138  53.3610  0.00  0.00     0.000 C
ATOM     42  C2  A00 X   3      60.833  52.968  52.7720  0.00  0.00     0.000 C
ATOM     43  C3  A00 X   3      60.429  51.623  53.4290  0.00  0.00     0.000 C
ATOM     44  C4  A00 X   3      58.930  51.353  53.4490  0.00  0.00     0.000 C
ATOM     45  C5  A00 X   3      58.178  52.570  54.0580  0.00  0.00     0.000 C
ATOM     46  O5  A00 X   3      58.597  53.818  53.4170  0.00  0.00     0.000 O
ATOM     47   O  A00 X   3      61.181  50.482  53.0230  0.00  0.00     0.000 O
ATOM     49  HD  A00 X   3      60.406  50.097  53.0620  0.00  0.00     0.000 HD
BRANCH 42 49
ATOM     49   O  A00 X   3      60.588  52.956  51.3490  0.00  0.00     0.000 O
ATOM     50   O  A00 X   3      61.241  51.595  49.4910  0.00  0.00     0.000 OA
ATOM     51   O  A00 X   3      62.855  52.136  51.1310  0.00  0.00     0.000 OA
ATOM     52   O  A00 X   3      62.039  53.864  49.7410  0.00  0.00     0.000 OA
ATOM     53   S  A00 X   3      61.739  52.617  50.3560  0.00  0.00     0.000 S
ENDBRANCH 42 49
BRANCH 45 54
ATOM     54   C  A00 X   3      58.301  52.606  55.5860  0.00  0.00     0.000 C
ATOM     55   O  A00 X   3      59.049  51.845  56.1650  0.00  0.00     0.000 OA
ATOM     56   O  A00 X   3      57.649  53.400  56.2480  0.00  0.00     0.000 OA
ENDBRANCH 45 54
BRANCH 41 57
ATOM     57  O4  A00 X   4      60.564  54.594  54.6180  0.00  0.00     0.000 O
BRANCH 57 61
ATOM     58  C1  A00 X   4      60.805  58.479  56.4840  0.00  0.00     0.000 C
ATOM     59  C2  A00 X   4      59.405  57.884  56.1900  0.00  0.00     0.000 C
ATOM     60  C3  A00 X   4      59.434  56.376  55.8670  0.00  0.00     0.000 C
ATOM     61  C4  A00 X   4      60.522  56.034  54.8250  0.00  0.00     0.000 C
ATOM     62  C5  A00 X   4      61.864  56.530  55.4180  0.00  0.00     0.000 C
ATOM     63  O5  A00 X   4      61.811  57.971  55.5800  0.00  0.00     0.000 O
BRANCH 59 66
ATOM     64   N  A00 X   4      58.806  58.524  55.0050  0.00  0.00     0.000 N
ATOM     66  HD  A00 X   4      59.346  58.835  54.4030  0.00  0.00     0.000 HD
ATOM     66   O  A00 X   4      58.135  60.333  56.4450  0.00  0.00     0.000 OA
ATOM     67   S  A00 X   4      57.735  59.689  55.2330  0.00  0.00     0.000 S
ATOM     68   O  A00 X   4      57.925  60.453  54.0360  0.00  0.00     0.000 OA
ATOM     69   O  A00 X   4      56.524  58.918  55.2530  0.00  0.00     0.000 OA
ENDBRANCH 59 66
BRANCH 62 70
ATOM     70   C  A00 X   4      63.103  56.177  54.5600  0.00  0.00     0.000 C
ATOM     71   O  A00 X   4      64.069  57.498  51.3310  0.00  0.00     0.000 OA
ATOM     72   O  A00 X   4      63.909  55.276  52.0940  0.00  0.00     0.000 OA
ATOM     73   O  A00 X   4      63.215  57.116  53.4790  0.00  0.00     0.000 O
ATOM     74   O  A00 X   4      61.879  56.516  51.5660  0.00  0.00     0.000 OA
ATOM     75   S  A00 X   4      63.233  56.552  52.0160  0.00  0.00     0.000 S
ENDBRANCH 62 70
ENDBRANCH 57 61
ENDBRANCH 41 57
ENDBRANCH 40 44
ENDBRANCH 20 40
ENDBRANCH 19 23
ENDBRANCH 1 19
TORSDOF 14
ENDMDL
MODEL 76
REMARK VINA RESULT:      -1.0     54.399     60.032
ROOT
ATOM      1  C1  A00 X   1      57.615  53.617  46.8320  0.00  0.00     0.000 C
ATOM      2  C2  A00 X   1      58.566  53.551  45.6070  0.00  0.00     0.000 C
ATOM      3  C3  A00 X   1      59.647  54.677  45.5150  0.00  0.00     0.000 C
ATOM      4  C4  A00 X   1      59.412  55.906  46.4310  0.00  0.00     0.000 C
ATOM      5  C5  A00 X   1      57.945  56.054  46.8330  0.00  0.00     0.000 C
ATOM      6  O5  A00 X   1      57.648  54.855  47.5840  0.00  0.00     0.000 O
ATOM      7   O  A00 X   1      59.683  55.170  44.1780  0.00  0.00     0.000 O
ATOM      9  HD  A00 X   1      59.746  55.855  44.7040  0.00  0.00     0.000 HD
ATOM      9   O  A00 X   1      60.230  55.850  47.5990  0.00  0.00     0.000 O
ATOM     11  HD  A00 X   1      60.293  56.535  48.1250  0.00  0.00     0.000 HD
ENDROOT
BRANCH 2 11
ATOM     11   O  A00 X   1      59.223  52.269  45.6310  0.00  0.00     0.000 O
ATOM     12   O  A00 X   1      61.007  51.728  44.1160  0.00  0.00     0.000 OA
ATOM     13   O  A00 X   1      58.783  52.160  43.2310  0.00  0.00     0.000 OA
ATOM     14   O  A00 X   1      59.206  50.212  44.5270  0.00  0.00     0.000 OA
ATOM     15   S  A00 X   1      59.582  51.576  44.2720  0.00  0.00     0.000 S
ENDBRANCH 2 11
BRANCH 5 16
ATOM     16   C  A00 X   1      56.977  56.306  45.6730  0.00  0.00     0.000 C
ATOM     17   O  A00 X   1      55.785  56.217  45.8810  0.00  0.00     0.000 OA
ATOM     18   O  A00 X   1      57.359  56.597  44.5570  0.00  0.00     0.000 OA
ENDBRANCH 5 16
BRANCH 1 19
ATOM     19  O4  A00 X   2      56.256  53.231  46.5090  0.00  0.00     0.000 O
BRANCH 19 23
ATOM     20  C1  A00 X   2      55.666  51.094  50.1770  0.00  0.00     0.000 C
ATOM     21  C2  A00 X   2      56.055  50.271  48.9250  0.00  0.00     0.000 C
ATOM     22  C3  A00 X   2      56.645  51.183  47.8290  0.00  0.00     0.000 C
ATOM     23  C4  A00 X   2      55.676  52.343  47.5070  0.00  0.00     0.000 C
ATOM     24  C5  A00 X   2      55.351  53.073  48.8390  0.00  0.00     0.000 C
ATOM     25  O5  A00 X   2      54.737  52.127  49.7530  0.00  0.00     0.000 O
ATOM     26   O  A00 X   2      57.053  50.366  46.7190  0.00  0.00     0.000 O
ATOM     28  HD  A00 X   2      56.294  49.952  46.6800  0.00  0.00     0.000 HD
BRANCH 21 30
ATOM     28   N  A00 X   2      55.214  49.180  49.4270  0.00  0.00     0.000 N
ATOM     30  HD  A00 X   2      55.722  48.842  48.8130  0.00  0.00     0.000 HD
ATOM     30   O  A00 X   2      56.157  47.157  48.7370  0.00  0.00     0.000 OA
ATOM     31   S  A00 X   2      54.980  47.917  48.5050  0.00  0.00     0.000 S
ATOM     32   O  A00 X   2      53.778  47.339  49.0210  0.00  0.00     0.000 OA
ATOM     33   O  A00 X   2      54.770  48.398  47.1720  0.00  0.00     0.000 OA
ENDBRANCH 21 30
BRANCH 24 34
ATOM     34   C  A00 X   2      54.582  54.413  48.7630  0.00  0.00     0.000 C
ATOM     35   O  A00 X   2      51.267  54.948  50.1690  0.00  0.00     0.000 OA
ATOM     36   O  A00 X   2      53.187  54.235  49.0780  0.00  0.00     0.000 O
ATOM     37   O  A00 X   2      53.121  54.172  51.4150  0.00  0.00     0.000 OA
ATOM     38   S  A00 X   2      52.680  55.014  50.3460  0.00  0.00     0.000 S
ATOM     39   O  A00 X   2      53.241  56.330  50.2630  0.00  0.00     0.000 OA
ENDBRANCH 24 34
BRANCH 20 40
ATOM     40  O4  A00 X   3      56.882  51.701  50.6360  0.00  0.00     0.000 O
BRANCH 40 44
ATOM     41  C1  A00 X   3      58.550  54.668  51.8770  0.00  0.00     0.000 C
ATOM     42  C2  A00 X   3      59.244  53.315  51.6080  0.00  0.00     0.000 C
ATOM     43  C3  A00 X   3      58.482  52.153  52.2960  0.00  0.00     0.000 C
ATOM     44  C4  A00 X   3      56.985  52.123  52.0130  0.00  0.00     0.000 C
ATOM     45  C5  A00 X   3      56.359  53.514  52.3110  0.00  0.00     0.000 C
ATOM     46  O5  A00 X   3      57.116  54.580  51.6510  0.00  0.00     0.000 O
ATOM     47   O  A00 X   3      59.082  50.864  52.1880  0.00  0.00     0.000 O
ATOM     49  HD  A00 X   3      58.259  50.613  52.0940  0.00  0.00     0.000 HD
BRANCH 42 49
ATOM     49   O  A00 X   3      59.291  53.141  50.1750  0.00  0.00     0.000 O
ATOM     50   O  A00 X   3      60.047  51.449  48.6590  0.00  0.00     0.000 OA
ATOM     51   O  A00 X   3      61.370  51.960  50.5500  0.00  0.00     0.000 OA
ATOM     52   O  A00 X   3      61.173  53.581  48.8410  0.00  0.00     0.000 OA
ATOM     53   S  A00 X   3      60.537  52.494  49.5020  0.00  0.00     0.000 S
ENDBRANCH 42 49
BRANCH 45 54
ATOM     54   C  A00 X   3      56.178  53.745  53.8160  0.00  0.00     0.000 C
ATOM     55   O  A00 X   3      56.645  52.966  54.6210  0.00  0.00     0.000 OA
ATOM     56   O  A00 X   3      55.561  54.714  54.2310  0.00  0.00     0.000 OA
ENDBRANCH 45 54
BRANCH 41 57
ATOM     57  O4  A00 X   4      58.909  55.205  53.1700  0.00  0.00     0.000 O
BRANCH 57 61
ATOM     58  C1  A00 X   4      59.467  59.230  54.6280  0.00  0.00     0.000 C
ATOM     59  C2  A00 X   4      58.071  58.821  54.0960  0.00  0.00     0.000 C
ATOM     60  C3  A00 X   4      57.893  57.297  53.9450  0.00  0.00     0.000 C
ATOM     61  C4  A00 X   4      59.086  56.650  53.2110  0.00  0.00     0.000 C
ATOM     62  C5  A00 X   4      60.350  57.011  54.0310  0.00  0.00     0.000 C
ATOM     63  O5  A00 X   4      60.526  58.451  54.0260  0.00  0.00     0.000 O
BRANCH 59 66
ATOM     64   N  A00 X   4      57.847  59.373  52.7470  0.00  0.00     0.000 N
ATOM     66  HD  A00 X   4      58.543  59.510  52.2500  0.00  0.00     0.000 HD
ATOM     66   O  A00 X   4      57.238  61.448  53.8070  0.00  0.00     0.000 OA
ATOM     67   S  A00 X   4      56.979  60.710  52.6110  0.00  0.00     0.000 S
ATOM     68   O  A00 X   4      57.539  61.261  51.4120  0.00  0.00     0.000 OA
ATOM     69   O  A00 X   4      55.670  60.145  52.4430  0.00  0.00     0.000 OA
ENDBRANCH 59 66
BRANCH 62 70
ATOM     70   C  A00 X   4      61.651  56.355  53.5090  0.00  0.00     0.000 C
ATOM     71   O  A00 X   4      63.465  57.046  50.4540  0.00  0.00     0.000 OA
ATOM     72   O  A00 X   4      62.759  55.004  51.3900  0.00  0.00     0.000 OA
ATOM     73   O  A00 X   4      62.144  57.105  52.3880  0.00  0.00     0.000 O
ATOM     74   O  A00 X   4      61.132  56.455  50.3000  0.00  0.00     0.000 OA
ATOM     75   S  A00 X   4      62.353  56.345  51.0320  0.00  0.00     0.000 S
ENDBRANCH 62 70
ENDBRANCH 57 61
ENDBRANCH 41 57
ENDBRANCH 40 44
ENDBRANCH 20 40
ENDBRANCH 19 23
ENDBRANCH 1 19
TORSDOF 14
ENDMDL
MODEL 77
REMARK VINA RESULT:      -1.0     49.821     54.672
ROOT
ATOM      1  C1  A00 X   1      12.869  66.922  26.3890  0.00  0.00     0.000 C
ATOM      2  C2  A00 X   1      11.881  66.234  25.4100  0.00  0.00     0.000 C
ATOM      3  C3  A00 X   1      11.862  64.670  25.4390  0.00  0.00     0.000 C
ATOM      4  C4  A00 X   1      13.064  64.000  26.1530  0.00  0.00     0.000 C
ATOM      5  C5  A00 X   1      14.284  64.919  26.2130  0.00  0.00     0.000 C
ATOM      6  O5  A00 X   1      13.853  66.051  27.0010  0.00  0.00     0.000 O
ATOM      7   O  A00 X   1      11.868  64.188  24.0970  0.00  0.00     0.000 O
ATOM      9  HD  A00 X   1      12.405  63.684  24.5520  0.00  0.00     0.000 HD
ATOM      9   O  A00 X   1      12.717  63.572  27.4690  0.00  0.00     0.000 O
ATOM     11  HD  A00 X   1      13.254  63.068  27.9240  0.00  0.00     0.000 HD
ENDROOT
BRANCH 2 11
ATOM     11   O  A00 X   1      10.559  66.725  25.7050  0.00  0.00     0.000 O
ATOM     12   O  A00 X   1       8.601  65.810  24.6580  0.00  0.00     0.000 OA
ATOM     13   O  A00 X   1      10.260  66.949  23.2910  0.00  0.00     0.000 OA
ATOM     14   O  A00 X   1       8.937  68.169  24.8460  0.00  0.00     0.000 OA
ATOM     15   S  A00 X   1       9.535  66.900  24.5310  0.00  0.00     0.000 S
ENDBRANCH 2 11
BRANCH 5 16
ATOM     16   C  A00 X   1      14.872  65.307  24.8530  0.00  0.00     0.000 C
ATOM     17   O  A00 X   1      15.698  66.195  24.8080  0.00  0.00     0.000 OA
ATOM     18   O  A00 X   1      14.546  64.754  23.8210  0.00  0.00     0.000 OA
ENDBRANCH 5 16
BRANCH 1 19
ATOM     19  O4  A00 X   2      13.489  68.103  25.8230  0.00  0.00     0.000 O
BRANCH 19 23
ATOM     20  C1  A00 X   2      13.304  70.327  29.4820  0.00  0.00     0.000 C
ATOM     21  C2  A00 X   2      12.193  70.581  28.4340  0.00  0.00     0.000 C
ATOM     22  C3  A00 X   2      12.140  69.437  27.4010  0.00  0.00     0.000 C
ATOM     23  C4  A00 X   2      13.529  69.217  26.7610  0.00  0.00     0.000 C
ATOM     24  C5  A00 X   2      14.551  68.993  27.9090  0.00  0.00     0.000 C
ATOM     25  O5  A00 X   2      14.557  70.166  28.7640  0.00  0.00     0.000 O
ATOM     26   O  A00 X   2      11.052  69.684  26.4940  0.00  0.00     0.000 O
ATOM     28  HD  A00 X   2      11.302  70.498  26.3370  0.00  0.00     0.000 HD
BRANCH 21 30
ATOM     28   N  A00 X   2      12.170  71.986  28.8540  0.00  0.00     0.000 N
ATOM     30  HD  A00 X   2      11.445  71.848  28.4020  0.00  0.00     0.000 HD
ATOM     30   O  A00 X   2       9.991  72.786  28.5970  0.00  0.00     0.000 OA
ATOM     31   S  A00 X   2      11.278  73.006  28.0410  0.00  0.00     0.000 S
ATOM     32   O  A00 X   2      11.858  74.279  28.3430  0.00  0.00     0.000 OA
ATOM     33   O  A00 X   2      11.446  72.701  26.6510  0.00  0.00     0.000 OA
ENDBRANCH 21 30
BRANCH 24 34
ATOM     34   C  A00 X   2      15.975  68.522  27.5320  0.00  0.00     0.000 C
ATOM     35   O  A00 X   2      18.199  70.338  25.2930  0.00  0.00     0.000 OA
ATOM     36   O  A00 X   2      16.472  69.231  26.3800  0.00  0.00     0.000 O
ATOM     37   O  A00 X   2      17.225  71.275  27.2340  0.00  0.00     0.000 OA
ATOM     38   S  A00 X   2      17.763  70.095  26.6290  0.00  0.00     0.000 S
ATOM     39   O  A00 X   2      18.644  69.287  27.4170  0.00  0.00     0.000 OA
ENDBRANCH 24 34
BRANCH 20 40
ATOM     40  O4  A00 X   3      12.957  69.092  30.1240  0.00  0.00     0.000 O
BRANCH 40 44
ATOM     41  C1  A00 X   3      14.069  65.877  31.3680  0.00  0.00     0.000 C
ATOM     42  C2  A00 X   3      12.607  66.374  31.3970  0.00  0.00     0.000 C
ATOM     43  C3  A00 X   3      12.514  67.788  32.0270  0.00  0.00     0.000 C
ATOM     44  C4  A00 X   3      13.481  68.808  31.4390  0.00  0.00     0.000 C
ATOM     45  C5  A00 X   3      14.927  68.238  31.4490  0.00  0.00     0.000 C
ATOM     46  O5  A00 X   3      14.966  66.900  30.8550  0.00  0.00     0.000 O
ATOM     47   O  A00 X   3      11.198  68.314  32.1860  0.00  0.00     0.000 O
ATOM     49  HD  A00 X   3      11.585  69.051  31.9470  0.00  0.00     0.000 HD
BRANCH 42 49
ATOM     49   O  A00 X   3      12.132  66.372  30.0330  0.00  0.00     0.000 O
ATOM     50   O  A00 X   3      10.116  66.988  28.9000  0.00  0.00     0.000 OA
ATOM     51   O  A00 X   3       9.961  65.843  30.9620  0.00  0.00     0.000 OA
ATOM     52   O  A00 X   3      10.808  64.679  29.0880  0.00  0.00     0.000 OA
ATOM     53   S  A00 X   3      10.669  65.950  29.7110  0.00  0.00     0.000 S
ENDBRANCH 42 49
BRANCH 45 54
ATOM     54   C  A00 X   3      15.550  68.295  32.8490  0.00  0.00     0.000 C
ATOM     55   O  A00 X   3      16.721  68.023  33.0160  0.00  0.00     0.000 OA
ATOM     56   O  A00 X   3      14.880  68.613  33.8190  0.00  0.00     0.000 OA
ENDBRANCH 45 54
BRANCH 41 57
ATOM     57  O4  A00 X   4      14.471  65.329  32.6430  0.00  0.00     0.000 O
BRANCH 57 61
ATOM     58  C1  A00 X   4      17.127  62.110  33.7510  0.00  0.00     0.000 C
ATOM     59  C2  A00 X   4      17.710  63.320  32.9810  0.00  0.00     0.000 C
ATOM     60  C3  A00 X   4      16.773  64.545  32.9580  0.00  0.00     0.000 C
ATOM     61  C4  A00 X   4      15.331  64.156  32.5680  0.00  0.00     0.000 C
ATOM     62  C5  A00 X   4      14.874  63.090  33.5950  0.00  0.00     0.000 C
ATOM     63  O5  A00 X   4      15.721  61.918  33.4750  0.00  0.00     0.000 O
BRANCH 59 66
ATOM     64   N  A00 X   4      17.921  62.954  31.5690  0.00  0.00     0.000 N
ATOM     66  HD  A00 X   4      17.412  62.338  31.2350  0.00  0.00     0.000 HD
ATOM     66   O  A00 X   4      20.002  61.948  32.2440  0.00  0.00     0.000 OA
ATOM     67   S  A00 X   4      19.399  62.558  31.1010  0.00  0.00     0.000 S
ATOM     68   O  A00 X   4      19.098  61.672  30.0150  0.00  0.00     0.000 OA
ATOM     69   O  A00 X   4      19.888  63.845  30.6930  0.00  0.00     0.000 OA
ENDBRANCH 59 66
BRANCH 62 70
ATOM     70   C  A00 X   4      13.399  62.649  33.4350  0.00  0.00     0.000 C
ATOM     71   O  A00 X   4      11.898  60.696  30.7820  0.00  0.00     0.000 OA
ATOM     72   O  A00 X   4      11.229  62.734  31.7540  0.00  0.00     0.000 OA
ATOM     73   O  A00 X   4      13.304  61.686  32.3730  0.00  0.00     0.000 O
ATOM     74   O  A00 X   4      13.103  62.701  30.1960  0.00  0.00     0.000 OA
ATOM     75   S  A00 X   4      12.337  62.004  31.1790  0.00  0.00     0.000 S
ENDBRANCH 62 70
ENDBRANCH 57 61
ENDBRANCH 41 57
ENDBRANCH 40 44
ENDBRANCH 20 40
ENDBRANCH 19 23
ENDBRANCH 1 19
TORSDOF 14
ENDMDL
MODEL 78
REMARK VINA RESULT:      -1.0     73.502     78.058
ROOT
ATOM      1  C1  A00 X   1      52.841  15.029  87.4880  0.00  0.00     0.000 C
ATOM      2  C2  A00 X   1      52.314  13.592  87.2270  0.00  0.00     0.000 C
ATOM      3  C3  A00 X   1      53.069  12.439  87.9680  0.00  0.00     0.000 C
ATOM      4  C4  A00 X   1      54.450  12.818  88.5630  0.00  0.00     0.000 C
ATOM      5  C5  A00 X   1      55.059  14.040  87.8760  0.00  0.00     0.000 C
ATOM      6  O5  A00 X   1      54.130  15.113  88.1450  0.00  0.00     0.000 O
ATOM      7   O  A00 X   1      53.303  11.379  87.0430  0.00  0.00     0.000 O
ATOM      9  HD  A00 X   1      54.022  11.467  87.5180  0.00  0.00     0.000 HD
ATOM      9   O  A00 X   1      54.366  13.047  89.9690  0.00  0.00     0.000 O
ATOM     11  HD  A00 X   1      55.085  13.135  90.4440  0.00  0.00     0.000 HD
ENDROOT
BRANCH 2 11
ATOM     11   O  A00 X   1      50.924  13.560  87.6040  0.00  0.00     0.000 O
ATOM     12   O  A00 X   1      49.561  11.612  87.2670  0.00  0.00     0.000 OA
ATOM     13   O  A00 X   1      50.477  12.772  85.3350  0.00  0.00     0.000 OA
ATOM     14   O  A00 X   1      48.797  13.796  86.6710  0.00  0.00     0.000 OA
ATOM     15   S  A00 X   1      49.895  12.868  86.6450  0.00  0.00     0.000 S
ENDBRANCH 2 11
BRANCH 5 16
ATOM     16   C  A00 X   1      55.370  13.857  86.3870  0.00  0.00     0.000 C
ATOM     17   O  A00 X   1      55.665  14.835  85.7310  0.00  0.00     0.000 OA
ATOM     18   O  A00 X   1      55.339  12.772  85.8420  0.00  0.00     0.000 OA
ENDBRANCH 5 16
BRANCH 1 19
ATOM     19  O4  A00 X   2      52.795  15.866  86.3060  0.00  0.00     0.000 O
BRANCH 19 23
ATOM     20  C1  A00 X   2      51.714  19.396  88.4820  0.00  0.00     0.000 C
ATOM     21  C2  A00 X   2      50.578  18.615  87.7780  0.00  0.00     0.000 C
ATOM     22  C3  A00 X   2      51.033  17.184  87.4230  0.00  0.00     0.000 C
ATOM     23  C4  A00 X   2      52.339  17.218  86.5970  0.00  0.00     0.000 C
ATOM     24  C5  A00 X   2      53.386  18.041  87.3980  0.00  0.00     0.000 C
ATOM     25  O5  A00 X   2      52.869  19.382  87.6020  0.00  0.00     0.000 O
ATOM     26   O  A00 X   2      49.926  16.480  86.8350  0.00  0.00     0.000 O
ATOM     28  HD  A00 X   2      49.758  17.114  86.2700  0.00  0.00     0.000 HD
BRANCH 21 30
ATOM     28   N  A00 X   2      49.912  19.895  87.5190  0.00  0.00     0.000 N
ATOM     30  HD  A00 X   2      49.322  19.275  87.3900  0.00  0.00     0.000 HD
ATOM     30   O  A00 X   2      47.604  19.529  87.5320  0.00  0.00     0.000 OA
ATOM     31   S  A00 X   2      48.618  19.906  86.6110  0.00  0.00     0.000 S
ATOM     32   O  A00 X   2      48.541  21.257  86.1480  0.00  0.00     0.000 OA
ATOM     33   O  A00 X   2      48.862  19.018  85.5150  0.00  0.00     0.000 OA
ENDBRANCH 21 30
BRANCH 24 34
ATOM     34   C  A00 X   2      54.850  18.034  86.9000  0.00  0.00     0.000 C
ATOM     35   O  A00 X   2      55.880  19.120  83.5800  0.00  0.00     0.000 OA
ATOM     36   O  A00 X   2      54.914  18.172  85.4660  0.00  0.00     0.000 O
ATOM     37   O  A00 X   2      54.651  20.465  85.0890  0.00  0.00     0.000 OA
ATOM     38   S  A00 X   2      55.657  19.457  84.9480  0.00  0.00     0.000 S
ATOM     39   O  A00 X   2      56.842  19.587  85.7420  0.00  0.00     0.000 OA
ENDBRANCH 24 34
BRANCH 20 40
ATOM     40  O4  A00 X   3      52.011  18.657  89.6760  0.00  0.00     0.000 O
BRANCH 40 44
ATOM     41  C1  A00 X   3      54.525  17.288  91.8960  0.00  0.00     0.000 C
ATOM     42  C2  A00 X   3      53.001  17.123  92.0830  0.00  0.00     0.000 C
ATOM     43  C3  A00 X   3      52.281  18.493  92.0040  0.00  0.00     0.000 C
ATOM     44  C4  A00 X   3      52.645  19.330  90.7840  0.00  0.00     0.000 C
ATOM     45  C5  A00 X   3      54.190  19.455  90.6660  0.00  0.00     0.000 C
ATOM     46  O5  A00 X   3      54.829  18.140  90.7570  0.00  0.00     0.000 O
ATOM     47   O  A00 X   3      50.876  18.473  92.2500  0.00  0.00     0.000 O
ATOM     49  HD  A00 X   3      50.869  19.057  91.6100  0.00  0.00     0.000 HD
BRANCH 42 49
ATOM     49   O  A00 X   3      52.542  16.224  91.0500  0.00  0.00     0.000 O
ATOM     50   O  A00 X   3      50.438  15.331  90.3390  0.00  0.00     0.000 OA
ATOM     51   O  A00 X   3      50.890  15.483  92.6550  0.00  0.00     0.000 OA
ATOM     52   O  A00 X   3      52.125  13.935  91.3650  0.00  0.00     0.000 OA
ATOM     53   S  A00 X   3      51.432  15.177  91.3550  0.00  0.00     0.000 S
ENDBRANCH 42 49
BRANCH 45 54
ATOM     54   C  A00 X   3      54.756  20.470  91.6660  0.00  0.00     0.000 C
ATOM     55   O  A00 X   3      55.917  20.820  91.6040  0.00  0.00     0.000 OA
ATOM     56   O  A00 X   3      54.050  20.944  92.5430  0.00  0.00     0.000 OA
ENDBRANCH 45 54
BRANCH 41 57
ATOM     57  O4  A00 X   4      55.173  17.693  93.1220  0.00  0.00     0.000 O
BRANCH 57 61
ATOM     58  C1  A00 X   4      59.058  16.854  94.8080  0.00  0.00     0.000 C
ATOM     59  C2  A00 X   4      58.984  17.591  93.4470  0.00  0.00     0.000 C
ATOM     60  C3  A00 X   4      57.582  18.148  93.1260  0.00  0.00     0.000 C
ATOM     61  C4  A00 X   4      56.479  17.094  93.3590  0.00  0.00     0.000 C
ATOM     62  C5  A00 X   4      56.605  16.650  94.8370  0.00  0.00     0.000 C
ATOM     63  O5  A00 X   4      57.897  16.023  95.0380  0.00  0.00     0.000 O
BRANCH 59 66
ATOM     64   N  A00 X   4      59.299  16.651  92.3560  0.00  0.00     0.000 N
ATOM     66  HD  A00 X   4      59.127  15.813  92.4880  0.00  0.00     0.000 HD
ATOM     66   O  A00 X   4      61.628  17.042  92.8270  0.00  0.00     0.000 OA
ATOM     67   S  A00 X   4      60.775  16.673  91.7410  0.00  0.00     0.000 S
ATOM     68   O  A00 X   4      60.891  15.313  91.3000  0.00  0.00     0.000 OA
ATOM     69   O  A00 X   4      60.593  17.622  90.6800  0.00  0.00     0.000 OA
ENDBRANCH 59 66
BRANCH 62 70
ATOM     70   C  A00 X   4      55.504  15.665  95.2980  0.00  0.00     0.000 C
ATOM     71   O  A00 X   4      55.011  12.211  94.3320  0.00  0.00     0.000 OA
ATOM     72   O  A00 X   4      53.496  14.012  94.4160  0.00  0.00     0.000 OA
ATOM     73   O  A00 X   4      55.838  14.340  94.8570  0.00  0.00     0.000 O
ATOM     74   O  A00 X   4      55.119  13.887  92.6020  0.00  0.00     0.000 OA
ATOM     75   S  A00 X   4      54.799  13.582  93.9590  0.00  0.00     0.000 S
ENDBRANCH 62 70
ENDBRANCH 57 61
ENDBRANCH 41 57
ENDBRANCH 40 44
ENDBRANCH 20 40
ENDBRANCH 19 23
ENDBRANCH 1 19
TORSDOF 14
ENDMDL
MODEL 79
REMARK VINA RESULT:      -1.0     50.026     57.115
ROOT
ATOM      1  C1  A00 X   1      30.750  63.496  48.1410  0.00  0.00     0.000 C
ATOM      2  C2  A00 X   1      29.212  63.685  48.2290  0.00  0.00     0.000 C
ATOM      3  C3  A00 X   1      28.343  62.448  47.8280  0.00  0.00     0.000 C
ATOM      4  C4  A00 X   1      29.088  61.330  47.0530  0.00  0.00     0.000 C
ATOM      5  C5  A00 X   1      30.347  61.851  46.3580  0.00  0.00     0.000 C
ATOM      6  O5  A00 X   1      31.195  62.313  47.4330  0.00  0.00     0.000 O
ATOM      7   O  A00 X   1      27.283  62.888  46.9820  0.00  0.00     0.000 O
ATOM      9  HD  A00 X   1      27.581  62.146  46.6520  0.00  0.00     0.000 HD
ATOM      9   O  A00 X   1      29.426  60.239  47.9090  0.00  0.00     0.000 O
ATOM     11  HD  A00 X   1      29.725  59.496  47.5780  0.00  0.00     0.000 HD
ENDROOT
BRANCH 2 11
ATOM     11   O  A00 X   1      28.893  64.064  49.5820  0.00  0.00     0.000 O
ATOM     12   O  A00 X   1      26.625  64.222  50.3560  0.00  0.00     0.000 OA
ATOM     13   O  A00 X   1      27.395  65.730  48.6100  0.00  0.00     0.000 OA
ATOM     14   O  A00 X   1      28.234  65.925  50.8270  0.00  0.00     0.000 OA
ATOM     15   S  A00 X   1      27.692  65.038  49.8340  0.00  0.00     0.000 S
ENDBRANCH 2 11
BRANCH 5 16
ATOM     16   C  A00 X   1      30.099  62.906  45.2760  0.00  0.00     0.000 C
ATOM     17   O  A00 X   1      31.049  63.522  44.8370  0.00  0.00     0.000 OA
ATOM     18   O  A00 X   1      28.991  63.143  44.8370  0.00  0.00     0.000 OA
ENDBRANCH 5 16
BRANCH 1 19
ATOM     19  O4  A00 X   2      31.435  64.682  47.6700  0.00  0.00     0.000 O
BRANCH 19 23
ATOM     20  C1  A00 X   2      34.742  64.214  50.3560  0.00  0.00     0.000 C
ATOM     21  C2  A00 X   2      33.613  65.186  50.7750  0.00  0.00     0.000 C
ATOM     22  C3  A00 X   2      32.331  64.927  49.9560  0.00  0.00     0.000 C
ATOM     23  C4  A00 X   2      32.635  64.977  48.4410  0.00  0.00     0.000 C
ATOM     24  C5  A00 X   2      33.789  63.978  48.1550  0.00  0.00     0.000 C
ATOM     25  O5  A00 X   2      34.952  64.374  48.9270  0.00  0.00     0.000 O
ATOM     26   O  A00 X   2      31.296  65.805  50.4290  0.00  0.00     0.000 O
ATOM     28  HD  A00 X   2      31.798  66.508  50.3750  0.00  0.00     0.000 HD
BRANCH 21 30
ATOM     28   N  A00 X   2      34.629  66.031  51.4100  0.00  0.00     0.000 N
ATOM     30  HD  A00 X   2      33.861  66.287  51.7190  0.00  0.00     0.000 HD
ATOM     30   O  A00 X   2      33.652  67.079  53.2560  0.00  0.00     0.000 OA
ATOM     31   S  A00 X   2      34.192  67.435  51.9920  0.00  0.00     0.000 S
ATOM     32   O  A00 X   2      35.414  68.175  52.0440  0.00  0.00     0.000 OA
ATOM     33   O  A00 X   2      33.293  68.024  51.0450  0.00  0.00     0.000 OA
ENDBRANCH 21 30
BRANCH 24 34
ATOM     34   C  A00 X   2      34.130  63.668  46.6780  0.00  0.00     0.000 C
ATOM     35   O  A00 X   2      37.348  64.387  45.1330  0.00  0.00     0.000 OA
ATOM     36   O  A00 X   2      35.317  64.369  46.2580  0.00  0.00     0.000 O
ATOM     37   O  A00 X   2      37.082  63.074  47.0820  0.00  0.00     0.000 OA
ATOM     38   S  A00 X   2      36.519  63.453  45.8220  0.00  0.00     0.000 S
ATOM     39   O  A00 X   2      35.963  62.417  45.0050  0.00  0.00     0.000 OA
ENDBRANCH 24 34
BRANCH 20 40
ATOM     40  O4  A00 X   3      34.238  62.897  50.6220  0.00  0.00     0.000 O
BRANCH 40 44
ATOM     41  C1  A00 X   3      33.854  59.462  49.5360  0.00  0.00     0.000 C
ATOM     42  C2  A00 X   3      33.291  60.037  50.8540  0.00  0.00     0.000 C
ATOM     43  C3  A00 X   3      34.391  60.788  51.6460  0.00  0.00     0.000 C
ATOM     44  C4  A00 X   3      35.170  61.814  50.8320  0.00  0.00     0.000 C
ATOM     45  C5  A00 X   3      35.707  61.161  49.5280  0.00  0.00     0.000 C
ATOM     46  O5  A00 X   3      34.639  60.455  48.8180  0.00  0.00     0.000 O
ATOM     47   O  A00 X   3      34.006  61.288  52.9250  0.00  0.00     0.000 O
ATOM     49  HD  A00 X   3      34.497  61.960  52.6860  0.00  0.00     0.000 HD
BRANCH 42 49
ATOM     49   O  A00 X   3      32.201  60.916  50.5000  0.00  0.00     0.000 O
ATOM     50   O  A00 X   3      30.691  62.360  51.6690  0.00  0.00     0.000 OA
ATOM     51   O  A00 X   3      31.195  60.244  52.5970  0.00  0.00     0.000 OA
ATOM     52   O  A00 X   3      29.930  60.328  50.6020  0.00  0.00     0.000 OA
ATOM     53   S  A00 X   3      30.923  60.978  51.3860  0.00  0.00     0.000 S
ENDBRANCH 42 49
BRANCH 45 54
ATOM     54   C  A00 X   3      36.935  60.283  49.7970  0.00  0.00     0.000 C
ATOM     55   O  A00 X   3      37.318  60.085  50.9320  0.00  0.00     0.000 OA
ATOM     56   O  A00 X   3      37.551  59.770  48.8750  0.00  0.00     0.000 OA
ENDBRANCH 45 54
BRANCH 41 57
ATOM     57  O4  A00 X   4      34.546  58.211  49.7510  0.00  0.00     0.000 O
BRANCH 57 61
ATOM     58  C1  A00 X   4      34.969  54.637  47.3670  0.00  0.00     0.000 C
ATOM     59  C2  A00 X   4      35.538  55.967  46.8150  0.00  0.00     0.000 C
ATOM     60  C3  A00 X   4      35.653  57.076  47.8810  0.00  0.00     0.000 C
ATOM     61  C4  A00 X   4      34.356  57.213  48.7080  0.00  0.00     0.000 C
ATOM     62  C5  A00 X   4      34.092  55.823  49.3370  0.00  0.00     0.000 C
ATOM     63  O5  A00 X   4      33.869  54.855  48.2800  0.00  0.00     0.000 O
BRANCH 59 66
ATOM     64   N  A00 X   4      34.710  56.575  45.7580  0.00  0.00     0.000 N
ATOM     66  HD  A00 X   4      33.856  56.433  45.7870  0.00  0.00     0.000 HD
ATOM     66   O  A00 X   4      35.699  55.006  44.2210  0.00  0.00     0.000 OA
ATOM     67   S  A00 X   4      35.115  56.311  44.2330  0.00  0.00     0.000 S
ATOM     68   O  A00 X   4      33.832  56.420  43.6020  0.00  0.00     0.000 OA
ATOM     69   O  A00 X   4      35.981  57.434  44.0030  0.00  0.00     0.000 OA
ENDBRANCH 59 66
BRANCH 62 70
ATOM     70   C  A00 X   4      32.881  55.786  50.3010  0.00  0.00     0.000 C
ATOM     71   O  A00 X   4      29.357  56.054  49.5160  0.00  0.00     0.000 OA
ATOM     72   O  A00 X   4      30.660  57.174  51.1270  0.00  0.00     0.000 OA
ATOM     73   O  A00 X   4      31.669  55.678  49.5370  0.00  0.00     0.000 O
ATOM     74   O  A00 X   4      30.838  57.809  48.7810  0.00  0.00     0.000 OA
ATOM     75   S  A00 X   4      30.575  56.783  49.7370  0.00  0.00     0.000 S
ENDBRANCH 62 70
ENDBRANCH 57 61
ENDBRANCH 41 57
ENDBRANCH 40 44
ENDBRANCH 20 40
ENDBRANCH 19 23
ENDBRANCH 1 19
TORSDOF 14
ENDMDL
MODEL 80
REMARK VINA RESULT:      -1.0     50.616     55.199
ROOT
ATOM      1  C1  A00 X   1      29.442  72.205  15.9560  0.00  0.00     0.000 C
ATOM      2  C2  A00 X   1      28.374  73.317  15.7750  0.00  0.00     0.000 C
ATOM      3  C3  A00 X   1      28.000  73.677  14.3000  0.00  0.00     0.000 C
ATOM      4  C4  A00 X   1      28.981  73.161  13.2160  0.00  0.00     0.000 C
ATOM      5  C5  A00 X   1      30.373  72.883  13.7830  0.00  0.00     0.000 C
ATOM      6  O5  A00 X   1      30.170  71.836  14.7580  0.00  0.00     0.000 O
ATOM      7   O  A00 X   1      27.964  75.096  14.1700  0.00  0.00     0.000 O
ATOM      9  HD  A00 X   1      28.349  74.785  13.4600  0.00  0.00     0.000 HD
ATOM      9   O  A00 X   1      28.479  71.989  12.5730  0.00  0.00     0.000 O
ATOM     11  HD  A00 X   1      28.864  71.677  11.8630  0.00  0.00     0.000 HD
ENDROOT
BRANCH 2 11
ATOM     11   O  A00 X   1      27.185  72.899  16.4730  0.00  0.00     0.000 O
ATOM     12   O  A00 X   1      25.129  74.132  16.3280  0.00  0.00     0.000 OA
ATOM     13   O  A00 X   1      27.074  75.177  17.3490  0.00  0.00     0.000 OA
ATOM     14   O  A00 X   1      25.982  73.356  18.4220  0.00  0.00     0.000 OA
ATOM     15   S  A00 X   1      26.292  73.986  17.1660  0.00  0.00     0.000 S
ENDBRANCH 2 11
BRANCH 5 16
ATOM     16   C  A00 X   1      31.101  74.110  14.3420  0.00  0.00     0.000 C
ATOM     17   O  A00 X   1      32.109  73.938  14.9970  0.00  0.00     0.000 OA
ATOM     18   O  A00 X   1      30.711  75.244  14.1480  0.00  0.00     0.000 OA
ENDBRANCH 5 16
BRANCH 1 19
ATOM     19  O4  A00 X   2      30.342  72.465  17.0610  0.00  0.00     0.000 O
BRANCH 19 23
ATOM     20  C1  A00 X   2      30.486  68.367  18.3060  0.00  0.00     0.000 C
ATOM     21  C2  A00 X   2      29.516  69.308  19.0590  0.00  0.00     0.000 C
ATOM     22  C3  A00 X   2      29.255  70.593  18.2460  0.00  0.00     0.000 C
ATOM     23  C4  A00 X   2      30.588  71.280  17.8710  0.00  0.00     0.000 C
ATOM     24  C5  A00 X   2      31.473  70.232  17.1430  0.00  0.00     0.000 C
ATOM     25  O5  A00 X   2      31.704  69.112  18.0370  0.00  0.00     0.000 O
ATOM     26   O  A00 X   2      28.299  71.401  18.9540  0.00  0.00     0.000 O
ATOM     28  HD  A00 X   2      28.735  71.352  19.7000  0.00  0.00     0.000 HD
BRANCH 21 30
ATOM     28   N  A00 X   2      29.793  68.553  20.2850  0.00  0.00     0.000 N
ATOM     30  HD  A00 X   2      29.078  69.018  20.4340  0.00  0.00     0.000 HD
ATOM     30   O  A00 X   2      27.868  68.583  21.6090  0.00  0.00     0.000 OA
ATOM     31   S  A00 X   2      29.198  69.079  21.6510  0.00  0.00     0.000 S
ATOM     32   O  A00 X   2      30.036  68.476  22.6410  0.00  0.00     0.000 OA
ATOM     33   O  A00 X   2      29.360  70.503  21.6630  0.00  0.00     0.000 OA
ENDBRANCH 21 30
BRANCH 24 34
ATOM     34   C  A00 X   2      32.770  70.727  16.4590  0.00  0.00     0.000 C
ATOM     35   O  A00 X   2      35.458  72.462  18.1970  0.00  0.00     0.000 OA
ATOM     36   O  A00 X   2      33.472  71.671  17.2930  0.00  0.00     0.000 O
ATOM     37   O  A00 X   2      34.627  70.340  18.8310  0.00  0.00     0.000 OA
ATOM     38   S  A00 X   2      34.912  71.225  17.7430  0.00  0.00     0.000 S
ATOM     39   O  A00 X   2      35.545  70.671  16.5850  0.00  0.00     0.000 OA
ENDBRANCH 24 34
BRANCH 20 40
ATOM     40  O4  A00 X   3      29.835  68.049  17.0670  0.00  0.00     0.000 O
BRANCH 40 44
ATOM     41  C1  A00 X   3      30.108  67.639  13.4780  0.00  0.00     0.000 C
ATOM     42  C2  A00 X   3      28.802  67.480  14.2850  0.00  0.00     0.000 C
ATOM     43  C3  A00 X   3      29.004  66.522  15.4870  0.00  0.00     0.000 C
ATOM     44  C4  A00 X   3      30.209  66.847  16.3600  0.00  0.00     0.000 C
ATOM     45  C5  A00 X   3      31.483  66.986  15.4790  0.00  0.00     0.000 C
ATOM     46  O5  A00 X   3      31.243  67.890  14.3530  0.00  0.00     0.000 O
ATOM     47   O  A00 X   3      27.838  66.232  16.2550  0.00  0.00     0.000 O
ATOM     49  HD  A00 X   3      28.397  66.284  16.9150  0.00  0.00     0.000 HD
BRANCH 42 49
ATOM     49   O  A00 X   3      28.411  68.800  14.7220  0.00  0.00     0.000 O
ATOM     50   O  A00 X   3      26.656  69.736  16.0550  0.00  0.00     0.000 OA
ATOM     51   O  A00 X   3      26.131  68.015  14.5210  0.00  0.00     0.000 OA
ATOM     52   O  A00 X   3      26.780  70.123  13.6710  0.00  0.00     0.000 OA
ATOM     53   S  A00 X   3      26.909  69.207  14.7510  0.00  0.00     0.000 S
ENDBRANCH 42 49
BRANCH 45 54
ATOM     54   C  A00 X   3      32.028  65.619  15.0500  0.00  0.00     0.000 C
ATOM     55   O  A00 X   3      31.406  64.603  15.2860  0.00  0.00     0.000 OA
ATOM     56   O  A00 X   3      33.096  65.527  14.4640  0.00  0.00     0.000 OA
ENDBRANCH 45 54
BRANCH 41 57
ATOM     57  O4  A00 X   4      30.306  66.540  12.5610  0.00  0.00     0.000 O
BRANCH 57 61
ATOM     58  C1  A00 X   4      32.092  66.271   8.6390  0.00  0.00     0.000 C
ATOM     59  C2  A00 X   4      32.977  66.723   9.8270  0.00  0.00     0.000 C
ATOM     60  C3  A00 X   4      32.347  66.439  11.2060  0.00  0.00     0.000 C
ATOM     61  C4  A00 X   4      30.877  66.905  11.2720  0.00  0.00     0.000 C
ATOM     62  C5  A00 X   4      30.135  66.170  10.1290  0.00  0.00     0.000 C
ATOM     63  O5  A00 X   4      30.696  66.579   8.8550  0.00  0.00     0.000 O
BRANCH 59 66
ATOM     64   N  A00 X   4      33.166  68.184   9.7640  0.00  0.00     0.000 N
ATOM     66  HD  A00 X   4      32.547  68.651   9.3800  0.00  0.00     0.000 HD
ATOM     66   O  A00 X   4      34.929  67.786   8.1730  0.00  0.00     0.000 OA
ATOM     67   S  A00 X   4      34.536  68.744   9.1580  0.00  0.00     0.000 S
ATOM     68   O  A00 X   4      34.094  70.009   8.6460  0.00  0.00     0.000 OA
ATOM     69   O  A00 X   4      35.323  68.837  10.3540  0.00  0.00     0.000 OA
ENDBRANCH 59 66
BRANCH 62 70
ATOM     70   C  A00 X   4      28.609  66.426  10.0990  0.00  0.00     0.000 C
ATOM     71   O  A00 X   4      26.843  69.472   9.2560  0.00  0.00     0.000 OA
ATOM     72   O  A00 X   4      26.607  68.021  11.0950  0.00  0.00     0.000 OA
ATOM     73   O  A00 X   4      28.352  67.693   9.4730  0.00  0.00     0.000 O
ATOM     74   O  A00 X   4      28.503  69.548  11.0030  0.00  0.00     0.000 OA
ATOM     75   S  A00 X   4      27.548  68.765  10.2880  0.00  0.00     0.000 S
ENDBRANCH 62 70
ENDBRANCH 57 61
ENDBRANCH 41 57
ENDBRANCH 40 44
ENDBRANCH 20 40
ENDBRANCH 19 23
ENDBRANCH 1 19
TORSDOF 14
ENDMDL
MODEL 81
REMARK VINA RESULT:      -1.0     42.359     46.998
ROOT
ATOM      1  C1  A00 X   1      23.849  60.594  12.9850  0.00  0.00     0.000 C
ATOM      2  C2  A00 X   1      23.807  59.983  11.5590  0.00  0.00     0.000 C
ATOM      3  C3  A00 X   1      22.703  58.904  11.3070  0.00  0.00     0.000 C
ATOM      4  C4  A00 X   1      22.040  58.316  12.5800  0.00  0.00     0.000 C
ATOM      5  C5  A00 X   1      22.924  58.473  13.8160  0.00  0.00     0.000 C
ATOM      6  O5  A00 X   1      23.065  59.901  13.9880  0.00  0.00     0.000 O
ATOM      7   O  A00 X   1      23.287  57.806  10.6110  0.00  0.00     0.000 O
ATOM      9  HD  A00 X   1      22.756  57.475  11.2100  0.00  0.00     0.000 HD
ATOM      9   O  A00 X   1      20.762  58.904  12.8220  0.00  0.00     0.000 O
ATOM     11  HD  A00 X   1      20.232  58.573  13.4210  0.00  0.00     0.000 HD
ENDROOT
BRANCH 2 11
ATOM     11   O  A00 X   1      23.628  61.064  10.6240  0.00  0.00     0.000 O
ATOM     12   O  A00 X   1      23.225  60.670   8.2900  0.00  0.00     0.000 OA
ATOM     13   O  A00 X   1      25.343  59.979   9.2650  0.00  0.00     0.000 OA
ATOM     14   O  A00 X   1      24.820  62.288   9.0320  0.00  0.00     0.000 OA
ATOM     15   S  A00 X   1      24.295  60.961   9.2090  0.00  0.00     0.000 S
ENDBRANCH 2 11
BRANCH 5 16
ATOM     16   C  A00 X   1      24.262  57.728  13.7560  0.00  0.00     0.000 C
ATOM     17   O  A00 X   1      25.102  57.972  14.5970  0.00  0.00     0.000 OA
ATOM     18   O  A00 X   1      24.508  56.899  12.9020  0.00  0.00     0.000 OA
ENDBRANCH 5 16
BRANCH 1 19
ATOM     19  O4  A00 X   2      25.199  60.842  13.4490  0.00  0.00     0.000 O
BRANCH 19 23
ATOM     20  C1  A00 X   2      24.200  64.571  15.3110  0.00  0.00     0.000 C
ATOM     21  C2  A00 X   2      24.832  64.624  13.8980  0.00  0.00     0.000 C
ATOM     22  C3  A00 X   2      24.731  63.252  13.2000  0.00  0.00     0.000 C
ATOM     23  C4  A00 X   2      25.340  62.144  14.0880  0.00  0.00     0.000 C
ATOM     24  C5  A00 X   2      24.640  62.207  15.4730  0.00  0.00     0.000 C
ATOM     25  O5  A00 X   2      24.870  63.518  16.0530  0.00  0.00     0.000 O
ATOM     26   O  A00 X   2      25.268  63.371  11.8710  0.00  0.00     0.000 O
ATOM     28  HD  A00 X   2      25.997  63.748  12.1450  0.00  0.00     0.000 HD
BRANCH 21 30
ATOM     28   N  A00 X   2      25.513  65.862  14.2900  0.00  0.00     0.000 N
ATOM     30  HD  A00 X   2      25.556  65.814  13.4260  0.00  0.00     0.000 HD
ATOM     30   O  A00 X   2      25.734  67.203  12.3900  0.00  0.00     0.000 OA
ATOM     31   S  A00 X   2      26.567  66.495  13.2960  0.00  0.00     0.000 S
ATOM     32   O  A00 X   2      27.377  67.317  14.1400  0.00  0.00     0.000 OA
ATOM     33   O  A00 X   2      27.342  65.417  12.7590  0.00  0.00     0.000 OA
ENDBRANCH 21 30
BRANCH 24 34
ATOM     34   C  A00 X   2      24.903  61.057  16.4730  0.00  0.00     0.000 C
ATOM     35   O  A00 X   2      28.204  60.147  17.7130  0.00  0.00     0.000 OA
ATOM     36   O  A00 X   2      26.300  60.703  16.5060  0.00  0.00     0.000 O
ATOM     37   O  A00 X   2      27.276  62.316  17.8910  0.00  0.00     0.000 OA
ATOM     38   S  A00 X   2      27.012  60.909  17.8940  0.00  0.00     0.000 S
ATOM     39   O  A00 X   2      26.113  60.405  18.8880  0.00  0.00     0.000 OA
ENDBRANCH 24 34
BRANCH 20 40
ATOM     40  O4  A00 X   3      22.825  64.215  15.1070  0.00  0.00     0.000 O
BRANCH 40 44
ATOM     41  C1  A00 X   3      19.983  62.219  16.1380  0.00  0.00     0.000 C
ATOM     42  C2  A00 X   3      19.983  63.202  14.9470  0.00  0.00     0.000 C
ATOM     43  C3  A00 X   3      20.522  64.591  15.3740  0.00  0.00     0.000 C
ATOM     44  C4  A00 X   3      21.851  64.554  16.1170  0.00  0.00     0.000 C
ATOM     45  C5  A00 X   3      21.771  63.549  17.3010  0.00  0.00     0.000 C
ATOM     46  O5  A00 X   3      21.248  62.256  16.8550  0.00  0.00     0.000 O
ATOM     47   O  A00 X   3      20.486  65.608  14.3740  0.00  0.00     0.000 O
ATOM     49  HD  A00 X   3      21.250  65.820  14.7220  0.00  0.00     0.000 HD
BRANCH 42 49
ATOM     49   O  A00 X   3      20.801  62.613  13.9120  0.00  0.00     0.000 O
ATOM     50   O  A00 X   3      21.538  63.237  11.7220  0.00  0.00     0.000 OA
ATOM     51   O  A00 X   3      19.301  63.685  12.3440  0.00  0.00     0.000 OA
ATOM     52   O  A00 X   3      19.964  61.433  12.0630  0.00  0.00     0.000 OA
ATOM     53   S  A00 X   3      20.391  62.743  12.4160  0.00  0.00     0.000 S
ENDBRANCH 42 49
BRANCH 45 54
ATOM     54   C  A00 X   3      20.999  64.134  18.4900  0.00  0.00     0.000 C
ATOM     55   O  A00 X   3      20.408  65.189  18.3860  0.00  0.00     0.000 OA
ATOM     56   O  A00 X   3      20.967  63.550  19.5630  0.00  0.00     0.000 OA
ENDBRANCH 45 54
BRANCH 41 57
ATOM     57  O4  A00 X   4      18.824  62.402  16.9810  0.00  0.00     0.000 O
BRANCH 57 61
ATOM     58  C1  A00 X   4      16.462  59.684  19.3620  0.00  0.00     0.000 C
ATOM     59  C2  A00 X   4      17.960  59.865  19.7110  0.00  0.00     0.000 C
ATOM     60  C3  A00 X   4      18.601  61.100  19.0470  0.00  0.00     0.000 C
ATOM     61  C4  A00 X   4      18.267  61.179  17.5410  0.00  0.00     0.000 C
ATOM     62  C5  A00 X   4      16.722  61.197  17.4380  0.00  0.00     0.000 C
ATOM     63  O5  A00 X   4      16.194  59.954  17.9670  0.00  0.00     0.000 O
BRANCH 59 66
ATOM     64   N  A00 X   4      18.736  58.709  19.2270  0.00  0.00     0.000 N
ATOM     66  HD  A00 X   4      18.431  58.283  18.5370  0.00  0.00     0.000 HD
ATOM     66   O  A00 X   4      18.052  57.541  21.2180  0.00  0.00     0.000 OA
ATOM     67   S  A00 X   4      19.125  57.565  20.2740  0.00  0.00     0.000 S
ATOM     68   O  A00 X   4      19.204  56.431  19.4010  0.00  0.00     0.000 OA
ATOM     69   O  A00 X   4      20.399  58.053  20.7210  0.00  0.00     0.000 OA
ENDBRANCH 59 66
BRANCH 62 70
ATOM     70   C  A00 X   4      16.186  61.386  15.9990  0.00  0.00     0.000 C
ATOM     71   O  A00 X   4      16.337  59.083  13.2100  0.00  0.00     0.000 OA
ATOM     72   O  A00 X   4      16.899  61.365  13.3470  0.00  0.00     0.000 OA
ATOM     73   O  A00 X   4      16.242  60.130  15.3030  0.00  0.00     0.000 O
ATOM     74   O  A00 X   4      18.393  59.698  14.3090  0.00  0.00     0.000 OA
ATOM     75   S  A00 X   4      17.058  60.068  13.9660  0.00  0.00     0.000 S
ENDBRANCH 62 70
ENDBRANCH 57 61
ENDBRANCH 41 57
ENDBRANCH 40 44
ENDBRANCH 20 40
ENDBRANCH 19 23
ENDBRANCH 1 19
TORSDOF 14
ENDMDL
MODEL 82
REMARK VINA RESULT:      -1.0     35.879     40.793
ROOT
ATOM      1  C1  A00 X   1      41.898  42.158  41.3000  0.00  0.00     0.000 C
ATOM      2  C2  A00 X   1      41.220  40.770  41.4590  0.00  0.00     0.000 C
ATOM      3  C3  A00 X   1      40.560  40.176  40.1710  0.00  0.00     0.000 C
ATOM      4  C4  A00 X   1      40.339  41.180  39.0090  0.00  0.00     0.000 C
ATOM      5  C5  A00 X   1      40.291  42.627  39.4980  0.00  0.00     0.000 C
ATOM      6  O5  A00 X   1      41.596  42.865  40.0710  0.00  0.00     0.000 O
ATOM      7   O  A00 X   1      39.275  39.661  40.5110  0.00  0.00     0.000 O
ATOM      9  HD  A00 X   1      39.194  40.067  39.7500  0.00  0.00     0.000 HD
ATOM      9   O  A00 X   1      41.342  41.043  38.0040  0.00  0.00     0.000 O
ATOM     11  HD  A00 X   1      41.261  41.449  37.2430  0.00  0.00     0.000 HD
ENDROOT
BRANCH 2 11
ATOM     11   O  A00 X   1      42.216  39.849  41.9430  0.00  0.00     0.000 O
ATOM     12   O  A00 X   1      41.688  37.564  42.4600  0.00  0.00     0.000 OA
ATOM     13   O  A00 X   1      40.659  39.346  43.7570  0.00  0.00     0.000 OA
ATOM     14   O  A00 X   1      42.991  38.916  43.9380  0.00  0.00     0.000 OA
ATOM     15   S  A00 X   1      41.832  38.852  43.0900  0.00  0.00     0.000 S
ENDBRANCH 2 11
BRANCH 5 16
ATOM     16   C  A00 X   1      39.135  42.951  40.4510  0.00  0.00     0.000 C
ATOM     17   O  A00 X   1      39.146  44.013  41.0380  0.00  0.00     0.000 OA
ATOM     18   O  A00 X   1      38.208  42.188  40.6340  0.00  0.00     0.000 OA
ENDBRANCH 5 16
BRANCH 1 19
ATOM     19  O4  A00 X   2      41.713  43.008  42.4580  0.00  0.00     0.000 O
BRANCH 19 23
ATOM     20  C1  A00 X   2      45.642  44.703  42.2180  0.00  0.00     0.000 C
ATOM     21  C2  A00 X   2      45.423  43.546  43.2220  0.00  0.00     0.000 C
ATOM     22  C3  A00 X   2      44.129  42.771  42.8940  0.00  0.00     0.000 C
ATOM     23  C4  A00 X   2      42.923  43.734  42.8170  0.00  0.00     0.000 C
ATOM     24  C5  A00 X   2      43.274  44.852  41.7970  0.00  0.00     0.000 C
ATOM     25  O5  A00 X   2      44.461  45.548  42.2560  0.00  0.00     0.000 O
ATOM     26   O  A00 X   2      44.007  41.669  43.8090  0.00  0.00     0.000 O
ATOM     28  HD  A00 X   2      44.138  42.167  44.5060  0.00  0.00     0.000 HD
BRANCH 21 30
ATOM     28   N  A00 X   2      46.387  44.191  44.1190  0.00  0.00     0.000 N
ATOM     30  HD  A00 X   2      46.289  43.378  44.3990  0.00  0.00     0.000 HD
ATOM     30   O  A00 X   2      47.496  42.521  45.3180  0.00  0.00     0.000 OA
ATOM     31   S  A00 X   2      46.596  43.591  45.5660  0.00  0.00     0.000 S
ATOM     32   O  A00 X   2      47.146  44.683  46.3090  0.00  0.00     0.000 OA
ATOM     33   O  A00 X   2      45.301  43.247  46.0730  0.00  0.00     0.000 OA
ENDBRANCH 21 30
BRANCH 24 34
ATOM     34   C  A00 X   2      42.146  45.817  41.3620  0.00  0.00     0.000 C
ATOM     35   O  A00 X   2      40.246  47.903  43.6640  0.00  0.00     0.000 OA
ATOM     36   O  A00 X   2      41.350  46.232  42.4900  0.00  0.00     0.000 O
ATOM     37   O  A00 X   2      42.604  47.930  43.4960  0.00  0.00     0.000 OA
ATOM     38   S  A00 X   2      41.368  47.775  42.7930  0.00  0.00     0.000 S
ATOM     39   O  A00 X   2      41.234  48.437  41.5300  0.00  0.00     0.000 OA
ENDBRANCH 24 34
BRANCH 20 40
ATOM     40  O4  A00 X   3      45.746  44.083  40.9280  0.00  0.00     0.000 O
BRANCH 40 44
ATOM     41  C1  A00 X   3      44.809  44.139  37.4290  0.00  0.00     0.000 C
ATOM     42  C2  A00 X   3      45.682  43.050  38.0890  0.00  0.00     0.000 C
ATOM     43  C3  A00 X   3      46.847  43.684  38.8920  0.00  0.00     0.000 C
ATOM     44  C4  A00 X   3      46.426  44.780  39.8620  0.00  0.00     0.000 C
ATOM     45  C5  A00 X   3      45.557  45.838  39.1250  0.00  0.00     0.000 C
ATOM     46  O5  A00 X   3      44.477  45.195  38.3720  0.00  0.00     0.000 O
ATOM     47   O  A00 X   3      47.772  42.768  39.4750  0.00  0.00     0.000 O
ATOM     49  HD  A00 X   3      47.747  43.334  40.1290  0.00  0.00     0.000 HD
BRANCH 42 49
ATOM     49   O  A00 X   3      44.814  42.272  38.9420  0.00  0.00     0.000 O
ATOM     50   O  A00 X   3      45.069  40.444  40.4670  0.00  0.00     0.000 OA
ATOM     51   O  A00 X   3      46.254  40.397  38.4210  0.00  0.00     0.000 OA
ATOM     52   O  A00 X   3      43.900  40.187  38.3650  0.00  0.00     0.000 OA
ATOM     53   S  A00 X   3      45.010  40.733  39.0680  0.00  0.00     0.000 S
ENDBRANCH 42 49
BRANCH 45 54
ATOM     54   C  A00 X   3      46.413  46.777  38.2670  0.00  0.00     0.000 C
ATOM     55   O  A00 X   3      45.924  47.760  37.7480  0.00  0.00     0.000 OA
ATOM     56   O  A00 X   3      47.601  46.554  38.0900  0.00  0.00     0.000 OA
ENDBRANCH 45 54
BRANCH 41 57
ATOM     57  O4  A00 X   4      45.392  44.616  36.1950  0.00  0.00     0.000 O
BRANCH 57 61
ATOM     58  C1  A00 X   4      43.683  46.002  32.4810  0.00  0.00     0.000 C
ATOM     59  C2  A00 X   4      43.366  46.784  33.7800  0.00  0.00     0.000 C
ATOM     60  C3  A00 X   4      44.298  46.427  34.9560  0.00  0.00     0.000 C
ATOM     61  C4  A00 X   4      44.440  44.899  35.1310  0.00  0.00     0.000 C
ATOM     62  C5  A00 X   4      44.967  44.353  33.7810  0.00  0.00     0.000 C
ATOM     63  O5  A00 X   4      43.986  44.613  32.7450  0.00  0.00     0.000 O
BRANCH 59 66
ATOM     64   N  A00 X   4      42.005  46.468  34.2490  0.00  0.00     0.000 N
ATOM     66  HD  A00 X   4      41.683  45.690  34.0450  0.00  0.00     0.000 HD
ATOM     66   O  A00 X   4      41.189  48.080  32.6570  0.00  0.00     0.000 OA
ATOM     67   S  A00 X   4      40.829  47.498  33.9120  0.00  0.00     0.000 S
ATOM     68   O  A00 X   4      39.706  46.607  33.8800  0.00  0.00     0.000 OA
ATOM     69   O  A00 X   4      40.883  48.334  35.0780  0.00  0.00     0.000 OA
ENDBRANCH 59 66
BRANCH 62 70
ATOM     70   C  A00 X   4      45.281  42.838  33.7910  0.00  0.00     0.000 C
ATOM     71   O  A00 X   4      42.976  40.053  34.0010  0.00  0.00     0.000 OA
ATOM     72   O  A00 X   4      44.942  40.512  35.2130  0.00  0.00     0.000 OA
ATOM     73   O  A00 X   4      44.058  42.099  33.6360  0.00  0.00     0.000 O
ATOM     74   O  A00 X   4      42.901  41.743  35.7190  0.00  0.00     0.000 OA
ATOM     75   S  A00 X   4      43.686  41.055  34.7460  0.00  0.00     0.000 S
ENDBRANCH 62 70
ENDBRANCH 57 61
ENDBRANCH 41 57
ENDBRANCH 40 44
ENDBRANCH 20 40
ENDBRANCH 19 23
ENDBRANCH 1 19
TORSDOF 14
ENDMDL
MODEL 83
REMARK VINA RESULT:      -1.0     36.868     41.534
ROOT
ATOM      1  C1  A00 X   1      42.228  41.071  42.8750  0.00  0.00     0.000 C
ATOM      2  C2  A00 X   1      41.340  39.805  42.7460  0.00  0.00     0.000 C
ATOM      3  C3  A00 X   1      40.949  39.385  41.2910  0.00  0.00     0.000 C
ATOM      4  C4  A00 X   1      41.176  40.464  40.2000  0.00  0.00     0.000 C
ATOM      5  C5  A00 X   1      41.214  41.876  40.7840  0.00  0.00     0.000 C
ATOM      6  O5  A00 X   1      42.353  41.874  41.6750  0.00  0.00     0.000 O
ATOM      7   O  A00 X   1      39.559  39.068  41.2640  0.00  0.00     0.000 O
ATOM      9  HD  A00 X   1      39.733  39.517  40.5430  0.00  0.00     0.000 HD
ATOM      9   O  A00 X   1      42.371  40.215  39.4610  0.00  0.00     0.000 O
ATOM     11  HD  A00 X   1      42.545  40.663  38.7400  0.00  0.00     0.000 HD
ENDROOT
BRANCH 2 11
ATOM     11   O  A00 X   1      42.037  38.714  43.3780  0.00  0.00     0.000 O
ATOM     12   O  A00 X   1      41.072  36.522  43.5540  0.00  0.00     0.000 OA
ATOM     13   O  A00 X   1      40.016  38.384  44.7090  0.00  0.00     0.000 OA
ATOM     14   O  A00 X   1      42.139  37.577  45.4150  0.00  0.00     0.000 OA
ATOM     15   S  A00 X   1      41.235  37.739  44.3080  0.00  0.00     0.000 S
ENDBRANCH 2 11
BRANCH 5 16
ATOM     16   C  A00 X   1      39.915  42.337  41.4510  0.00  0.00     0.000 C
ATOM     17   O  A00 X   1      39.930  43.356  42.1110  0.00  0.00     0.000 OA
ATOM     18   O  A00 X   1      38.871  41.725  41.3380  0.00  0.00     0.000 OA
ENDBRANCH 5 16
BRANCH 1 19
ATOM     19  O4  A00 X   2      41.881  41.886  44.0220  0.00  0.00     0.000 O
BRANCH 19 23
ATOM     20  C1  A00 X   2      45.944  42.936  44.8890  0.00  0.00     0.000 C
ATOM     21  C2  A00 X   2      45.313  41.784  45.7070  0.00  0.00     0.000 C
ATOM     22  C3  A00 X   2      44.047  41.243  45.0110  0.00  0.00     0.000 C
ATOM     23  C4  A00 X   2      43.052  42.390  44.7240  0.00  0.00     0.000 C
ATOM     24  C5  A00 X   2      43.807  43.483  43.9190  0.00  0.00     0.000 C
ATOM     25  O5  A00 X   2      44.927  43.958  44.7110  0.00  0.00     0.000 O
ATOM     26   O  A00 X   2      43.540  40.134  45.7710  0.00  0.00     0.000 O
ATOM     28  HD  A00 X   2      43.560  40.572  46.5180  0.00  0.00     0.000 HD
BRANCH 21 30
ATOM     28   N  A00 X   2      46.102  42.224  46.8630  0.00  0.00     0.000 N
ATOM     30  HD  A00 X   2      45.820  41.425  47.0410  0.00  0.00     0.000 HD
ATOM     30   O  A00 X   2      46.618  40.343  48.1500  0.00  0.00     0.000 OA
ATOM     31   S  A00 X   2      45.849  41.532  48.2610  0.00  0.00     0.000 S
ATOM     32   O  A00 X   2      46.344  42.485  49.2060  0.00  0.00     0.000 OA
ATOM     33   O  A00 X   2      44.432  41.377  48.4070  0.00  0.00     0.000 OA
ENDBRANCH 21 30
BRANCH 24 34
ATOM     34   C  A00 X   2      42.977  44.637  43.3080  0.00  0.00     0.000 C
ATOM     35   O  A00 X   2      40.877  46.891  45.2470  0.00  0.00     0.000 OA
ATOM     36   O  A00 X   2      41.989  45.121  44.2390  0.00  0.00     0.000 O
ATOM     37   O  A00 X   2      43.180  46.547  45.6600  0.00  0.00     0.000 OA
ATOM     38   S  A00 X   2      42.152  46.625  44.6680  0.00  0.00     0.000 S
ATOM     39   O  A00 X   2      42.440  47.358  43.4710  0.00  0.00     0.000 OA
ENDBRANCH 24 34
BRANCH 20 40
ATOM     40  O4  A00 X   3      46.281  42.368  43.6150  0.00  0.00     0.000 O
BRANCH 40 44
ATOM     41  C1  A00 X   3      46.279  42.737  40.0110  0.00  0.00     0.000 C
ATOM     42  C2  A00 X   3      46.790  41.492  40.7680  0.00  0.00     0.000 C
ATOM     43  C3  A00 X   3      47.793  41.892  41.8810  0.00  0.00     0.000 C
ATOM     44  C4  A00 X   3      47.301  42.995  42.8090  0.00  0.00     0.000 C
ATOM     45  C5  A00 X   3      46.810  44.212  41.9760  0.00  0.00     0.000 C
ATOM     46  O5  A00 X   3      45.875  43.787  40.9320  0.00  0.00     0.000 O
ATOM     47   O  A00 X   3      48.398  40.813  42.5910  0.00  0.00     0.000 O
ATOM     49  HD  A00 X   3      48.290  41.345  43.2660  0.00  0.00     0.000 HD
BRANCH 42 49
ATOM     49   O  A00 X   3      45.632  40.825  41.3160  0.00  0.00     0.000 O
ATOM     50   O  A00 X   3      45.226  38.911  42.6950  0.00  0.00     0.000 OA
ATOM     51   O  A00 X   3      46.870  38.769  41.0020  0.00  0.00     0.000 OA
ATOM     52   O  A00 X   3      44.603  38.943  40.3590  0.00  0.00     0.000 OA
ATOM     53   S  A00 X   3      45.565  39.270  41.3540  0.00  0.00     0.000 S
ENDBRANCH 42 49
BRANCH 45 54
ATOM     54   C  A00 X   3      47.982  45.040  41.4350  0.00  0.00     0.000 C
ATOM     55   O  A00 X   3      47.786  46.112  40.8980  0.00  0.00     0.000 OA
ATOM     56   O  A00 X   3      49.130  44.637  41.5340  0.00  0.00     0.000 OA
ENDBRANCH 45 54
BRANCH 41 57
ATOM     57  O4  A00 X   4      47.218  43.170  39.0010  0.00  0.00     0.000 O
BRANCH 57 61
ATOM     58  C1  A00 X   4      46.723  44.984  35.1150  0.00  0.00     0.000 C
ATOM     59  C2  A00 X   4      46.204  45.745  36.3600  0.00  0.00     0.000 C
ATOM     60  C3  A00 X   4      46.746  45.188  37.6920  0.00  0.00     0.000 C
ATOM     61  C4  A00 X   4      46.617  43.652  37.7650  0.00  0.00     0.000 C
ATOM     62  C5  A00 X   4      47.385  43.091  36.5420  0.00  0.00     0.000 C
ATOM     63  O5  A00 X   4      46.746  43.553  35.3250  0.00  0.00     0.000 O
BRANCH 59 66
ATOM     64   N  A00 X   4      44.737  45.630  36.4550  0.00  0.00     0.000 N
ATOM     66  HD  A00 X   4      44.369  44.925  36.1140  0.00  0.00     0.000 HD
ATOM     66   O  A00 X   4      44.592  47.425  34.8560  0.00  0.00     0.000 OA
ATOM     67   S  A00 X   4      43.846  46.851  35.9320  0.00  0.00     0.000 S
ATOM     68   O  A00 X   4      42.652  46.154  35.5510  0.00  0.00     0.000 OA
ATOM     69   O  A00 X   4      43.723  47.612  37.1420  0.00  0.00     0.000 OA
ENDBRANCH 59 66
BRANCH 62 70
ATOM     70   C  A00 X   4      47.464  41.546  36.5000  0.00  0.00     0.000 C
ATOM     71   O  A00 X   4      44.805  39.162  35.9060  0.00  0.00     0.000 OA
ATOM     72   O  A00 X   4      46.445  39.242  37.5940  0.00  0.00     0.000 OA
ATOM     73   O  A00 X   4      46.227  41.021  35.9900  0.00  0.00     0.000 O
ATOM     74   O  A00 X   4      44.541  40.760  37.6920  0.00  0.00     0.000 OA
ATOM     75   S  A00 X   4      45.440  40.001  36.8830  0.00  0.00     0.000 S
ENDBRANCH 62 70
ENDBRANCH 57 61
ENDBRANCH 41 57
ENDBRANCH 40 44
ENDBRANCH 20 40
ENDBRANCH 19 23
ENDBRANCH 1 19
TORSDOF 14
ENDMDL
MODEL 84
REMARK VINA RESULT:      -1.0     36.854     42.028
ROOT
ATOM      1  C1  A00 X   1      41.262  40.339  43.5240  0.00  0.00     0.000 C
ATOM      2  C2  A00 X   1      40.558  39.217  42.7150  0.00  0.00     0.000 C
ATOM      3  C3  A00 X   1      41.025  39.042  41.2320  0.00  0.00     0.000 C
ATOM      4  C4  A00 X   1      41.847  40.219  40.6470  0.00  0.00     0.000 C
ATOM      5  C5  A00 X   1      41.596  41.527  41.3970  0.00  0.00     0.000 C
ATOM      6  O5  A00 X   1      42.052  41.271  42.7440  0.00  0.00     0.000 O
ATOM      7   O  A00 X   1      39.873  38.901  40.4040  0.00  0.00     0.000 O
ATOM      9  HD  A00 X   1      40.428  39.416  39.9840  0.00  0.00     0.000 HD
ATOM      9   O  A00 X   1      43.244  39.927  40.6400  0.00  0.00     0.000 O
ATOM     11  HD  A00 X   1      43.799  40.442  40.2200  0.00  0.00     0.000 HD
ENDROOT
BRANCH 2 11
ATOM     11   O  A00 X   1      40.758  37.976  43.4200  0.00  0.00     0.000 O
ATOM     12   O  A00 X   1      39.795  35.913  42.6580  0.00  0.00     0.000 OA
ATOM     13   O  A00 X   1      38.330  37.721  43.3660  0.00  0.00     0.000 OA
ATOM     14   O  A00 X   1      39.686  36.578  44.9510  0.00  0.00     0.000 OA
ATOM     15   S  A00 X   1      39.549  36.992  43.5810  0.00  0.00     0.000 S
ENDBRANCH 2 11
BRANCH 5 16
ATOM     16   C  A00 X   1      40.158  42.050  41.3250  0.00  0.00     0.000 C
ATOM     17   O  A00 X   1      39.835  42.964  42.0560  0.00  0.00     0.000 OA
ATOM     18   O  A00 X   1      39.334  41.588  40.5610  0.00  0.00     0.000 OA
ENDBRANCH 5 16
BRANCH 1 19
ATOM     19  O4  A00 X   2      40.363  41.032  44.4230  0.00  0.00     0.000 O
BRANCH 19 23
ATOM     20  C1  A00 X   2      43.298  41.462  47.5160  0.00  0.00     0.000 C
ATOM     21  C2  A00 X   2      42.288  40.296  47.6460  0.00  0.00     0.000 C
ATOM     22  C3  A00 X   2      41.603  40.008  46.2940  0.00  0.00     0.000 C
ATOM     23  C4  A00 X   2      40.965  41.295  45.7230  0.00  0.00     0.000 C
ATOM     24  C5  A00 X   2      42.069  42.385  45.6600  0.00  0.00     0.000 C
ATOM     25  O5  A00 X   2      42.578  42.613  47.0000  0.00  0.00     0.000 O
ATOM     26   O  A00 X   2      40.729  38.878  46.4510  0.00  0.00     0.000 O
ATOM     28  HD  A00 X   2      40.346  39.208  47.1540  0.00  0.00     0.000 HD
BRANCH 21 30
ATOM     28   N  A00 X   2      42.319  40.483  49.1000  0.00  0.00     0.000 N
ATOM     30  HD  A00 X   2      41.963  39.707  48.9550  0.00  0.00     0.000 HD
ATOM     30   O  A00 X   2      41.985  38.401  50.1080  0.00  0.00     0.000 OA
ATOM     31   S  A00 X   2      41.316  39.649  49.9930  0.00  0.00     0.000 S
ATOM     32   O  A00 X   2      41.234  40.403  51.2050  0.00  0.00     0.000 OA
ATOM     33   O  A00 X   2      40.051  39.648  49.3210  0.00  0.00     0.000 OA
ENDBRANCH 21 30
BRANCH 24 34
ATOM     34   C  A00 X   2      41.749  43.700  44.9110  0.00  0.00     0.000 C
ATOM     35   O  A00 X   2      38.992  45.917  45.7710  0.00  0.00     0.000 OA
ATOM     36   O  A00 X   2      40.425  44.174  45.2300  0.00  0.00     0.000 O
ATOM     37   O  A00 X   2      40.672  45.247  47.2930  0.00  0.00     0.000 OA
ATOM     38   S  A00 X   2      40.367  45.578  45.9350  0.00  0.00     0.000 S
ATOM     39   O  A00 X   2      41.288  46.421  45.2350  0.00  0.00     0.000 OA
ENDBRANCH 24 34
BRANCH 20 40
ATOM     40  O4  A00 X   3      44.267  41.029  46.5490  0.00  0.00     0.000 O
BRANCH 40 44
ATOM     41  C1  A00 X   3      46.267  41.865  43.6460  0.00  0.00     0.000 C
ATOM     42  C2  A00 X   3      46.239  40.479  44.3260  0.00  0.00     0.000 C
ATOM     43  C3  A00 X   3      46.471  40.605  45.8540  0.00  0.00     0.000 C
ATOM     44  C4  A00 X   3      45.580  41.629  46.5470  0.00  0.00     0.000 C
ATOM     45  C5  A00 X   3      45.665  42.995  45.8100  0.00  0.00     0.000 C
ATOM     46  O5  A00 X   3      45.451  42.826  44.3710  0.00  0.00     0.000 O
ATOM     47   O  A00 X   3      46.552  39.378  46.5760  0.00  0.00     0.000 O
ATOM     49  HD  A00 X   3      46.104  39.826  47.1660  0.00  0.00     0.000 HD
BRANCH 42 49
ATOM     49   O  A00 X   3      44.953  39.890  44.0350  0.00  0.00     0.000 O
ATOM     50   O  A00 X   3      43.798  37.875  44.6140  0.00  0.00     0.000 OA
ATOM     51   O  A00 X   3      46.099  37.759  44.0840  0.00  0.00     0.000 OA
ATOM     52   O  A00 X   3      44.571  38.288  42.3610  0.00  0.00     0.000 OA
ATOM     53   S  A00 X   3      44.832  38.363  43.7570  0.00  0.00     0.000 S
ENDBRANCH 42 49
BRANCH 45 54
ATOM     54   C  A00 X   3      46.964  43.739  46.1430  0.00  0.00     0.000 C
ATOM     55   O  A00 X   3      47.128  44.887  45.7840  0.00  0.00     0.000 OA
ATOM     56   O  A00 X   3      47.855  43.191  46.7740  0.00  0.00     0.000 OA
ENDBRANCH 45 54
BRANCH 41 57
ATOM     57  O4  A00 X   4      47.619  42.311  43.3980  0.00  0.00     0.000 O
BRANCH 57 61
ATOM     58  C1  A00 X   4      49.406  44.665  40.2510  0.00  0.00     0.000 C
ATOM     59  C2  A00 X   4      48.307  45.313  41.1300  0.00  0.00     0.000 C
ATOM     60  C3  A00 X   4      48.007  44.525  42.4210  0.00  0.00     0.000 C
ATOM     61  C4  A00 X   4      47.815  43.019  42.1420  0.00  0.00     0.000 C
ATOM     62  C5  A00 X   4      49.115  42.535  41.4510  0.00  0.00     0.000 C
ATOM     63  O5  A00 X   4      49.268  43.227  40.1850  0.00  0.00     0.000 O
BRANCH 59 66
ATOM     64   N  A00 X   4      47.030  45.364  40.3960  0.00  0.00     0.000 N
ATOM     66  HD  A00 X   4      46.891  44.760  39.7920  0.00  0.00     0.000 HD
ATOM     66   O  A00 X   4      47.843  47.357  39.3170  0.00  0.00     0.000 OA
ATOM     67   S  A00 X   4      46.611  46.742  39.6990  0.00  0.00     0.000 S
ATOM     68   O  A00 X   4      45.807  46.250  38.6180  0.00  0.00     0.000 OA
ATOM     69   O  A00 X   4      45.861  47.347  40.7630  0.00  0.00     0.000 OA
ENDBRANCH 59 66
BRANCH 62 70
ATOM     70   C  A00 X   4      49.160  41.011  41.1870  0.00  0.00     0.000 C
ATOM     71   O  A00 X   4      47.205  39.063  38.8430  0.00  0.00     0.000 OA
ATOM     72   O  A00 X   4      47.641  38.723  41.1320  0.00  0.00     0.000 OA
ATOM     73   O  A00 X   4      48.396  40.711  40.0070  0.00  0.00     0.000 O
ATOM     74   O  A00 X   4      46.045  40.434  40.4510  0.00  0.00     0.000 OA
ATOM     75   S  A00 X   4      47.218  39.684  40.1370  0.00  0.00     0.000 S
ENDBRANCH 62 70
ENDBRANCH 57 61
ENDBRANCH 41 57
ENDBRANCH 40 44
ENDBRANCH 20 40
ENDBRANCH 19 23
ENDBRANCH 1 19
TORSDOF 14
ENDMDL
MODEL 85
REMARK VINA RESULT:      -1.0     80.175     84.070
ROOT
ATOM      1  C1  A00 X   1      83.584  50.022  67.4500  0.00  0.00     0.000 C
ATOM      2  C2  A00 X   1      82.807  51.302  67.0440  0.00  0.00     0.000 C
ATOM      3  C3  A00 X   1      83.567  52.301  66.1110  0.00  0.00     0.000 C
ATOM      4  C4  A00 X   1      85.099  52.084  66.0060  0.00  0.00     0.000 C
ATOM      5  C5  A00 X   1      85.657  51.322  67.2070  0.00  0.00     0.000 C
ATOM      6  O5  A00 X   1      85.004  50.033  67.1610  0.00  0.00     0.000 O
ATOM      7   O  A00 X   1      83.379  53.624  66.6070  0.00  0.00     0.000 O
ATOM      9  HD  A00 X   1      84.207  53.559  66.3630  0.00  0.00     0.000 HD
ATOM      9   O  A00 X   1      85.448  51.406  64.8000  0.00  0.00     0.000 O
ATOM     11  HD  A00 X   1      86.276  51.340  64.5550  0.00  0.00     0.000 HD
ENDROOT
BRANCH 2 11
ATOM     11   O  A00 X   1      81.588  50.889  66.3960  0.00  0.00     0.000 O
ATOM     12   O  A00 X   1      79.945  52.473  65.6510  0.00  0.00     0.000 OA
ATOM     13   O  A00 X   1      80.418  52.278  68.0290  0.00  0.00     0.000 OA
ATOM     14   O  A00 X   1      79.333  50.509  66.8660  0.00  0.00     0.000 OA
ATOM     15   S  A00 X   1      80.248  51.613  66.7660  0.00  0.00     0.000 S
ENDBRANCH 2 11
BRANCH 5 16
ATOM     16   C  A00 X   1      85.508  52.036  68.5540  0.00  0.00     0.000 C
ATOM     17   O  A00 X   1      85.741  51.415  69.5710  0.00  0.00     0.000 OA
ATOM     18   O  A00 X   1      85.173  53.201  68.6410  0.00  0.00     0.000 OA
ENDBRANCH 5 16
BRANCH 1 19
ATOM     19  O4  A00 X   2      83.326  49.618  68.8170  0.00  0.00     0.000 O
BRANCH 19 23
ATOM     20  C1  A00 X   2      83.403  45.429  67.9180  0.00  0.00     0.000 C
ATOM     21  C2  A00 X   2      82.018  46.115  68.0120  0.00  0.00     0.000 C
ATOM     22  C3  A00 X   2      82.156  47.648  67.9050  0.00  0.00     0.000 C
ATOM     23  C4  A00 X   2      83.160  48.178  68.9530  0.00  0.00     0.000 C
ATOM     24  C5  A00 X   2      84.493  47.403  68.7670  0.00  0.00     0.000 C
ATOM     25  O5  A00 X   2      84.242  45.987  68.9640  0.00  0.00     0.000 O
ATOM     26   O  A00 X   2      80.842  48.231  67.9280  0.00  0.00     0.000 O
ATOM     28  HD  A00 X   2      80.604  47.791  68.6350  0.00  0.00     0.000 HD
BRANCH 21 30
ATOM     28   N  A00 X   2      81.483  44.869  68.5710  0.00  0.00     0.000 N
ATOM     30  HD  A00 X   2      80.803  45.347  68.3260  0.00  0.00     0.000 HD
ATOM     30   O  A00 X   2      79.250  44.676  67.9100  0.00  0.00     0.000 OA
ATOM     31   S  A00 X   2      79.995  44.856  69.1050  0.00  0.00     0.000 S
ATOM     32   O  A00 X   2      79.969  43.745  70.0060  0.00  0.00     0.000 OA
ATOM     33   O  A00 X   2      79.791  46.081  69.8200  0.00  0.00     0.000 OA
ENDBRANCH 21 30
BRANCH 24 34
ATOM     34   C  A00 X   2      85.736  47.902  69.5410  0.00  0.00     0.000 C
ATOM     35   O  A00 X   2      87.504  45.939  72.0470  0.00  0.00     0.000 OA
ATOM     36   O  A00 X   2      86.001  47.077  70.6930  0.00  0.00     0.000 O
ATOM     37   O  A00 X   2      87.116  45.211  69.8300  0.00  0.00     0.000 OA
ATOM     38   S  A00 X   2      87.384  46.330  70.6810  0.00  0.00     0.000 S
ATOM     39   O  A00 X   2      88.355  47.284  70.2350  0.00  0.00     0.000 OA
ENDBRANCH 24 34
BRANCH 20 40
ATOM     40  O4  A00 X   3      83.930  45.794  66.6340  0.00  0.00     0.000 O
BRANCH 40 44
ATOM     41  C1  A00 X   3      86.767  46.885  64.6640  0.00  0.00     0.000 C
ATOM     42  C2  A00 X   3      85.348  46.645  64.1050  0.00  0.00     0.000 C
ATOM     43  C3  A00 X   3      84.814  45.251  64.5260  0.00  0.00     0.000 C
ATOM     44  C4  A00 X   3      84.928  44.953  66.0160  0.00  0.00     0.000 C
ATOM     45  C5  A00 X   3      86.382  45.214  66.5010  0.00  0.00     0.000 C
ATOM     46  O5  A00 X   3      86.848  46.534  66.0730  0.00  0.00     0.000 O
ATOM     47   O  A00 X   3      83.543  44.884  63.9940  0.00  0.00     0.000 O
ATOM     49  HD  A00 X   3      83.433  44.551  64.7860  0.00  0.00     0.000 HD
BRANCH 42 49
ATOM     49   O  A00 X   3      84.509  47.706  64.6100  0.00  0.00     0.000 O
ATOM     50   O  A00 X   3      82.196  48.306  64.4620  0.00  0.00     0.000 OA
ATOM     51   O  A00 X   3      83.298  47.522  62.5230  0.00  0.00     0.000 OA
ATOM     52   O  A00 X   3      83.918  49.628  63.3970  0.00  0.00     0.000 OA
ATOM     53   S  A00 X   3      83.409  48.337  63.7070  0.00  0.00     0.000 S
ENDBRANCH 42 49
BRANCH 45 54
ATOM     54   C  A00 X   3      87.328  44.078  66.0930  0.00  0.00     0.000 C
ATOM     55   O  A00 X   3      88.474  44.052  66.4950  0.00  0.00     0.000 OA
ATOM     56   O  A00 X   3      86.948  43.182  65.3550  0.00  0.00     0.000 OA
ENDBRANCH 45 54
BRANCH 41 57
ATOM     57  O4  A00 X   4      87.777  46.257  63.8440  0.00  0.00     0.000 O
BRANCH 57 61
ATOM     58  C1  A00 X   4      91.830  47.342  62.8250  0.00  0.00     0.000 C
ATOM     59  C2  A00 X   4      91.485  47.078  64.3120  0.00  0.00     0.000 C
ATOM     60  C3  A00 X   4      90.134  46.361  64.5110  0.00  0.00     0.000 C
ATOM     61  C4  A00 X   4      89.008  47.019  63.6860  0.00  0.00     0.000 C
ATOM     62  C5  A00 X   4      89.473  46.987  62.2090  0.00  0.00     0.000 C
ATOM     63  O5  A00 X   4      90.678  47.783  62.0710  0.00  0.00     0.000 O
BRANCH 59 66
ATOM     64   N  A00 X   4      91.361  48.333  65.0760  0.00  0.00     0.000 N
ATOM     66  HD  A00 X   4      91.105  49.039  64.6450  0.00  0.00     0.000 HD
ATOM     66   O  A00 X   4      93.764  48.358  65.2330  0.00  0.00     0.000 OA
ATOM     67   S  A00 X   4      92.613  48.817  65.9450  0.00  0.00     0.000 S
ATOM     68   O  A00 X   4      92.404  50.235  65.9320  0.00  0.00     0.000 OA
ATOM     69   O  A00 X   4      92.308  48.190  67.2000  0.00  0.00     0.000 OA
ENDBRANCH 59 66
BRANCH 62 70
ATOM     70   C  A00 X   4      88.421  47.509  61.2030  0.00  0.00     0.000 C
ATOM     71   O  A00 X   4      87.253  50.900  60.7080  0.00  0.00     0.000 OA
ATOM     72   O  A00 X   4      86.057  48.890  60.9820  0.00  0.00     0.000 OA
ATOM     73   O  A00 X   4      88.453  48.946  61.1850  0.00  0.00     0.000 O
ATOM     74   O  A00 X   4      87.104  49.941  62.9160  0.00  0.00     0.000 OA
ATOM     75   S  A00 X   4      87.124  49.713  61.5060  0.00  0.00     0.000 S
ENDBRANCH 62 70
ENDBRANCH 57 61
ENDBRANCH 41 57
ENDBRANCH 40 44
ENDBRANCH 20 40
ENDBRANCH 19 23
ENDBRANCH 1 19
TORSDOF 14
ENDMDL
MODEL 86
REMARK VINA RESULT:      -1.0     86.874     91.391
ROOT
ATOM      1  C1  A00 X   1      65.938  76.317  70.5630  0.00  0.00     0.000 C
ATOM      2  C2  A00 X   1      64.923  77.446  70.2380  0.00  0.00     0.000 C
ATOM      3  C3  A00 X   1      63.492  77.279  70.8460  0.00  0.00     0.000 C
ATOM      4  C4  A00 X   1      63.152  75.862  71.3760  0.00  0.00     0.000 C
ATOM      5  C5  A00 X   1      64.025  74.782  70.7380  0.00  0.00     0.000 C
ATOM      6  O5  A00 X   1      65.373  75.114  71.1400  0.00  0.00     0.000 O
ATOM      7   O  A00 X   1      62.529  77.576  69.8380  0.00  0.00     0.000 O
ATOM      9  HD  A00 X   1      62.240  76.883  70.2710  0.00  0.00     0.000 HD
ATOM      9   O  A00 X   1      63.265  75.795  72.7980  0.00  0.00     0.000 O
ATOM     11  HD  A00 X   1      62.976  75.103  73.2300  0.00  0.00     0.000 HD
ENDROOT
BRANCH 2 11
ATOM     11   O  A00 X   1      65.487  78.688  70.7000  0.00  0.00     0.000 O
ATOM     12   O  A00 X   1      64.230  80.734  70.6930  0.00  0.00     0.000 OA
ATOM     13   O  A00 X   1      64.745  79.646  68.5800  0.00  0.00     0.000 OA
ATOM     14   O  A00 X   1      66.474  80.638  69.8770  0.00  0.00     0.000 OA
ATOM     15   S  A00 X   1      65.185  80.002  69.9000  0.00  0.00     0.000 S
ENDBRANCH 2 11
BRANCH 5 16
ATOM     16   C  A00 X   1      63.858  74.626  69.2230  0.00  0.00     0.000 C
ATOM     17   O  A00 X   1      64.666  73.954  68.6150  0.00  0.00     0.000 OA
ATOM     18   O  A00 X   1      62.944  75.143  68.6110  0.00  0.00     0.000 OA
ENDBRANCH 5 16
BRANCH 1 19
ATOM     19  O4  A00 X   2      66.810  76.008  69.4480  0.00  0.00     0.000 O
BRANCH 19 23
ATOM     20  C1  A00 X   2      70.266  75.428  71.9140  0.00  0.00     0.000 C
ATOM     21  C2  A00 X   2      70.102  76.805  71.2270  0.00  0.00     0.000 C
ATOM     22  C3  A00 X   2      68.649  77.012  70.7510  0.00  0.00     0.000 C
ATOM     23  C4  A00 X   2      68.198  75.837  69.8550  0.00  0.00     0.000 C
ATOM     24  C5  A00 X   2      68.429  74.520  70.6460  0.00  0.00     0.000 C
ATOM     25  O5  A00 X   2      69.840  74.411  70.9680  0.00  0.00     0.000 O
ATOM     26   O  A00 X   2      68.531  78.328  70.1840  0.00  0.00     0.000 O
ATOM     28  HD  A00 X   2      69.223  78.224  69.6730  0.00  0.00     0.000 HD
BRANCH 21 30
ATOM     28   N  A00 X   2      71.560  76.869  71.0910  0.00  0.00     0.000 N
ATOM     30  HD  A00 X   2      71.261  77.671  70.9570  0.00  0.00     0.000 HD
ATOM     30   O  A00 X   2      72.205  79.111  71.2170  0.00  0.00     0.000 OA
ATOM     31   S  A00 X   2      72.194  78.058  70.2650  0.00  0.00     0.000 S
ATOM     32   O  A00 X   2      73.484  77.564  69.8950  0.00  0.00     0.000 OA
ATOM     33   O  A00 X   2      71.381  78.244  69.1000  0.00  0.00     0.000 OA
ENDBRANCH 21 30
BRANCH 24 34
ATOM     34   C  A00 X   2      67.847  73.211  70.0630  0.00  0.00     0.000 C
ATOM     35   O  A00 X   2      69.851  70.304  69.1740  0.00  0.00     0.000 OA
ATOM     36   O  A00 X   2      68.882  72.390  69.4860  0.00  0.00     0.000 O
ATOM     37   O  A00 X   2      69.852  71.305  71.3170  0.00  0.00     0.000 OA
ATOM     38   S  A00 X   2      69.075  70.982  70.1590  0.00  0.00     0.000 S
ATOM     39   O  A00 X   2      67.762  70.450  70.3690  0.00  0.00     0.000 OA
ENDBRANCH 24 34
BRANCH 20 40
ATOM     40  O4  A00 X   3      69.372  75.445  73.0360  0.00  0.00     0.000 O
BRANCH 40 44
ATOM     41  C1  A00 X   3      66.909  73.713  75.0500  0.00  0.00     0.000 C
ATOM     42  C2  A00 X   3      67.383  75.163  75.2930  0.00  0.00     0.000 C
ATOM     43  C3  A00 X   3      68.930  75.242  75.3340  0.00  0.00     0.000 C
ATOM     44  C4  A00 X   3      69.631  74.574  74.1580  0.00  0.00     0.000 C
ATOM     45  C5  A00 X   3      69.106  73.121  73.9820  0.00  0.00     0.000 C
ATOM     46  O5  A00 X   3      67.642  73.092  73.9580  0.00  0.00     0.000 O
ATOM     47   O  A00 X   3      69.481  76.522  75.6390  0.00  0.00     0.000 O
ATOM     49  HD  A00 X   3      70.061  76.290  75.0400  0.00  0.00     0.000 HD
BRANCH 42 49
ATOM     49   O  A00 X   3      66.841  75.969  74.2230  0.00  0.00     0.000 O
ATOM     50   O  A00 X   3      66.960  78.264  73.5530  0.00  0.00     0.000 OA
ATOM     51   O  A00 X   3      66.723  77.757  75.8500  0.00  0.00     0.000 OA
ATOM     52   O  A00 X   3      64.913  77.296  74.4010  0.00  0.00     0.000 OA
ATOM     53   S  A00 X   3      66.326  77.410  74.5080  0.00  0.00     0.000 S
ENDBRANCH 42 49
BRANCH 45 54
ATOM     54   C  A00 X   3      69.711  72.169  75.0210  0.00  0.00     0.000 C
ATOM     55   O  A00 X   3      69.439  70.986  75.0090  0.00  0.00     0.000 OA
ATOM     56   O  A00 X   3      70.475  72.584  75.8790  0.00  0.00     0.000 OA
ENDBRANCH 45 54
BRANCH 41 57
ATOM     57  O4  A00 X   4      66.910  72.940  76.2720  0.00  0.00     0.000 O
BRANCH 57 61
ATOM     58  C1  A00 X   4      64.380  69.767  77.7450  0.00  0.00     0.000 C
ATOM     59  C2  A00 X   4      65.191  69.527  76.4470  0.00  0.00     0.000 C
ATOM     60  C3  A00 X   4      66.310  70.564  76.2210  0.00  0.00     0.000 C
ATOM     61  C4  A00 X   4      65.800  72.008  76.4140  0.00  0.00     0.000 C
ATOM     62  C5  A00 X   4      65.222  72.078  77.8490  0.00  0.00     0.000 C
ATOM     63  O5  A00 X   4      64.096  71.170  77.9550  0.00  0.00     0.000 O
BRANCH 59 66
ATOM     64   N  A00 X   4      64.461  69.562  75.1670  0.00  0.00     0.000 N
ATOM     66  HD  A00 X   4      63.787  70.103  75.1050  0.00  0.00     0.000 HD
ATOM     66   O  A00 X   4      63.637  67.361  75.6900  0.00  0.00     0.000 OA
ATOM     67   S  A00 X   4      63.934  68.181  74.5570  0.00  0.00     0.000 S
ATOM     68   O  A00 X   4      62.797  68.643  73.8150  0.00  0.00     0.000 OA
ATOM     69   O  A00 X   4      65.059  67.817  73.7440  0.00  0.00     0.000 OA
ENDBRANCH 59 66
BRANCH 62 70
ATOM     70   C  A00 X   4      64.756  73.491  78.2750  0.00  0.00     0.000 C
ATOM     71   O  A00 X   4      61.907  75.384  77.0910  0.00  0.00     0.000 OA
ATOM     72   O  A00 X   4      64.164  76.006  77.3440  0.00  0.00     0.000 OA
ATOM     73   O  A00 X   4      63.449  73.742  77.7340  0.00  0.00     0.000 O
ATOM     74   O  A00 X   4      63.509  74.583  75.4770  0.00  0.00     0.000 OA
ATOM     75   S  A00 X   4      63.264  75.002  76.8190  0.00  0.00     0.000 S
ENDBRANCH 62 70
ENDBRANCH 57 61
ENDBRANCH 41 57
ENDBRANCH 40 44
ENDBRANCH 20 40
ENDBRANCH 19 23
ENDBRANCH 1 19
TORSDOF 14
ENDMDL
MODEL 87
REMARK VINA RESULT:      -1.0     77.242     81.518
ROOT
ATOM      1  C1  A00 X   1      39.386  63.222  79.3590  0.00  0.00     0.000 C
ATOM      2  C2  A00 X   1      38.051  62.727  78.7400  0.00  0.00     0.000 C
ATOM      3  C3  A00 X   1      37.983  61.207  78.3790  0.00  0.00     0.000 C
ATOM      4  C4  A00 X   1      39.345  60.468  78.3350  0.00  0.00     0.000 C
ATOM      5  C5  A00 X   1      40.515  61.427  78.1130  0.00  0.00     0.000 C
ATOM      6  O5  A00 X   1      40.499  62.298  79.2660  0.00  0.00     0.000 O
ATOM      7   O  A00 X   1      37.406  61.070  77.0820  0.00  0.00     0.000 O
ATOM      9  HD  A00 X   1      38.063  60.508  77.1290  0.00  0.00     0.000 HD
ATOM      9   O  A00 X   1      39.564  59.707  79.5220  0.00  0.00     0.000 O
ATOM     11  HD  A00 X   1      40.222  59.145  79.5690  0.00  0.00     0.000 HD
ENDROOT
BRANCH 2 11
ATOM     11   O  A00 X   1      36.995  63.036  79.6700  0.00  0.00     0.000 O
ATOM     12   O  A00 X   1      34.744  62.269  79.3370  0.00  0.00     0.000 OA
ATOM     13   O  A00 X   1      35.721  63.821  77.7400  0.00  0.00     0.000 OA
ATOM     14   O  A00 X   1      35.222  64.528  79.9550  0.00  0.00     0.000 OA
ATOM     15   S  A00 X   1      35.581  63.420  79.1120  0.00  0.00     0.000 S
ENDBRANCH 2 11
BRANCH 5 16
ATOM     16   C  A00 X   1      40.493  62.177  76.7770  0.00  0.00     0.000 C
ATOM     17   O  A00 X   1      41.261  63.103  76.6180  0.00  0.00     0.000 OA
ATOM     18   O  A00 X   1      39.741  61.875  75.8720  0.00  0.00     0.000 OA
ENDBRANCH 5 16
BRANCH 1 19
ATOM     19  O4  A00 X   2      39.758  64.546  78.9040  0.00  0.00     0.000 O
BRANCH 19 23
ATOM     20  C1  A00 X   2      41.224  65.783  82.7360  0.00  0.00     0.000 C
ATOM     21  C2  A00 X   2      39.786  66.204  82.3520  0.00  0.00     0.000 C
ATOM     22  C3  A00 X   2      39.256  65.348  81.1830  0.00  0.00     0.000 C
ATOM     23  C4  A00 X   2      40.235  65.395  79.9880  0.00  0.00     0.000 C
ATOM     24  C5  A00 X   2      41.637  64.971  80.5050  0.00  0.00     0.000 C
ATOM     25  O5  A00 X   2      42.049  65.895  81.5460  0.00  0.00     0.000 O
ATOM     26   O  A00 X   2      37.897  65.730  80.9100  0.00  0.00     0.000 O
ATOM     28  HD  A00 X   2      38.088  66.574  80.8740  0.00  0.00     0.000 HD
BRANCH 21 30
ATOM     28   N  A00 X   2      39.997  67.457  83.0840  0.00  0.00     0.000 N
ATOM     30  HD  A00 X   2      39.143  67.381  82.9580  0.00  0.00     0.000 HD
ATOM     30   O  A00 X   2      37.945  68.134  83.9740  0.00  0.00     0.000 OA
ATOM     31   S  A00 X   2      38.885  68.578  83.0060  0.00  0.00     0.000 S
ATOM     32   O  A00 X   2      39.586  69.776  83.3500  0.00  0.00     0.000 OA
ATOM     33   O  A00 X   2      38.437  68.636  81.6460  0.00  0.00     0.000 OA
ENDBRANCH 21 30
BRANCH 24 34
ATOM     34   C  A00 X   2      42.748  64.713  79.4610  0.00  0.00     0.000 C
ATOM     35   O  A00 X   2      43.890  67.184  77.0430  0.00  0.00     0.000 OA
ATOM     36   O  A00 X   2      42.740  65.720  78.4290  0.00  0.00     0.000 O
ATOM     37   O  A00 X   2      43.865  67.537  79.3810  0.00  0.00     0.000 OA
ATOM     38   S  A00 X   2      44.049  66.586  78.3270  0.00  0.00     0.000 S
ATOM     39   O  A00 X   2      45.147  65.675  78.4410  0.00  0.00     0.000 OA
ENDBRANCH 24 34
BRANCH 20 40
ATOM     40  O4  A00 X   3      41.133  64.406  83.1290  0.00  0.00     0.000 O
BRANCH 40 44
ATOM     41  C1  A00 X   3      42.525  61.065  82.9560  0.00  0.00     0.000 C
ATOM     42  C2  A00 X   3      41.236  61.443  83.7170  0.00  0.00     0.000 C
ATOM     43  C3  A00 X   3      41.480  62.653  84.6550  0.00  0.00     0.000 C
ATOM     44  C4  A00 X   3      42.151  63.847  83.9880  0.00  0.00     0.000 C
ATOM     45  C5  A00 X   3      43.439  63.389  83.2490  0.00  0.00     0.000 C
ATOM     46  O5  A00 X   3      43.165  62.239  82.3840  0.00  0.00     0.000 O
ATOM     47   O  A00 X   3      40.378  63.037  85.4750  0.00  0.00     0.000 O
ATOM     49  HD  A00 X   3      40.660  63.834  85.2860  0.00  0.00     0.000 HD
BRANCH 42 49
ATOM     49   O  A00 X   3      40.230  61.739  82.7240  0.00  0.00     0.000 O
ATOM     50   O  A00 X   3      37.948  62.465  82.7320  0.00  0.00     0.000 OA
ATOM     51   O  A00 X   3      38.635  60.842  84.3090  0.00  0.00     0.000 OA
ATOM     52   O  A00 X   3      38.566  60.236  82.0250  0.00  0.00     0.000 OA
ATOM     53   S  A00 X   3      38.752  61.303  82.9470  0.00  0.00     0.000 S
ENDBRANCH 42 49
BRANCH 45 54
ATOM     54   C  A00 X   3      44.597  63.146  84.2250  0.00  0.00     0.000 C
ATOM     55   O  A00 X   3      44.392  63.056  85.4180  0.00  0.00     0.000 OA
ATOM     56   O  A00 X   3      45.745  63.042  83.8200  0.00  0.00     0.000 OA
ENDBRANCH 45 54
BRANCH 41 57
ATOM     57  O4  A00 X   4      43.404  60.253  83.7660  0.00  0.00     0.000 O
BRANCH 57 61
ATOM     58  C1  A00 X   4      46.248  57.149  82.8060  0.00  0.00     0.000 C
ATOM     59  C2  A00 X   4      46.474  58.567  82.2250  0.00  0.00     0.000 C
ATOM     60  C3  A00 X   4      45.623  59.656  82.9100  0.00  0.00     0.000 C
ATOM     61  C4  A00 X   4      44.144  59.231  83.0400  0.00  0.00     0.000 C
ATOM     62  C5  A00 X   4      44.141  57.901  83.8330  0.00  0.00     0.000 C
ATOM     63  O5  A00 X   4      44.851  56.890  83.0730  0.00  0.00     0.000 O
BRANCH 59 66
ATOM     64   N  A00 X   4      46.056  58.528  80.8110  0.00  0.00     0.000 N
ATOM     66  HD  A00 X   4      45.465  57.937  80.5850  0.00  0.00     0.000 HD
ATOM     66   O  A00 X   4      48.244  57.665  80.2930  0.00  0.00     0.000 OA
ATOM     67   S  A00 X   4      47.191  58.421  79.6890  0.00  0.00     0.000 S
ATOM     68   O  A00 X   4      46.466  57.747  78.6520  0.00  0.00     0.000 OA
ATOM     69   O  A00 X   4      47.427  59.813  79.4340  0.00  0.00     0.000 OA
ENDBRANCH 59 66
BRANCH 62 70
ATOM     70   C  A00 X   4      42.727  57.365  84.1630  0.00  0.00     0.000 C
ATOM     71   O  A00 X   4      40.224  56.047  81.9040  0.00  0.00     0.000 OA
ATOM     72   O  A00 X   4      40.055  57.666  83.6050  0.00  0.00     0.000 OA
ATOM     73   O  A00 X   4      42.182  56.718  83.0030  0.00  0.00     0.000 O
ATOM     74   O  A00 X   4      41.107  58.251  81.4860  0.00  0.00     0.000 OA
ATOM     75   S  A00 X   4      40.810  57.239  82.4480  0.00  0.00     0.000 S
ENDBRANCH 62 70
ENDBRANCH 57 61
ENDBRANCH 41 57
ENDBRANCH 40 44
ENDBRANCH 20 40
ENDBRANCH 19 23
ENDBRANCH 1 19
TORSDOF 14
ENDMDL
MODEL 88
REMARK VINA RESULT:      -1.0     69.733     74.383
ROOT
ATOM      1  C1  A00 X   1      58.771  50.803  72.6140  0.00  0.00     0.000 C
ATOM      2  C2  A00 X   1      57.693  49.693  72.7270  0.00  0.00     0.000 C
ATOM      3  C3  A00 X   1      57.336  48.944  71.4000  0.00  0.00     0.000 C
ATOM      4  C4  A00 X   1      57.815  49.632  70.0960  0.00  0.00     0.000 C
ATOM      5  C5  A00 X   1      58.052  51.130  70.2860  0.00  0.00     0.000 C
ATOM      6  O5  A00 X   1      59.110  51.212  71.2660  0.00  0.00     0.000 O
ATOM      7   O  A00 X   1      55.918  48.835  71.3040  0.00  0.00     0.000 O
ATOM      9  HD  A00 X   1      56.213  49.035  70.5150  0.00  0.00     0.000 HD
ATOM      9   O  A00 X   1      58.998  49.017  69.5860  0.00  0.00     0.000 O
ATOM     11  HD  A00 X   1      59.293  49.217  68.7960  0.00  0.00     0.000 HD
ENDROOT
BRANCH 2 11
ATOM     11   O  A00 X   1      58.152  48.733  73.6980  0.00  0.00     0.000 O
ATOM     12   O  A00 X   1      56.803  46.864  74.3720  0.00  0.00     0.000 OA
ATOM     13   O  A00 X   1      56.041  49.121  74.8650  0.00  0.00     0.000 OA
ATOM     14   O  A00 X   1      57.948  48.225  75.9680  0.00  0.00     0.000 OA
ATOM     15   S  A00 X   1      57.144  48.204  74.7760  0.00  0.00     0.000 S
ENDBRANCH 2 11
BRANCH 5 16
ATOM     16   C  A00 X   1      56.806  51.940  70.6580  0.00  0.00     0.000 C
ATOM     17   O  A00 X   1      56.948  53.091  71.0170  0.00  0.00     0.000 OA
ATOM     18   O  A00 X   1      55.685  51.476  70.6010  0.00  0.00     0.000 OA
ENDBRANCH 5 16
BRANCH 1 19
ATOM     19  O4  A00 X   2      58.490  51.947  73.4580  0.00  0.00     0.000 O
BRANCH 19 23
ATOM     20  C1  A00 X   2      62.607  52.625  74.4370  0.00  0.00     0.000 C
ATOM     21  C2  A00 X   2      61.750  51.837  75.4580  0.00  0.00     0.000 C
ATOM     22  C3  A00 X   2      60.460  51.306  74.7980  0.00  0.00     0.000 C
ATOM     23  C4  A00 X   2      59.681  52.457  74.1230  0.00  0.00     0.000 C
ATOM     24  C5  A00 X   2      60.650  53.175  73.1430  0.00  0.00     0.000 C
ATOM     25  O5  A00 X   2      61.779  53.689  73.8950  0.00  0.00     0.000 O
ATOM     26   O  A00 X   2      59.735  50.527  75.7650  0.00  0.00     0.000 O
ATOM     28  HD  A00 X   2      59.778  51.145  76.3700  0.00  0.00     0.000 HD
BRANCH 21 30
ATOM     28   N  A00 X   2      62.526  52.463  76.5330  0.00  0.00     0.000 N
ATOM     30  HD  A00 X   2      62.108  51.789  76.8840  0.00  0.00     0.000 HD
ATOM     30   O  A00 X   2      62.652  50.952  78.3110  0.00  0.00     0.000 OA
ATOM     31   S  A00 X   2      62.079  52.220  78.0300  0.00  0.00     0.000 S
ATOM     32   O  A00 X   2      62.661  53.318  78.7390  0.00  0.00     0.000 OA
ATOM     33   O  A00 X   2      60.649  52.309  78.0650  0.00  0.00     0.000 OA
ENDBRANCH 21 30
BRANCH 24 34
ATOM     34   C  A00 X   2      60.055  54.220  72.1700  0.00  0.00     0.000 C
ATOM     35   O  A00 X   2      60.963  57.746  72.1600  0.00  0.00     0.000 OA
ATOM     36   O  A00 X   2      60.321  55.564  72.6200  0.00  0.00     0.000 O
ATOM     37   O  A00 X   2      62.520  55.980  71.9420  0.00  0.00     0.000 OA
ATOM     38   S  A00 X   2      61.196  56.436  71.6480  0.00  0.00     0.000 S
ATOM     39   O  A00 X   2      60.691  56.201  70.3280  0.00  0.00     0.000 OA
ENDBRANCH 24 34
BRANCH 20 40
ATOM     40  O4  A00 X   3      62.927  51.689  73.3960  0.00  0.00     0.000 O
BRANCH 40 44
ATOM     41  C1  A00 X   3      63.267  51.011  69.8540  0.00  0.00     0.000 C
ATOM     42  C2  A00 X   3      63.503  49.976  70.9750  0.00  0.00     0.000 C
ATOM     43  C3  A00 X   3      64.469  50.534  72.0520  0.00  0.00     0.000 C
ATOM     44  C4  A00 X   3      64.097  51.914  72.5810  0.00  0.00     0.000 C
ATOM     45  C5  A00 X   3      63.881  52.898  71.3970  0.00  0.00     0.000 C
ATOM     46  O5  A00 X   3      62.972  52.326  70.4010  0.00  0.00     0.000 O
ATOM     47   O  A00 X   3      64.829  49.630  73.0950  0.00  0.00     0.000 O
ATOM     49  HD  A00 X   3      64.759  50.342  73.5820  0.00  0.00     0.000 HD
BRANCH 42 49
ATOM     49   O  A00 X   3      62.211  49.659  71.5380  0.00  0.00     0.000 O
ATOM     50   O  A00 X   3      61.386  48.285  73.3160  0.00  0.00     0.000 OA
ATOM     51   O  A00 X   3      63.106  47.445  71.9290  0.00  0.00     0.000 OA
ATOM     52   O  A00 X   3      60.955  47.750  70.9980  0.00  0.00     0.000 OA
ATOM     53   S  A00 X   3      61.881  48.203  71.9780  0.00  0.00     0.000 S
ENDBRANCH 42 49
BRANCH 45 54
ATOM     54   C  A00 X   3      65.213  53.367  70.7990  0.00  0.00     0.000 C
ATOM     55   O  A00 X   3      66.261  52.869  71.1550  0.00  0.00     0.000 OA
ATOM     56   O  A00 X   3      65.243  54.251  69.9560  0.00  0.00     0.000 OA
ENDBRANCH 45 54
BRANCH 41 57
ATOM     57  O4  A00 X   4      64.340  51.004  68.8860  0.00  0.00     0.000 O
BRANCH 57 61
ATOM     58  C1  A00 X   4      64.460  51.684  64.6250  0.00  0.00     0.000 C
ATOM     59  C2  A00 X   4      63.991  52.837  65.5460  0.00  0.00     0.000 C
ATOM     60  C3  A00 X   4      64.327  52.611  67.0340  0.00  0.00     0.000 C
ATOM     61  C4  A00 X   4      63.926  51.196  67.5030  0.00  0.00     0.000 C
ATOM     62  C5  A00 X   4      64.673  50.202  66.5780  0.00  0.00     0.000 C
ATOM     63  O5  A00 X   4      64.216  50.386  65.2140  0.00  0.00     0.000 O
BRANCH 59 66
ATOM     64   N  A00 X   4      62.523  52.963  65.4870  0.00  0.00     0.000 N
ATOM     66  HD  A00 X   4      62.068  52.250  65.3030  0.00  0.00     0.000 HD
ATOM     66   O  A00 X   4      62.814  54.235  63.4630  0.00  0.00     0.000 OA
ATOM     67   S  A00 X   4      61.897  54.100  64.5520  0.00  0.00     0.000 S
ATOM     68   O  A00 X   4      60.636  53.501  64.2260  0.00  0.00     0.000 OA
ATOM     69   O  A00 X   4      61.810  55.181  65.4920  0.00  0.00     0.000 OA
ENDBRANCH 59 66
BRANCH 62 70
ATOM     70   C  A00 X   4      64.483  48.716  66.9640  0.00  0.00     0.000 C
ATOM     71   O  A00 X   4      61.503  46.675  66.7070  0.00  0.00     0.000 OA
ATOM     72   O  A00 X   4      62.994  46.995  68.5020  0.00  0.00     0.000 OA
ATOM     73   O  A00 X   4      63.218  48.253  66.4640  0.00  0.00     0.000 O
ATOM     74   O  A00 X   4      61.384  48.738  67.9490  0.00  0.00     0.000 OA
ATOM     75   S  A00 X   4      62.196  47.657  67.4940  0.00  0.00     0.000 S
ENDBRANCH 62 70
ENDBRANCH 57 61
ENDBRANCH 41 57
ENDBRANCH 40 44
ENDBRANCH 20 40
ENDBRANCH 19 23
ENDBRANCH 1 19
TORSDOF 14
ENDMDL
MODEL 89
REMARK VINA RESULT:      -1.0     73.010     78.388
ROOT
ATOM      1  C1  A00 X   1      88.702  50.688  45.4590  0.00  0.00     0.000 C
ATOM      2  C2  A00 X   1      88.788  49.221  45.9570  0.00  0.00     0.000 C
ATOM      3  C3  A00 X   1      89.452  49.008  47.3570  0.00  0.00     0.000 C
ATOM      4  C4  A00 X   1      90.260  50.213  47.9040  0.00  0.00     0.000 C
ATOM      5  C5  A00 X   1      90.716  51.155  46.7890  0.00  0.00     0.000 C
ATOM      6  O5  A00 X   1      89.492  51.649  46.2020  0.00  0.00     0.000 O
ATOM      7   O  A00 X   1      90.364  47.915  47.2700  0.00  0.00     0.000 O
ATOM      9  HD  A00 X   1      90.745  48.528  47.7480  0.00  0.00     0.000 HD
ATOM      9   O  A00 X   1      89.515  50.943  48.8780  0.00  0.00     0.000 O
ATOM     11  HD  A00 X   1      89.896  51.556  49.3550  0.00  0.00     0.000 HD
ENDROOT
BRANCH 2 11
ATOM     11   O  A00 X   1      87.450  48.688  45.9860  0.00  0.00     0.000 O
ATOM     12   O  A00 X   1      87.007  46.396  46.5490  0.00  0.00     0.000 OA
ATOM     13   O  A00 X   1      88.284  46.903  44.5420  0.00  0.00     0.000 OA
ATOM     14   O  A00 X   1      85.973  47.448  44.6690  0.00  0.00     0.000 OA
ATOM     15   S  A00 X   1      87.192  47.254  45.4070  0.00  0.00     0.000 S
ENDBRANCH 2 11
BRANCH 5 16
ATOM     16   C  A00 X   1      91.679  50.536  45.7710  0.00  0.00     0.000 C
ATOM     17   O  A00 X   1      91.926  51.153  44.7560  0.00  0.00     0.000 OA
ATOM     18   O  A00 X   1      92.206  49.455  45.9450  0.00  0.00     0.000 OA
ENDBRANCH 5 16
BRANCH 1 19
ATOM     19  O4  A00 X   2      88.926  50.811  44.0330  0.00  0.00     0.000 O
BRANCH 19 23
ATOM     20  C1  A00 X   2      86.025  53.927  43.5400  0.00  0.00     0.000 C
ATOM     21  C2  A00 X   2      85.589  52.483  43.1910  0.00  0.00     0.000 C
ATOM     22  C3  A00 X   2      86.553  51.452  43.8140  0.00  0.00     0.000 C
ATOM     23  C4  A00 X   2      88.012  51.755  43.4030  0.00  0.00     0.000 C
ATOM     24  C5  A00 X   2      88.318  53.228  43.7870  0.00  0.00     0.000 C
ATOM     25  O5  A00 X   2      87.393  54.096  43.0820  0.00  0.00     0.000 O
ATOM     26   O  A00 X   2      86.069  50.131  43.5200  0.00  0.00     0.000 O
ATOM     28  HD  A00 X   2      85.980  50.297  42.6750  0.00  0.00     0.000 HD
BRANCH 21 30
ATOM     28   N  A00 X   2      84.755  53.034  42.1190  0.00  0.00     0.000 N
ATOM     30  HD  A00 X   2      84.489  52.220  42.2500  0.00  0.00     0.000 HD
ATOM     30   O  A00 X   2      82.887  51.653  41.8680  0.00  0.00     0.000 OA
ATOM     31   S  A00 X   2      84.036  52.035  41.1270  0.00  0.00     0.000 S
ATOM     32   O  A00 X   2      83.772  52.835  39.9720  0.00  0.00     0.000 OA
ATOM     33   O  A00 X   2      84.977  51.001  40.8110  0.00  0.00     0.000 OA
ENDBRANCH 21 30
BRANCH 24 34
ATOM     34   C  A00 X   2      89.783  53.714  43.6920  0.00  0.00     0.000 C
ATOM     35   O  A00 X   2      91.762  53.643  40.6370  0.00  0.00     0.000 OA
ATOM     36   O  A00 X   2      90.411  53.246  42.4820  0.00  0.00     0.000 O
ATOM     37   O  A00 X   2      89.669  54.725  40.8300  0.00  0.00     0.000 OA
ATOM     38   S  A00 X   2      90.887  54.372  41.4940  0.00  0.00     0.000 S
ATOM     39   O  A00 X   2      91.519  55.375  42.2970  0.00  0.00     0.000 OA
ENDBRANCH 24 34
BRANCH 20 40
ATOM     40  O4  A00 X   3      85.984  54.009  44.9720  0.00  0.00     0.000 O
BRANCH 40 44
ATOM     41  C1  A00 X   3      87.634  55.117  48.0010  0.00  0.00     0.000 C
ATOM     42  C2  A00 X   3      86.303  54.335  47.9590  0.00  0.00     0.000 C
ATOM     43  C3  A00 X   3      85.297  55.003  46.9870  0.00  0.00     0.000 C
ATOM     44  C4  A00 X   3      85.858  55.302  45.6020  0.00  0.00     0.000 C
ATOM     45  C5  A00 X   3      87.191  56.092  45.7270  0.00  0.00     0.000 C
ATOM     46  O5  A00 X   3      88.105  55.432  46.6610  0.00  0.00     0.000 O
ATOM     47   O  A00 X   3      83.999  54.414  46.9320  0.00  0.00     0.000 O
ATOM     49  HD  A00 X   3      84.080  54.586  46.0870  0.00  0.00     0.000 HD
BRANCH 42 49
ATOM     49   O  A00 X   3      86.618  52.986  47.5490  0.00  0.00     0.000 O
ATOM     50   O  A00 X   3      85.386  50.994  47.0540  0.00  0.00     0.000 OA
ATOM     51   O  A00 X   3      84.734  52.308  48.9090  0.00  0.00     0.000 OA
ATOM     52   O  A00 X   3      86.796  51.158  49.0120  0.00  0.00     0.000 OA
ATOM     53   S  A00 X   3      85.845  51.779  48.1570  0.00  0.00     0.000 S
ENDBRANCH 42 49
BRANCH 45 54
ATOM     54   C  A00 X   3      86.945  57.568  46.0640  0.00  0.00     0.000 C
ATOM     55   O  A00 X   3      85.815  57.998  46.1740  0.00  0.00     0.000 OA
ATOM     56   O  A00 X   3      87.881  58.337  46.2250  0.00  0.00     0.000 OA
ENDBRANCH 45 54
BRANCH 41 57
ATOM     57  O4  A00 X   4      87.554  56.261  48.8800  0.00  0.00     0.000 O
BRANCH 57 61
ATOM     58  C1  A00 X   4      90.440  58.221  51.4220  0.00  0.00     0.000 C
ATOM     59  C2  A00 X   4      90.708  58.172  49.8980  0.00  0.00     0.000 C
ATOM     60  C3  A00 X   4      89.468  57.781  49.0680  0.00  0.00     0.000 C
ATOM     61  C4  A00 X   4      88.760  56.538  49.6470  0.00  0.00     0.000 C
ATOM     62  C5  A00 X   4      88.395  56.886  51.1110  0.00  0.00     0.000 C
ATOM     63  O5  A00 X   4      89.614  57.120  51.8630  0.00  0.00     0.000 O
BRANCH 59 66
ATOM     64   N  A00 X   4      91.723  57.140  49.6210  0.00  0.00     0.000 N
ATOM     66  HD  A00 X   4      91.782  56.478  50.1770  0.00  0.00     0.000 HD
ATOM     66   O  A00 X   4      93.397  58.774  50.1910  0.00  0.00     0.000 OA
ATOM     67   S  A00 X   4      93.233  57.607  49.3820  0.00  0.00     0.000 S
ATOM     68   O  A00 X   4      93.939  56.442  49.8300  0.00  0.00     0.000 OA
ATOM     69   O  A00 X   4      93.223  57.777  47.9560  0.00  0.00     0.000 OA
ENDBRANCH 59 66
BRANCH 62 70
ATOM     70   C  A00 X   4      87.573  55.793  51.8350  0.00  0.00     0.000 C
ATOM     71   O  A00 X   4      88.650  52.525  52.9600  0.00  0.00     0.000 OA
ATOM     72   O  A00 X   4      86.766  53.171  51.7030  0.00  0.00     0.000 OA
ATOM     73   O  A00 X   4      88.460  54.768  52.3100  0.00  0.00     0.000 O
ATOM     74   O  A00 X   4      88.958  53.105  50.6400  0.00  0.00     0.000 OA
ATOM     75   S  A00 X   4      88.201  53.296  51.8350  0.00  0.00     0.000 S
ENDBRANCH 62 70
ENDBRANCH 57 61
ENDBRANCH 41 57
ENDBRANCH 40 44
ENDBRANCH 20 40
ENDBRANCH 19 23
ENDBRANCH 1 19
TORSDOF 14
ENDMDL
MODEL 90
REMARK VINA RESULT:      -1.0     50.161     54.867
ROOT
ATOM      1  C1  A00 X   1      37.593  50.664  55.1400  0.00  0.00     0.000 C
ATOM      2  C2  A00 X   1      36.133  50.138  55.1680  0.00  0.00     0.000 C
ATOM      3  C3  A00 X   1      35.017  51.217  55.3680  0.00  0.00     0.000 C
ATOM      4  C4  A00 X   1      35.506  52.598  55.8750  0.00  0.00     0.000 C
ATOM      5  C5  A00 X   1      36.853  52.506  56.5920  0.00  0.00     0.000 C
ATOM      6  O5  A00 X   1      37.774  52.032  55.5840  0.00  0.00     0.000 O
ATOM      7   O  A00 X   1      34.086  50.738  56.3350  0.00  0.00     0.000 O
ATOM      9  HD  A00 X   1      34.217  51.577  56.5020  0.00  0.00     0.000 HD
ATOM      9   O  A00 X   1      35.591  53.545  54.8100  0.00  0.00     0.000 O
ATOM     11  HD  A00 X   1      35.722  54.384  54.9770  0.00  0.00     0.000 HD
ENDROOT
BRANCH 2 11
ATOM     11   O  A00 X   1      35.894  49.441  53.9300  0.00  0.00     0.000 O
ATOM     12   O  A00 X   1      33.830  48.293  53.4970  0.00  0.00     0.000 OA
ATOM     13   O  A00 X   1      35.265  47.520  55.3020  0.00  0.00     0.000 OA
ATOM     14   O  A00 X   1      35.947  47.285  53.0350  0.00  0.00     0.000 OA
ATOM     15   S  A00 X   1      35.169  48.052  53.9710  0.00  0.00     0.000 S
ENDBRANCH 2 11
BRANCH 5 16
ATOM     16   C  A00 X   1      36.851  51.658  57.8680  0.00  0.00     0.000 C
ATOM     17   O  A00 X   1      37.915  51.382  58.3840  0.00  0.00     0.000 OA
ATOM     18   O  A00 X   1      35.826  51.260  58.3850  0.00  0.00     0.000 OA
ENDBRANCH 5 16
BRANCH 1 19
ATOM     19  O4  A00 X   2      38.525  49.769  55.7940  0.00  0.00     0.000 O
BRANCH 19 23
ATOM     20  C1  A00 X   2      41.684  50.522  52.9980  0.00  0.00     0.000 C
ATOM     21  C2  A00 X   2      40.829  49.250  52.7840  0.00  0.00     0.000 C
ATOM     22  C3  A00 X   2      39.505  49.339  53.5710  0.00  0.00     0.000 C
ATOM     23  C4  A00 X   2      39.777  49.635  55.0630  0.00  0.00     0.000 C
ATOM     24  C5  A00 X   2      40.653  50.915  55.1410  0.00  0.00     0.000 C
ATOM     25  O5  A00 X   2      41.895  50.676  54.4270  0.00  0.00     0.000 O
ATOM     26   O  A00 X   2      38.719  48.170  53.2850  0.00  0.00     0.000 O
ATOM     28  HD  A00 X   2      39.373  47.628  53.4530  0.00  0.00     0.000 HD
BRANCH 21 30
ATOM     28   N  A00 X   2      42.031  48.571  52.2900  0.00  0.00     0.000 N
ATOM     30  HD  A00 X   2      41.353  48.089  52.0490  0.00  0.00     0.000 HD
ATOM     30   O  A00 X   2      41.374  47.008  50.6830  0.00  0.00     0.000 OA
ATOM     31   S  A00 X   2      41.954  47.023  51.9790  0.00  0.00     0.000 S
ATOM     32   O  A00 X   2      43.318  46.598  52.0350  0.00  0.00     0.000 OA
ATOM     33   O  A00 X   2      41.199  46.416  53.0350  0.00  0.00     0.000 OA
ENDBRANCH 21 30
BRANCH 24 34
ATOM     34   C  A00 X   2      40.878  51.557  56.5300  0.00  0.00     0.000 C
ATOM     35   O  A00 X   2      42.378  49.827  59.3600  0.00  0.00     0.000 OA
ATOM     36   O  A00 X   2      41.150  50.556  57.5310  0.00  0.00     0.000 O
ATOM     37   O  A00 X   2      43.415  50.050  57.2470  0.00  0.00     0.000 OA
ATOM     38   S  A00 X   2      42.560  50.661  58.2180  0.00  0.00     0.000 S
ATOM     39   O  A00 X   2      42.769  52.048  58.5060  0.00  0.00     0.000 OA
ENDBRANCH 24 34
BRANCH 20 40
ATOM     40  O4  A00 X   3      40.888  51.612  52.5110  0.00  0.00     0.000 O
BRANCH 40 44
ATOM     41  C1  A00 X   3      39.676  54.994  52.9790  0.00  0.00     0.000 C
ATOM     42  C2  A00 X   3      39.292  54.077  51.7970  0.00  0.00     0.000 C
ATOM     43  C3  A00 X   3      40.555  53.479  51.1250  0.00  0.00     0.000 C
ATOM     44  C4  A00 X   3      41.539  52.830  52.0900  0.00  0.00     0.000 C
ATOM     45  C5  A00 X   3      41.880  53.813  53.2450  0.00  0.00     0.000 C
ATOM     46  O5  A00 X   3      40.660  54.360  53.8430  0.00  0.00     0.000 O
ATOM     47   O  A00 X   3      40.325  52.683  49.9640  0.00  0.00     0.000 O
ATOM     49  HD  A00 X   3      40.957  52.201  50.3080  0.00  0.00     0.000 HD
BRANCH 42 49
ATOM     49   O  A00 X   3      38.436  53.041  52.3260  0.00  0.00     0.000 O
ATOM     50   O  A00 X   3      37.336  51.096  51.4680  0.00  0.00     0.000 OA
ATOM     51   O  A00 X   3      37.340  53.071  50.1690  0.00  0.00     0.000 OA
ATOM     52   O  A00 X   3      36.092  53.045  52.1760  0.00  0.00     0.000 OA
ATOM     53   S  A00 X   3      37.226  52.520  51.4960  0.00  0.00     0.000 S
ENDBRANCH 42 49
BRANCH 45 54
ATOM     54   C  A00 X   3      42.869  54.895  52.7950  0.00  0.00     0.000 C
ATOM     55   O  A00 X   3      43.189  54.994  51.6290  0.00  0.00     0.000 OA
ATOM     56   O  A00 X   3      43.352  55.674  53.6020  0.00  0.00     0.000 OA
ENDBRANCH 45 54
BRANCH 41 57
ATOM     57  O4  A00 X   4      40.054  56.314  52.5290  0.00  0.00     0.000 O
BRANCH 57 61
ATOM     58  C1  A00 X   4      39.597  60.248  54.2470  0.00  0.00     0.000 C
ATOM     59  C2  A00 X   4      40.447  59.201  55.0080  0.00  0.00     0.000 C
ATOM     60  C3  A00 X   4      40.835  57.981  54.1480  0.00  0.00     0.000 C
ATOM     61  C4  A00 X   4      39.620  57.407  53.3870  0.00  0.00     0.000 C
ATOM     62  C5  A00 X   4      39.054  58.568  52.5320  0.00  0.00     0.000 C
ATOM     63  O5  A00 X   4      38.595  59.627  53.4100  0.00  0.00     0.000 O
BRANCH 59 66
ATOM     64   N  A00 X   4      39.706  58.641  56.1530  0.00  0.00     0.000 N
ATOM     66  HD  A00 X   4      38.842  58.614  56.0960  0.00  0.00     0.000 HD
ATOM     66   O  A00 X   4      40.333  60.609  57.3920  0.00  0.00     0.000 OA
ATOM     67   S  A00 X   4      40.000  59.235  57.6090  0.00  0.00     0.000 S
ATOM     68   O  A00 X   4      38.736  59.000  58.2440  0.00  0.00     0.000 OA
ATOM     69   O  A00 X   4      41.047  58.352  58.0370  0.00  0.00     0.000 OA
ENDBRANCH 59 66
BRANCH 62 70
ATOM     70   C  A00 X   4      37.886  58.158  51.6030  0.00  0.00     0.000 C
ATOM     71   O  A00 X   4      34.509  57.211  52.5010  0.00  0.00     0.000 OA
ATOM     72   O  A00 X   4      36.066  56.170  51.0740  0.00  0.00     0.000 OA
ATOM     73   O  A00 X   4      36.669  58.108  52.3650  0.00  0.00     0.000 O
ATOM     74   O  A00 X   4      36.346  56.001  53.4890  0.00  0.00     0.000 OA
ATOM     75   S  A00 X   4      35.867  56.760  52.3790  0.00  0.00     0.000 S
ENDBRANCH 62 70
ENDBRANCH 57 61
ENDBRANCH 41 57
ENDBRANCH 40 44
ENDBRANCH 20 40
ENDBRANCH 19 23
ENDBRANCH 1 19
TORSDOF 14
ENDMDL
MODEL 91
REMARK VINA RESULT:      -0.9     61.035     65.180
ROOT
ATOM      1  C1  A00 X   1      68.352  22.891  67.5150  0.00  0.00     0.000 C
ATOM      2  C2  A00 X   1      69.780  23.298  67.0640  0.00  0.00     0.000 C
ATOM      3  C3  A00 X   1      70.803  22.128  66.8810  0.00  0.00     0.000 C
ATOM      4  C4  A00 X   1      70.390  20.775  67.5150  0.00  0.00     0.000 C
ATOM      5  C5  A00 X   1      69.365  20.951  68.6360  0.00  0.00     0.000 C
ATOM      6  O5  A00 X   1      68.210  21.529  67.9880  0.00  0.00     0.000 O
ATOM      7   O  A00 X   1      72.037  22.500  67.4900  0.00  0.00     0.000 O
ATOM      9  HD  A00 X   1      71.896  21.669  67.6870  0.00  0.00     0.000 HD
ATOM      9   O  A00 X   1      69.881  19.872  66.5330  0.00  0.00     0.000 O
ATOM     11  HD  A00 X   1      69.740  19.041  66.7300  0.00  0.00     0.000 HD
ENDROOT
BRANCH 2 11
ATOM     11   O  A00 X   1      69.660  24.014  65.8190  0.00  0.00     0.000 O
ATOM     12   O  A00 X   1      71.563  24.984  64.7220  0.00  0.00     0.000 OA
ATOM     13   O  A00 X   1      70.893  25.821  66.9060  0.00  0.00     0.000 OA
ATOM     14   O  A00 X   1      69.521  26.196  64.9990  0.00  0.00     0.000 OA
ATOM     15   S  A00 X   1      70.488  25.329  65.6180  0.00  0.00     0.000 S
ENDBRANCH 2 11
BRANCH 5 16
ATOM     16   C  A00 X   1      69.858  21.754  69.8440  0.00  0.00     0.000 C
ATOM     17   O  A00 X   1      69.047  22.111  70.6730  0.00  0.00     0.000 OA
ATOM     18   O  A00 X   1      71.028  22.040  70.0030  0.00  0.00     0.000 OA
ENDBRANCH 5 16
BRANCH 1 19
ATOM     19  O4  A00 X   2      67.766  23.837  68.4430  0.00  0.00     0.000 O
BRANCH 19 23
ATOM     20  C1  A00 X   2      63.820  23.448  66.8160  0.00  0.00     0.000 C
ATOM     21  C2  A00 X   2      64.666  24.661  66.3570  0.00  0.00     0.000 C
ATOM     22  C3  A00 X   2      66.161  24.437  66.6680  0.00  0.00     0.000 C
ATOM     23  C4  A00 X   2      66.361  24.097  68.1620  0.00  0.00     0.000 C
ATOM     24  C5  A00 X   2      65.451  22.884  68.4980  0.00  0.00     0.000 C
ATOM     25  O5  A00 X   2      64.071  23.248  68.2330  0.00  0.00     0.000 O
ATOM     26   O  A00 X   2      66.909  25.556  66.1630  0.00  0.00     0.000 O
ATOM     28  HD  A00 X   2      66.393  26.138  66.5440  0.00  0.00     0.000 HD
BRANCH 21 30
ATOM     28   N  A00 X   2      63.428  25.444  66.2870  0.00  0.00     0.000 N
ATOM     30  HD  A00 X   2      64.031  25.888  65.8530  0.00  0.00     0.000 HD
ATOM     30   O  A00 X   2      63.665  27.029  64.5880  0.00  0.00     0.000 OA
ATOM     31   S  A00 X   2      63.527  26.995  66.0010  0.00  0.00     0.000 S
ATOM     32   O  A00 X   2      62.290  27.511  66.4990  0.00  0.00     0.000 OA
ATOM     33   O  A00 X   2      64.623  27.499  66.7730  0.00  0.00     0.000 OA
ENDBRANCH 21 30
BRANCH 24 34
ATOM     34   C  A00 X   2      65.633  22.199  69.8730  0.00  0.00     0.000 C
ATOM     35   O  A00 X   2      65.292  23.912  73.0680  0.00  0.00     0.000 OA
ATOM     36   O  A00 X   2      65.791  23.172  70.9250  0.00  0.00     0.000 O
ATOM     37   O  A00 X   2      63.610  23.867  71.4070  0.00  0.00     0.000 OA
ATOM     38   S  A00 X   2      64.676  23.147  72.0340  0.00  0.00     0.000 S
ATOM     39   O  A00 X   2      64.450  21.769  72.3510  0.00  0.00     0.000 OA
ENDBRANCH 24 34
BRANCH 20 40
ATOM     40  O4  A00 X   3      64.320  22.325  66.0760  0.00  0.00     0.000 O
BRANCH 40 44
ATOM     41  C1  A00 X   3      65.329  18.845  66.0920  0.00  0.00     0.000 C
ATOM     42  C2  A00 X   3      65.390  19.774  64.8600  0.00  0.00     0.000 C
ATOM     43  C3  A00 X   3      64.033  20.490  64.6370  0.00  0.00     0.000 C
ATOM     44  C4  A00 X   3      63.469  21.177  65.8750  0.00  0.00     0.000 C
ATOM     45  C5  A00 X   3      63.435  20.180  67.0670  0.00  0.00     0.000 C
ATOM     46  O5  A00 X   3      64.731  19.520  67.2340  0.00  0.00     0.000 O
ATOM     47   O  A00 X   3      63.945  21.310  63.4730  0.00  0.00     0.000 O
ATOM     49  HD  A00 X   3      63.499  21.826  64.0070  0.00  0.00     0.000 HD
BRANCH 42 49
ATOM     49   O  A00 X   3      66.454  20.721  65.0960  0.00  0.00     0.000 O
ATOM     50   O  A00 X   3      67.380  22.608  63.9500  0.00  0.00     0.000 OA
ATOM     51   O  A00 X   3      66.793  20.690  62.6990  0.00  0.00     0.000 OA
ATOM     52   O  A00 X   3      68.616  20.545  64.1960  0.00  0.00     0.000 OA
ATOM     53   S  A00 X   3      67.373  21.179  63.9250  0.00  0.00     0.000 S
ENDBRANCH 42 49
BRANCH 45 54
ATOM     54   C  A00 X   3      62.266  19.194  66.9490  0.00  0.00     0.000 C
ATOM     55   O  A00 X   3      61.958  18.485  67.8850  0.00  0.00     0.000 OA
ATOM     56   O  A00 X   3      61.627  19.102  65.9130  0.00  0.00     0.000 OA
ENDBRANCH 45 54
BRANCH 41 57
ATOM     57  O4  A00 X   4      64.717  17.575  65.7740  0.00  0.00     0.000 O
BRANCH 57 61
ATOM     58  C1  A00 X   4      65.351  13.562  67.2330  0.00  0.00     0.000 C
ATOM     59  C2  A00 X   4      64.892  14.651  68.2350  0.00  0.00     0.000 C
ATOM     60  C3  A00 X   4      64.357  15.927  67.5530  0.00  0.00     0.000 C
ATOM     61  C4  A00 X   4      65.305  16.422  66.4390  0.00  0.00     0.000 C
ATOM     62  C5  A00 X   4      65.457  15.247  65.4420  0.00  0.00     0.000 C
ATOM     63  O5  A00 X   4      66.079  14.124  66.1170  0.00  0.00     0.000 O
BRANCH 59 66
ATOM     64   N  A00 X   4      65.880  15.197  69.1820  0.00  0.00     0.000 N
ATOM     66  HD  A00 X   4      66.700  15.262  68.9110  0.00  0.00     0.000 HD
ATOM     66   O  A00 X   4      65.646  13.161  70.4450  0.00  0.00     0.000 OA
ATOM     67   S  A00 X   4      65.982  14.537  70.6350  0.00  0.00     0.000 S
ATOM     68   O  A00 X   4      67.357  14.800  70.9430  0.00  0.00     0.000 OA
ATOM     69   O  A00 X   4      65.051  15.361  71.3530  0.00  0.00     0.000 OA
ENDBRANCH 59 66
BRANCH 62 70
ATOM     70   C  A00 X   4      66.292  15.588  64.1850  0.00  0.00     0.000 C
ATOM     71   O  A00 X   4      69.842  16.252  63.9410  0.00  0.00     0.000 OA
ATOM     72   O  A00 X   4      67.997  17.442  63.0910  0.00  0.00     0.000 OA
ATOM     73   O  A00 X   4      67.689  15.527  64.5120  0.00  0.00     0.000 O
ATOM     74   O  A00 X   4      68.525  17.576  65.4660  0.00  0.00     0.000 OA
ATOM     75   S  A00 X   4      68.558  16.808  64.2630  0.00  0.00     0.000 S
ENDBRANCH 62 70
ENDBRANCH 57 61
ENDBRANCH 41 57
ENDBRANCH 40 44
ENDBRANCH 20 40
ENDBRANCH 19 23
ENDBRANCH 1 19
TORSDOF 14
ENDMDL
MODEL 92
REMARK VINA RESULT:      -0.9     66.264     70.729
ROOT
ATOM      1  C1  A00 X   1      61.109  56.780  59.5220  0.00  0.00     0.000 C
ATOM      2  C2  A00 X   1      61.186  55.293  59.0820  0.00  0.00     0.000 C
ATOM      3  C3  A00 X   1      60.980  55.016  57.5570  0.00  0.00     0.000 C
ATOM      4  C4  A00 X   1      60.368  56.184  56.7420  0.00  0.00     0.000 C
ATOM      5  C5  A00 X   1      59.591  57.160  57.6250  0.00  0.00     0.000 C
ATOM      6  O5  A00 X   1      60.577  57.697  58.5350  0.00  0.00     0.000 O
ATOM      7   O  A00 X   1      60.091  53.911  57.4090  0.00  0.00     0.000 O
ATOM      9  HD  A00 X   1      59.869  54.498  56.8130  0.00  0.00     0.000 HD
ATOM      9   O  A00 X   1      61.370  56.890  56.0100  0.00  0.00     0.000 O
ATOM     11  HD  A00 X   1      61.148  57.478  55.4140  0.00  0.00     0.000 HD
ENDROOT
BRANCH 2 11
ATOM     11   O  A00 X   1      62.473  54.784  59.4820  0.00  0.00     0.000 O
ATOM     12   O  A00 X   1      63.237  52.604  58.8230  0.00  0.00     0.000 OA
ATOM     13   O  A00 X   1      61.284  52.797  60.2610  0.00  0.00     0.000 OA
ATOM     14   O  A00 X   1      63.442  53.379  61.0750  0.00  0.00     0.000 OA
ATOM     15   S  A00 X   1      62.593  53.283  59.9190  0.00  0.00     0.000 S
ENDBRANCH 2 11
BRANCH 5 16
ATOM     16   C  A00 X   1      58.368  56.562  58.3300  0.00  0.00     0.000 C
ATOM     17   O  A00 X   1      57.916  55.514  57.9190  0.00  0.00     0.000 OA
ATOM     18   O  A00 X   1      57.843  57.095  59.2860  0.00  0.00     0.000 OA
ENDBRANCH 5 16
BRANCH 1 19
ATOM     19  O4  A00 X   2      60.463  56.953  60.8070  0.00  0.00     0.000 O
BRANCH 19 23
ATOM     20  C1  A00 X   2      63.160  60.024  62.0950  0.00  0.00     0.000 C
ATOM     21  C2  A00 X   2      63.436  58.580  62.5820  0.00  0.00     0.000 C
ATOM     22  C3  A00 X   2      62.677  57.554  61.7150  0.00  0.00     0.000 C
ATOM     23  C4  A00 X   2      61.170  57.893  61.6660  0.00  0.00     0.000 C
ATOM     24  C5  A00 X   2      61.030  59.363  61.1840  0.00  0.00     0.000 C
ATOM     25  O5  A00 X   2      61.722  60.229  62.1190  0.00  0.00     0.000 O
ATOM     26   O  A00 X   2      63.018  56.231  62.1620  0.00  0.00     0.000 O
ATOM     28  HD  A00 X   2      62.854  56.414  62.9920  0.00  0.00     0.000 HD
BRANCH 21 30
ATOM     28   N  A00 X   2      63.925  59.140  63.8450  0.00  0.00     0.000 N
ATOM     30  HD  A00 X   2      64.197  58.319  63.8130  0.00  0.00     0.000 HD
ATOM     30   O  A00 X   2      65.598  57.730  64.6660  0.00  0.00     0.000 OA
ATOM     31   S  A00 X   2      64.289  58.151  65.0230  0.00  0.00     0.000 S
ATOM     32   O  A00 X   2      64.216  58.973  66.1910  0.00  0.00     0.000 OA
ATOM     33   O  A00 X   2      63.271  57.144  65.0600  0.00  0.00     0.000 OA
ENDBRANCH 21 30
BRANCH 24 34
ATOM     34   C  A00 X   2      59.615  59.878  60.8280  0.00  0.00     0.000 C
ATOM     35   O  A00 X   2      57.921  62.574  62.5940  0.00  0.00     0.000 OA
ATOM     36   O  A00 X   2      59.069  60.683  61.8920  0.00  0.00     0.000 O
ATOM     37   O  A00 X   2      60.057  62.782  61.6000  0.00  0.00     0.000 OA
ATOM     38   S  A00 X   2      58.763  62.178  61.5130  0.00  0.00     0.000 S
ATOM     39   O  A00 X   2      58.129  62.149  60.2290  0.00  0.00     0.000 OA
ENDBRANCH 24 34
BRANCH 20 40
ATOM     40  O4  A00 X   3      63.629  60.072  60.7400  0.00  0.00     0.000 O
BRANCH 40 44
ATOM     41  C1  A00 X   3      63.027  61.134  57.3290  0.00  0.00     0.000 C
ATOM     42  C2  A00 X   3      64.260  60.331  57.7960  0.00  0.00     0.000 C
ATOM     43  C3  A00 X   3      64.930  61.006  59.0210  0.00  0.00     0.000 C
ATOM     44  C4  A00 X   3      63.975  61.347  60.1570  0.00  0.00     0.000 C
ATOM     45  C5  A00 X   3      62.766  62.157  59.6110  0.00  0.00     0.000 C
ATOM     46  O5  A00 X   3      62.171  61.490  58.4500  0.00  0.00     0.000 O
ATOM     47   O  A00 X   3      66.133  60.397  59.4870  0.00  0.00     0.000 O
ATOM     49  HD  A00 X   3      65.799  60.591  60.2610  0.00  0.00     0.000 HD
BRANCH 42 49
ATOM     49   O  A00 X   3      63.803  58.998  58.1120  0.00  0.00     0.000 O
ATOM     50   O  A00 X   3      64.784  56.984  58.9550  0.00  0.00     0.000 OA
ATOM     51   O  A00 X   3      65.974  58.248  57.3510  0.00  0.00     0.000 OA
ATOM     52   O  A00 X   3      63.993  57.150  56.6760  0.00  0.00     0.000 OA
ATOM     53   S  A00 X   3      64.680  57.762  57.7600  0.00  0.00     0.000 S
ENDBRANCH 42 49
BRANCH 45 54
ATOM     54   C  A00 X   3      63.138  63.620  59.3400  0.00  0.00     0.000 C
ATOM     55   O  A00 X   3      64.292  63.989  59.4190  0.00  0.00     0.000 OA
ATOM     56   O  A00 X   3      62.282  64.438  59.0430  0.00  0.00     0.000 OA
ENDBRANCH 45 54
BRANCH 41 57
ATOM     57  O4  A00 X   4      63.403  62.256  56.4990  0.00  0.00     0.000 O
BRANCH 57 61
ATOM     58  C1  A00 X   4      61.511  64.187  53.1330  0.00  0.00     0.000 C
ATOM     59  C2  A00 X   4      60.780  64.194  54.4980  0.00  0.00     0.000 C
ATOM     60  C3  A00 X   4      61.688  63.807  55.6830  0.00  0.00     0.000 C
ATOM     61  C4  A00 X   4      62.505  62.530  55.3870  0.00  0.00     0.000 C
ATOM     62  C5  A00 X   4      63.317  62.822  54.1000  0.00  0.00     0.000 C
ATOM     63  O5  A00 X   4      62.401  63.055  53.0000  0.00  0.00     0.000 O
BRANCH 59 66
ATOM     64   N  A00 X   4      59.688  63.205  54.5030  0.00  0.00     0.000 N
ATOM     66  HD  A00 X   4      59.774  62.512  53.9910  0.00  0.00     0.000 HD
ATOM     66   O  A00 X   4      58.336  64.840  53.3650  0.00  0.00     0.000 OA
ATOM     67   S  A00 X   4      58.197  63.721  54.2440  0.00  0.00     0.000 S
ATOM     68   O  A00 X   4      57.614  62.548  53.6620  0.00  0.00     0.000 OA
ATOM     69   O  A00 X   4      57.780  63.978  55.5940  0.00  0.00     0.000 OA
ENDBRANCH 59 66
BRANCH 62 70
ATOM     70   C  A00 X   4      64.291  61.690  53.6980  0.00  0.00     0.000 C
ATOM     71   O  A00 X   4      63.521  58.391  52.4210  0.00  0.00     0.000 OA
ATOM     72   O  A00 X   4      64.956  59.066  54.1620  0.00  0.00     0.000 OA
ATOM     73   O  A00 X   4      63.563  60.656  53.0160  0.00  0.00     0.000 O
ATOM     74   O  A00 X   4      62.545  59.072  54.5190  0.00  0.00     0.000 OA
ATOM     75   S  A00 X   4      63.630  59.203  53.6000  0.00  0.00     0.000 S
ENDBRANCH 62 70
ENDBRANCH 57 61
ENDBRANCH 41 57
ENDBRANCH 40 44
ENDBRANCH 20 40
ENDBRANCH 19 23
ENDBRANCH 1 19
TORSDOF 14
ENDMDL
MODEL 93
REMARK VINA RESULT:      -0.9     71.439     75.719
ROOT
ATOM      1  C1  A00 X   1      16.727  91.323  20.9100  0.00  0.00     0.000 C
ATOM      2  C2  A00 X   1      15.324  91.862  20.5230  0.00  0.00     0.000 C
ATOM      3  C3  A00 X   1      15.269  92.800  19.2720  0.00  0.00     0.000 C
ATOM      4  C4  A00 X   1      16.633  93.368  18.8020  0.00  0.00     0.000 C
ATOM      5  C5  A00 X   1      17.676  93.365  19.9200  0.00  0.00     0.000 C
ATOM      6  O5  A00 X   1      17.848  91.970  20.2580  0.00  0.00     0.000 O
ATOM      7   O  A00 X   1      14.447  93.924  19.5790  0.00  0.00     0.000 O
ATOM      9  HD  A00 X   1      15.131  94.221  19.1380  0.00  0.00     0.000 HD
ATOM      9   O  A00 X   1      17.135  92.653  17.6730  0.00  0.00     0.000 O
ATOM     11  HD  A00 X   1      17.819  92.950  17.2320  0.00  0.00     0.000 HD
ENDROOT
BRANCH 2 11
ATOM     11   O  A00 X   1      14.466  90.727  20.2960  0.00  0.00     0.000 O
ATOM     12   O  A00 X   1      12.247  90.969  19.4110  0.00  0.00     0.000 OA
ATOM     13   O  A00 X   1      12.774  91.931  21.5820  0.00  0.00     0.000 OA
ATOM     14   O  A00 X   1      12.701  89.571  21.2960  0.00  0.00     0.000 OA
ATOM     15   S  A00 X   1      12.946  90.839  20.6640  0.00  0.00     0.000 S
ENDBRANCH 2 11
BRANCH 5 16
ATOM     16   C  A00 X   1      17.337  94.250  21.1240  0.00  0.00     0.000 C
ATOM     17   O  A00 X   1      16.487  95.106  20.9950  0.00  0.00     0.000 OA
ATOM     18   O  A00 X   1      17.883  94.120  22.2020  0.00  0.00     0.000 OA
ENDBRANCH 5 16
BRANCH 1 19
ATOM     19  O4  A00 X   2      16.923  91.247  22.3440  0.00  0.00     0.000 O
BRANCH 19 23
ATOM     20  C1  A00 X   2      19.059  87.537  22.1640  0.00  0.00     0.000 C
ATOM     21  C2  A00 X   2      17.550  87.476  22.5040  0.00  0.00     0.000 C
ATOM     22  C3  A00 X   2      16.846  88.792  22.1110  0.00  0.00     0.000 C
ATOM     23  C4  A00 X   2      17.558  90.003  22.7550  0.00  0.00     0.000 C
ATOM     24  C5  A00 X   2      19.058  89.939  22.3570  0.00  0.00     0.000 C
ATOM     25  O5  A00 X   2      19.618  88.692  22.8450  0.00  0.00     0.000 O
ATOM     26   O  A00 X   2      15.440  88.661  22.3820  0.00  0.00     0.000 O
ATOM     28  HD  A00 X   2      15.571  88.377  23.1890  0.00  0.00     0.000 HD
BRANCH 21 30
ATOM     28   N  A00 X   2      17.832  86.338  23.3840  0.00  0.00     0.000 N
ATOM     30  HD  A00 X   2      16.977  86.345  23.2500  0.00  0.00     0.000 HD
ATOM     30   O  A00 X   2      15.967  84.931  23.3730  0.00  0.00     0.000 OA
ATOM     31   S  A00 X   2      16.665  85.768  24.2840  0.00  0.00     0.000 S
ATOM     32   O  A00 X   2      17.351  85.080  25.3330  0.00  0.00     0.000 OA
ATOM     33   O  A00 X   2      15.949  86.892  24.8110  0.00  0.00     0.000 OA
ENDBRANCH 21 30
BRANCH 24 34
ATOM     34   C  A00 X   2      19.948  91.161  22.6820  0.00  0.00     0.000 C
ATOM     35   O  A00 X   2      22.785  91.069  24.9630  0.00  0.00     0.000 OA
ATOM     36   O  A00 X   2      20.749  90.926  23.8580  0.00  0.00     0.000 O
ATOM     37   O  A00 X   2      22.549  89.645  23.0900  0.00  0.00     0.000 OA
ATOM     38   S  A00 X   2      22.304  90.949  23.6260  0.00  0.00     0.000 S
ATOM     39   O  A00 X   2      22.571  92.075  22.7820  0.00  0.00     0.000 OA
ENDBRANCH 24 34
BRANCH 20 40
ATOM     40  O4  A00 X   3      19.130  87.736  20.7450  0.00  0.00     0.000 O
BRANCH 40 44
ATOM     41  C1  A00 X   3      20.655  89.491  17.9670  0.00  0.00     0.000 C
ATOM     42  C2  A00 X   3      19.525  88.447  17.8350  0.00  0.00     0.000 C
ATOM     43  C3  A00 X   3      19.879  87.145  18.5980  0.00  0.00     0.000 C
ATOM     44  C4  A00 X   3      20.330  87.358  20.0370  0.00  0.00     0.000 C
ATOM     45  C5  A00 X   3      21.470  88.414  20.0880  0.00  0.00     0.000 C
ATOM     46  O5  A00 X   3      21.097  89.621  19.3470  0.00  0.00     0.000 O
ATOM     47   O  A00 X   3      18.943  86.076  18.4730  0.00  0.00     0.000 O
ATOM     49  HD  A00 X   3      19.134  85.961  19.3100  0.00  0.00     0.000 HD
BRANCH 42 49
ATOM     49   O  A00 X   3      18.324  89.056  18.3580  0.00  0.00     0.000 O
ATOM     50   O  A00 X   3      16.055  88.382  18.7180  0.00  0.00     0.000 OA
ATOM     51   O  A00 X   3      17.134  87.735  16.7160  0.00  0.00     0.000 OA
ATOM     52   O  A00 X   3      16.638  90.023  17.0400  0.00  0.00     0.000 OA
ATOM     53   S  A00 X   3      16.948  88.791  17.6790  0.00  0.00     0.000 S
ENDBRANCH 42 49
BRANCH 45 54
ATOM     54   C  A00 X   3      22.812  87.823  19.6410  0.00  0.00     0.000 C
ATOM     55   O  A00 X   3      22.867  86.715  19.1480  0.00  0.00     0.000 OA
ATOM     56   O  A00 X   3      23.849  88.454  19.7740  0.00  0.00     0.000 OA
ENDBRANCH 45 54
BRANCH 41 57
ATOM     57  O4  A00 X   4      21.726  89.240  17.0290  0.00  0.00     0.000 O
BRANCH 57 61
ATOM     58  C1  A00 X   4      24.409  91.840  14.8660  0.00  0.00     0.000 C
ATOM     59  C2  A00 X   4      24.454  91.851  16.4140  0.00  0.00     0.000 C
ATOM     60  C3  A00 X   4      23.731  90.651  17.0590  0.00  0.00     0.000 C
ATOM     61  C4  A00 X   4      22.330  90.430  16.4480  0.00  0.00     0.000 C
ATOM     62  C5  A00 X   4      22.545  90.233  14.9260  0.00  0.00     0.000 C
ATOM     63  O5  A00 X   4      23.112  91.444  14.3640  0.00  0.00     0.000 O
BRANCH 59 66
ATOM     64   N  A00 X   4      23.771  93.047  16.9380  0.00  0.00     0.000 N
ATOM     66  HD  A00 X   4      23.137  93.389  16.4570  0.00  0.00     0.000 HD
ATOM     66   O  A00 X   4      25.802  94.270  16.5150  0.00  0.00     0.000 OA
ATOM     67   S  A00 X   4      24.665  94.297  17.3820  0.00  0.00     0.000 S
ATOM     68   O  A00 X   4      23.741  95.369  17.1540  0.00  0.00     0.000 OA
ATOM     69   O  A00 X   4      24.871  93.982  18.7670  0.00  0.00     0.000 OA
ENDBRANCH 59 66
BRANCH 62 70
ATOM     70   C  A00 X   4      21.254  89.886  14.1460  0.00  0.00     0.000 C
ATOM     71   O  A00 X   4      18.397  91.997  13.4470  0.00  0.00     0.000 OA
ATOM     72   O  A00 X   4      18.514  89.810  14.3120  0.00  0.00     0.000 OA
ATOM     73   O  A00 X   4      20.509  91.090  13.9020  0.00  0.00     0.000 O
ATOM     74   O  A00 X   4      19.078  91.702  15.7410  0.00  0.00     0.000 OA
ATOM     75   S  A00 X   4      19.031  91.156  14.4230  0.00  0.00     0.000 S
ENDBRANCH 62 70
ENDBRANCH 57 61
ENDBRANCH 41 57
ENDBRANCH 40 44
ENDBRANCH 20 40
ENDBRANCH 19 23
ENDBRANCH 1 19
TORSDOF 14
ENDMDL
MODEL 94
REMARK VINA RESULT:      -0.9     58.196     62.701
ROOT
ATOM      1  C1  A00 X   1      49.794  56.285  55.6680  0.00  0.00     0.000 C
ATOM      2  C2  A00 X   1      49.931  55.170  54.5970  0.00  0.00     0.000 C
ATOM      3  C3  A00 X   1      48.708  54.206  54.4480  0.00  0.00     0.000 C
ATOM      4  C4  A00 X   1      47.683  54.241  55.6110  0.00  0.00     0.000 C
ATOM      5  C5  A00 X   1      48.297  54.776  56.9050  0.00  0.00     0.000 C
ATOM      6  O5  A00 X   1      48.688  56.131  56.5930  0.00  0.00     0.000 O
ATOM      7   O  A00 X   1      49.189  52.866  54.3730  0.00  0.00     0.000 O
ATOM      9  HD  A00 X   1      48.487  52.857  54.8800  0.00  0.00     0.000 HD
ATOM      9   O  A00 X   1      46.532  55.013  55.2680  0.00  0.00     0.000 O
ATOM     11  HD  A00 X   1      45.830  55.004  55.7740  0.00  0.00     0.000 HD
ENDROOT
BRANCH 2 11
ATOM     11   O  A00 X   1      50.182  55.809  53.3300  0.00  0.00     0.000 O
ATOM     12   O  A00 X   1      50.215  54.574  51.2700  0.00  0.00     0.000 OA
ATOM     13   O  A00 X   1      51.888  54.098  52.9700  0.00  0.00     0.000 OA
ATOM     14   O  A00 X   1      51.912  56.171  51.8040  0.00  0.00     0.000 OA
ATOM     15   S  A00 X   1      51.100  55.085  52.2860  0.00  0.00     0.000 S
ENDBRANCH 2 11
BRANCH 5 16
ATOM     16   C  A00 X   1      49.434  53.926  57.4820  0.00  0.00     0.000 C
ATOM     17   O  A00 X   1      49.564  52.785  57.0880  0.00  0.00     0.000 OA
ATOM     18   O  A00 X   1      50.211  54.354  58.3120  0.00  0.00     0.000 OA
ENDBRANCH 5 16
BRANCH 1 19
ATOM     19  O4  A00 X   2      51.035  56.547  56.3680  0.00  0.00     0.000 O
BRANCH 19 23
ATOM     20  C1  A00 X   2      50.446  60.791  56.4540  0.00  0.00     0.000 C
ATOM     21  C2  A00 X   2      51.355  60.218  55.3400  0.00  0.00     0.000 C
ATOM     22  C3  A00 X   2      51.127  58.702  55.1700  0.00  0.00     0.000 C
ATOM     23  C4  A00 X   2      51.300  57.971  56.5200  0.00  0.00     0.000 C
ATOM     24  C5  A00 X   2      50.355  58.647  57.5510  0.00  0.00     0.000 C
ATOM     25  O5  A00 X   2      50.720  60.047  57.6710  0.00  0.00     0.000 O
ATOM     26   O  A00 X   2      51.940  58.232  54.0810  0.00  0.00     0.000 O
ATOM     28  HD  A00 X   2      52.658  58.606  54.3900  0.00  0.00     0.000 HD
BRANCH 21 30
ATOM     28   N  A00 X   2      52.174  61.430  55.4380  0.00  0.00     0.000 N
ATOM     30  HD  A00 X   2      52.387  61.043  54.6930  0.00  0.00     0.000 HD
ATOM     30   O  A00 X   2      53.054  61.887  53.3220  0.00  0.00     0.000 OA
ATOM     31   S  A00 X   2      53.518  61.506  54.6090  0.00  0.00     0.000 S
ATOM     32   O  A00 X   2      54.283  62.503  55.2940  0.00  0.00     0.000 OA
ATOM     33   O  A00 X   2      54.156  60.228  54.7180  0.00  0.00     0.000 OA
ENDBRANCH 21 30
BRANCH 24 34
ATOM     34   C  A00 X   2      50.166  57.959  58.9230  0.00  0.00     0.000 C
ATOM     35   O  A00 X   2      51.194  59.419  62.0960  0.00  0.00     0.000 OA
ATOM     36   O  A00 X   2      50.970  58.591  59.9390  0.00  0.00     0.000 O
ATOM     37   O  A00 X   2      49.740  60.480  60.5630  0.00  0.00     0.000 OA
ATOM     38   S  A00 X   2      50.165  59.235  61.1270  0.00  0.00     0.000 S
ATOM     39   O  A00 X   2      49.151  58.290  61.4890  0.00  0.00     0.000 OA
ENDBRANCH 24 34
BRANCH 20 40
ATOM     40  O4  A00 X   3      49.101  60.535  56.0270  0.00  0.00     0.000 O
BRANCH 40 44
ATOM     41  C1  A00 X   3      45.782  59.389  56.9200  0.00  0.00     0.000 C
ATOM     42  C2  A00 X   3      46.210  59.828  55.5030  0.00  0.00     0.000 C
ATOM     43  C3  A00 X   3      46.905  61.213  55.5370  0.00  0.00     0.000 C
ATOM     44  C4  A00 X   3      48.025  61.334  56.5630  0.00  0.00     0.000 C
ATOM     45  C5  A00 X   3      47.517  60.881  57.9610  0.00  0.00     0.000 C
ATOM     46  O5  A00 X   3      46.859  59.575  57.8800  0.00  0.00     0.000 O
ATOM     47   O  A00 X   3      47.267  61.760  54.2710  0.00  0.00     0.000 O
ATOM     49  HD  A00 X   3      47.971  62.014  54.7070  0.00  0.00     0.000 HD
BRANCH 42 49
ATOM     49   O  A00 X   3      47.093  58.806  54.9920  0.00  0.00     0.000 O
ATOM     50   O  A00 X   3      48.376  58.462  53.0000  0.00  0.00     0.000 OA
ATOM     51   O  A00 X   3      46.192  59.346  52.8120  0.00  0.00     0.000 OA
ATOM     52   O  A00 X   3      46.443  57.103  53.5120  0.00  0.00     0.000 OA
ATOM     53   S  A00 X   3      47.036  58.396  53.4920  0.00  0.00     0.000 S
ENDBRANCH 42 49
BRANCH 45 54
ATOM     54   C  A00 X   3      46.647  61.954  58.6250  0.00  0.00     0.000 C
ATOM     55   O  A00 X   3      46.278  62.927  57.9980  0.00  0.00     0.000 OA
ATOM     56   O  A00 X   3      46.310  61.852  59.7940  0.00  0.00     0.000 OA
ENDBRANCH 45 54
BRANCH 41 57
ATOM     57  O4  A00 X   4      44.533  60.000  57.3140  0.00  0.00     0.000 O
BRANCH 57 61
ATOM     58  C1  A00 X   4      41.241  58.647  59.7580  0.00  0.00     0.000 C
ATOM     59  C2  A00 X   4      42.640  58.782  60.4080  0.00  0.00     0.000 C
ATOM     60  C3  A00 X   4      43.636  59.600  59.5600  0.00  0.00     0.000 C
ATOM     61  C4  A00 X   4      43.642  59.145  58.0850  0.00  0.00     0.000 C
ATOM     62  C5  A00 X   4      42.186  59.290  57.5780  0.00  0.00     0.000 C
ATOM     63  O5  A00 X   4      41.326  58.401  58.3350  0.00  0.00     0.000 O
BRANCH 59 66
ATOM     64   N  A00 X   4      43.259  57.454  60.5670  0.00  0.00     0.000 N
ATOM     66  HD  A00 X   4      43.026  56.835  60.0070  0.00  0.00     0.000 HD
ATOM     66   O  A00 X   4      41.959  57.199  62.5780  0.00  0.00     0.000 OA
ATOM     67   S  A00 X   4      43.189  56.752  62.0020  0.00  0.00     0.000 S
ATOM     68   O  A00 X   4      43.224  55.371  61.6170  0.00  0.00     0.000 OA
ATOM     69   O  A00 X   4      44.412  57.233  62.5790  0.00  0.00     0.000 OA
ENDBRANCH 59 66
BRANCH 62 70
ATOM     70   C  A00 X   4      42.008  58.982  56.0720  0.00  0.00     0.000 C
ATOM     71   O  A00 X   4      42.242  55.793  54.3740  0.00  0.00     0.000 OA
ATOM     72   O  A00 X   4      43.228  57.872  53.8750  0.00  0.00     0.000 OA
ATOM     73   O  A00 X   4      41.941  57.559  55.8840  0.00  0.00     0.000 O
ATOM     74   O  A00 X   4      44.112  56.529  55.7060  0.00  0.00     0.000 OA
ATOM     75   S  A00 X   4      42.983  56.897  54.9150  0.00  0.00     0.000 S
ENDBRANCH 62 70
ENDBRANCH 57 61
ENDBRANCH 41 57
ENDBRANCH 40 44
ENDBRANCH 20 40
ENDBRANCH 19 23
ENDBRANCH 1 19
TORSDOF 14
ENDMDL
MODEL 95
REMARK VINA RESULT:      -0.9     71.411     75.879
ROOT
ATOM      1  C1  A00 X   1      53.630  16.784  84.6960  0.00  0.00     0.000 C
ATOM      2  C2  A00 X   1      52.474  15.749  84.6620  0.00  0.00     0.000 C
ATOM      3  C3  A00 X   1      52.668  14.473  85.5460  0.00  0.00     0.000 C
ATOM      4  C4  A00 X   1      54.113  14.220  86.0460  0.00  0.00     0.000 C
ATOM      5  C5  A00 X   1      55.157  14.916  85.1730  0.00  0.00     0.000 C
ATOM      6  O5  A00 X   1      54.864  16.325  85.3030  0.00  0.00     0.000 O
ATOM      7   O  A00 X   1      52.297  13.328  84.7820  0.00  0.00     0.000 O
ATOM      9  HD  A00 X   1      53.014  13.120  85.2220  0.00  0.00     0.000 HD
ATOM      9   O  A00 X   1      54.273  14.625  87.4050  0.00  0.00     0.000 O
ATOM     11  HD  A00 X   1      54.990  14.418  87.8450  0.00  0.00     0.000 HD
ENDROOT
BRANCH 2 11
ATOM     11   O  A00 X   1      51.269  16.425  85.0720  0.00  0.00     0.000 O
ATOM     12   O  A00 X   1      49.209  15.244  85.4260  0.00  0.00     0.000 OA
ATOM     13   O  A00 X   1      50.176  15.306  83.1960  0.00  0.00     0.000 OA
ATOM     14   O  A00 X   1      49.289  17.281  84.1790  0.00  0.00     0.000 OA
ATOM     15   S  A00 X   1      49.906  16.005  84.4210  0.00  0.00     0.000 S
ENDBRANCH 2 11
BRANCH 5 16
ATOM     16   C  A00 X   1      55.212  14.433  83.7200  0.00  0.00     0.000 C
ATOM     17   O  A00 X   1      54.690  13.373  83.4390  0.00  0.00     0.000 OA
ATOM     18   O  A00 X   1      55.751  15.074  82.8400  0.00  0.00     0.000 OA
ENDBRANCH 5 16
BRANCH 1 19
ATOM     19  O4  A00 X   2      53.873  17.397  83.4060  0.00  0.00     0.000 O
BRANCH 19 23
ATOM     20  C1  A00 X   2      54.589  21.291  85.0460  0.00  0.00     0.000 C
ATOM     21  C2  A00 X   2      53.175  20.999  84.4890  0.00  0.00     0.000 C
ATOM     22  C3  A00 X   2      52.944  19.480  84.3440  0.00  0.00     0.000 C
ATOM     23  C4  A00 X   2      54.066  18.837  83.4990  0.00  0.00     0.000 C
ATOM     24  C5  A00 X   2      55.425  19.217  84.1470  0.00  0.00     0.000 C
ATOM     25  O5  A00 X   2      55.551  20.663  84.1560  0.00  0.00     0.000 O
ATOM     26   O  A00 X   2      51.597  19.260  83.8900  0.00  0.00     0.000 O
ATOM     28  HD  A00 X   2      51.670  19.826  83.2390  0.00  0.00     0.000 HD
BRANCH 21 30
ATOM     28   N  A00 X   2      53.101  22.396  84.0490  0.00  0.00     0.000 N
ATOM     30  HD  A00 X   2      52.293  22.083  84.0290  0.00  0.00     0.000 HD
ATOM     30   O  A00 X   2      50.869  23.077  84.1640  0.00  0.00     0.000 OA
ATOM     31   S  A00 X   2      51.864  22.852  83.1760  0.00  0.00     0.000 S
ATOM     32   O  A00 X   2      52.334  24.029  82.5130  0.00  0.00     0.000 OA
ATOM     33   O  A00 X   2      51.612  21.812  82.2240  0.00  0.00     0.000 OA
ENDBRANCH 21 30
BRANCH 24 34
ATOM     34   C  A00 X   2      56.700  18.510  83.6270  0.00  0.00     0.000 C
ATOM     35   O  A00 X   2      57.799  18.578  80.1570  0.00  0.00     0.000 OA
ATOM     36   O  A00 X   2      56.691  18.408  82.1890  0.00  0.00     0.000 O
ATOM     37   O  A00 X   2      57.391  20.514  81.4520  0.00  0.00     0.000 OA
ATOM     38   S  A00 X   2      57.860  19.162  81.4560  0.00  0.00     0.000 S
ATOM     39   O  A00 X   2      59.053  18.876  82.1950  0.00  0.00     0.000 OA
ENDBRANCH 24 34
BRANCH 20 40
ATOM     40  O4  A00 X   3      54.638  20.654  86.3310  0.00  0.00     0.000 O
BRANCH 40 44
ATOM     41  C1  A00 X   3      56.495  18.629  88.6920  0.00  0.00     0.000 C
ATOM     42  C2  A00 X   3      55.067  19.168  88.9270  0.00  0.00     0.000 C
ATOM     43  C3  A00 X   3      54.997  20.692  88.6530  0.00  0.00     0.000 C
ATOM     44  C4  A00 X   3      55.586  21.123  87.3150  0.00  0.00     0.000 C
ATOM     45  C5  A00 X   3      57.021  20.547  87.1550  0.00  0.00     0.000 C
ATOM     46  O5  A00 X   3      57.042  19.109  87.4330  0.00  0.00     0.000 O
ATOM     47   O  A00 X   3      53.743  21.317  88.9210  0.00  0.00     0.000 O
ATOM     49  HD  A00 X   3      53.936  21.757  88.2010  0.00  0.00     0.000 HD
BRANCH 42 49
ATOM     49   O  A00 X   3      54.187  18.433  88.0480  0.00  0.00     0.000 O
ATOM     50   O  A00 X   3      51.851  18.449  87.5250  0.00  0.00     0.000 OA
ATOM     51   O  A00 X   3      52.517  18.678  89.7820  0.00  0.00     0.000 OA
ATOM     52   O  A00 X   3      52.872  16.603  88.7080  0.00  0.00     0.000 OA
ATOM     53   S  A00 X   3      52.769  18.010  88.5300  0.00  0.00     0.000 S
ENDBRANCH 42 49
BRANCH 45 54
ATOM     54   C  A00 X   3      58.044  21.336  87.9810  0.00  0.00     0.000 C
ATOM     55   O  A00 X   3      59.235  21.155  87.8280  0.00  0.00     0.000 OA
ATOM     56   O  A00 X   3      57.680  22.158  88.8080  0.00  0.00     0.000 OA
ENDBRANCH 45 54
BRANCH 41 57
ATOM     57  O4  A00 X   4      57.350  18.867  89.8330  0.00  0.00     0.000 O
BRANCH 57 61
ATOM     58  C1  A00 X   4      60.681  16.697  91.5140  0.00  0.00     0.000 C
ATOM     59  C2  A00 X   4      60.809  17.251  90.0740  0.00  0.00     0.000 C
ATOM     60  C3  A00 X   4      59.731  18.295  89.7190  0.00  0.00     0.000 C
ATOM     61  C4  A00 X   4      58.317  17.815  90.1110  0.00  0.00     0.000 C
ATOM     62  C5  A00 X   4      58.363  17.517  91.6300  0.00  0.00     0.000 C
ATOM     63  O5  A00 X   4      59.305  16.442  91.8770  0.00  0.00     0.000 O
BRANCH 59 66
ATOM     64   N  A00 X   4      60.637  16.155  89.1040  0.00  0.00     0.000 N
ATOM     66  HD  A00 X   4      60.153  15.479  89.3460  0.00  0.00     0.000 HD
ATOM     66   O  A00 X   4      62.955  15.608  89.4620  0.00  0.00     0.000 OA
ATOM     67   S  A00 X   4      61.946  15.506  88.4540  0.00  0.00     0.000 S
ATOM     68   O  A00 X   4      61.472  14.179  88.1870  0.00  0.00     0.000 OA
ATOM     69   O  A00 X   4      62.083  16.328  87.2850  0.00  0.00     0.000 OA
ENDBRANCH 59 66
BRANCH 62 70
ATOM     70   C  A00 X   4      56.996  17.123  92.2390  0.00  0.00     0.000 C
ATOM     71   O  A00 X   4      55.067  14.107  91.7020  0.00  0.00     0.000 OA
ATOM     72   O  A00 X   4      54.428  16.372  91.6230  0.00  0.00     0.000 OA
ATOM     73   O  A00 X   4      56.727  15.743  91.9460  0.00  0.00     0.000 O
ATOM     74   O  A00 X   4      55.712  15.418  89.7850  0.00  0.00     0.000 OA
ATOM     75   S  A00 X   4      55.403  15.401  91.1780  0.00  0.00     0.000 S
ENDBRANCH 62 70
ENDBRANCH 57 61
ENDBRANCH 41 57
ENDBRANCH 40 44
ENDBRANCH 20 40
ENDBRANCH 19 23
ENDBRANCH 1 19
TORSDOF 14
ENDMDL
MODEL 96
REMARK VINA RESULT:      -0.9     66.476     71.690
ROOT
ATOM      1  C1  A00 X   1      89.609  38.118  47.1520  0.00  0.00     0.000 C
ATOM      2  C2  A00 X   1      90.704  38.591  46.1590  0.00  0.00     0.000 C
ATOM      3  C3  A00 X   1      90.689  37.919  44.7470  0.00  0.00     0.000 C
ATOM      4  C4  A00 X   1      89.841  36.626  44.6310  0.00  0.00     0.000 C
ATOM      5  C5  A00 X   1      89.627  35.953  45.9870  0.00  0.00     0.000 C
ATOM      6  O5  A00 X   1      88.889  36.921  46.7660  0.00  0.00     0.000 O
ATOM      7   O  A00 X   1      92.024  37.560  44.3970  0.00  0.00     0.000 O
ATOM      9  HD  A00 X   1      91.511  36.906  44.1530  0.00  0.00     0.000 HD
ATOM      9   O  A00 X   1      88.578  36.884  44.0170  0.00  0.00     0.000 O
ATOM     11  HD  A00 X   1      88.066  36.230  43.7730  0.00  0.00     0.000 HD
ENDROOT
BRANCH 2 11
ATOM     11   O  A00 X   1      90.567  40.017  46.0010  0.00  0.00     0.000 O
ATOM     12   O  A00 X   1      91.824  41.240  44.3620  0.00  0.00     0.000 OA
ATOM     13   O  A00 X   1      93.001  40.125  46.1750  0.00  0.00     0.000 OA
ATOM     14   O  A00 X   1      91.618  42.009  46.6150  0.00  0.00     0.000 OA
ATOM     15   S  A00 X   1      91.852  40.880  45.7560  0.00  0.00     0.000 S
ENDBRANCH 2 11
BRANCH 5 16
ATOM     16   C  A00 X   1      90.905  35.459  46.6730  0.00  0.00     0.000 C
ATOM     17   O  A00 X   1      91.910  35.330  46.0060  0.00  0.00     0.000 OA
ATOM     18   O  A00 X   1      90.949  35.200  47.8590  0.00  0.00     0.000 OA
ENDBRANCH 5 16
BRANCH 1 19
ATOM     19  O4  A00 X   2      90.088  38.030  48.5160  0.00  0.00     0.000 O
BRANCH 19 23
ATOM     20  C1  A00 X   2      86.475  39.591  50.2130  0.00  0.00     0.000 C
ATOM     21  C2  A00 X   2      87.649  40.578  49.9990  0.00  0.00     0.000 C
ATOM     22  C3  A00 X   2      88.682  39.996  49.0120  0.00  0.00     0.000 C
ATOM     23  C4  A00 X   2      89.150  38.598  49.4750  0.00  0.00     0.000 C
ATOM     24  C5  A00 X   2      87.887  37.715  49.6700  0.00  0.00     0.000 C
ATOM     25  O5  A00 X   2      87.036  38.332  50.6710  0.00  0.00     0.000 O
ATOM     26   O  A00 X   2      89.714  40.975  48.7950  0.00  0.00     0.000 O
ATOM     28  HD  A00 X   2      89.838  41.105  49.6420  0.00  0.00     0.000 HD
BRANCH 21 30
ATOM     28   N  A00 X   2      87.232  41.278  51.2180  0.00  0.00     0.000 N
ATOM     30  HD  A00 X   2      87.769  41.809  50.7950  0.00  0.00     0.000 HD
ATOM     30   O  A00 X   2      87.750  43.543  50.9680  0.00  0.00     0.000 OA
ATOM     31   S  A00 X   2      88.146  42.442  51.7730  0.00  0.00     0.000 S
ATOM     32   O  A00 X   2      87.774  42.537  53.1510  0.00  0.00     0.000 OA
ATOM     33   O  A00 X   2      89.506  42.007  51.6550  0.00  0.00     0.000 OA
ENDBRANCH 21 30
BRANCH 24 34
ATOM     34   C  A00 X   2      88.091  36.201  49.9100  0.00  0.00     0.000 C
ATOM     35   O  A00 X   2      90.043  34.813  52.6520  0.00  0.00     0.000 OA
ATOM     36   O  A00 X   2      89.174  35.958  50.8300  0.00  0.00     0.000 O
ATOM     37   O  A00 X   2      88.233  36.307  52.9420  0.00  0.00     0.000 OA
ATOM     38   S  A00 X   2      88.770  35.233  52.1650  0.00  0.00     0.000 S
ATOM     39   O  A00 X   2      87.882  34.171  51.7970  0.00  0.00     0.000 OA
ENDBRANCH 24 34
BRANCH 20 40
ATOM     40  O4  A00 X   3      85.881  39.409  48.9190  0.00  0.00     0.000 O
BRANCH 40 44
ATOM     41  C1  A00 X   3      84.547  37.093  46.4740  0.00  0.00     0.000 C
ATOM     42  C2  A00 X   3      84.672  38.617  46.2650  0.00  0.00     0.000 C
ATOM     43  C3  A00 X   3      84.046  39.394  47.4520  0.00  0.00     0.000 C
ATOM     44  C4  A00 X   3      84.520  38.938  48.8270  0.00  0.00     0.000 C
ATOM     45  C5  A00 X   3      84.358  37.398  48.9620  0.00  0.00     0.000 C
ATOM     46  O5  A00 X   3      84.953  36.707  47.8160  0.00  0.00     0.000 O
ATOM     47   O  A00 X   3      84.027  40.814  47.3270  0.00  0.00     0.000 O
ATOM     49  HD  A00 X   3      84.217  40.779  48.1710  0.00  0.00     0.000 HD
BRANCH 42 49
ATOM     49   O  A00 X   3      86.079  38.911  46.1260  0.00  0.00     0.000 O
ATOM     50   O  A00 X   3      87.420  40.875  45.8500  0.00  0.00     0.000 OA
ATOM     51   O  A00 X   3      85.393  40.700  44.6470  0.00  0.00     0.000 OA
ATOM     52   O  A00 X   3      87.171  39.253  44.0750  0.00  0.00     0.000 OA
ATOM     53   S  A00 X   3      86.560  39.998  45.1200  0.00  0.00     0.000 S
ENDBRANCH 42 49
BRANCH 45 54
ATOM     54   C  A00 X   3      82.899  37.000  49.2140  0.00  0.00     0.000 C
ATOM     55   O  A00 X   3      82.613  35.864  49.5310  0.00  0.00     0.000 OA
ATOM     56   O  A00 X   3      81.999  37.818  49.1000  0.00  0.00     0.000 OA
ENDBRANCH 45 54
BRANCH 41 57
ATOM     57  O4  A00 X   4      83.240  36.607  46.0940  0.00  0.00     0.000 O
BRANCH 57 61
ATOM     58  C1  A00 X   4      81.871  32.895  44.3680  0.00  0.00     0.000 C
ATOM     59  C2  A00 X   4      82.560  32.858  45.7540  0.00  0.00     0.000 C
ATOM     60  C3  A00 X   4      82.676  34.244  46.4210  0.00  0.00     0.000 C
ATOM     61  C4  A00 X   4      83.229  35.304  45.4450  0.00  0.00     0.000 C
ATOM     62  C5  A00 X   4      82.270  35.320  44.2290  0.00  0.00     0.000 C
ATOM     63  O5  A00 X   4      82.305  34.025  43.5770  0.00  0.00     0.000 O
BRANCH 59 66
ATOM     64   N  A00 X   4      83.944  32.369  45.6120  0.00  0.00     0.000 N
ATOM     66  HD  A00 X   4      84.341  32.507  44.8550  0.00  0.00     0.000 HD
ATOM     66   O  A00 X   4      83.048  30.134  45.6150  0.00  0.00     0.000 OA
ATOM     67   S  A00 X   4      84.244  30.836  45.9580  0.00  0.00     0.000 S
ATOM     68   O  A00 X   4      85.369  30.595  45.1010  0.00  0.00     0.000 OA
ATOM     69   O  A00 X   4      84.579  30.951  47.3490  0.00  0.00     0.000 OA
ENDBRANCH 59 66
BRANCH 62 70
ATOM     70   C  A00 X   4      82.598  36.408  43.1780  0.00  0.00     0.000 C
ATOM     71   O  A00 X   4      85.434  36.605  40.9370  0.00  0.00     0.000 OA
ATOM     72   O  A00 X   4      84.504  38.217  42.3790  0.00  0.00     0.000 OA
ATOM     73   O  A00 X   4      83.681  35.957  42.3500  0.00  0.00     0.000 O
ATOM     74   O  A00 X   4      85.848  36.406  43.3040  0.00  0.00     0.000 OA
ATOM     75   S  A00 X   4      84.967  36.851  42.2720  0.00  0.00     0.000 S
ENDBRANCH 62 70
ENDBRANCH 57 61
ENDBRANCH 41 57
ENDBRANCH 40 44
ENDBRANCH 20 40
ENDBRANCH 19 23
ENDBRANCH 1 19
TORSDOF 14
ENDMDL
MODEL 97
REMARK VINA RESULT:      -0.9     64.844     69.751
ROOT
ATOM      1  C1  A00 X   1      87.820  39.521  45.8670  0.00  0.00     0.000 C
ATOM      2  C2  A00 X   1      89.317  39.678  45.4920  0.00  0.00     0.000 C
ATOM      3  C3  A00 X   1      90.047  38.377  45.0210  0.00  0.00     0.000 C
ATOM      4  C4  A00 X   1      89.312  37.048  45.3320  0.00  0.00     0.000 C
ATOM      5  C5  A00 X   1      88.319  37.194  46.4850  0.00  0.00     0.000 C
ATOM      6  O5  A00 X   1      87.350  38.158  46.0150  0.00  0.00     0.000 O
ATOM      7   O  A00 X   1      91.313  38.301  45.6730  0.00  0.00     0.000 O
ATOM      9  HD  A00 X   1      90.977  37.503  45.6750  0.00  0.00     0.000 HD
ATOM      9   O  A00 X   1      88.641  36.540  44.1790  0.00  0.00     0.000 O
ATOM     11  HD  A00 X   1      88.305  35.742  44.1810  0.00  0.00     0.000 HD
ENDROOT
BRANCH 2 11
ATOM     11   O  A00 X   1      89.407  40.669  44.4500  0.00  0.00     0.000 O
ATOM     12   O  A00 X   1      91.519  41.416  43.5860  0.00  0.00     0.000 OA
ATOM     13   O  A00 X   1      90.963  41.856  45.9130  0.00  0.00     0.000 OA
ATOM     14   O  A00 X   1      89.784  42.955  44.1630  0.00  0.00     0.000 OA
ATOM     15   S  A00 X   1      90.511  41.777  44.5510  0.00  0.00     0.000 S
ENDBRANCH 2 11
BRANCH 5 16
ATOM     16   C  A00 X   1      88.943  37.560  47.8360  0.00  0.00     0.000 C
ATOM     17   O  A00 X   1      90.137  37.402  47.9860  0.00  0.00     0.000 OA
ATOM     18   O  A00 X   1      88.289  38.009  48.7560  0.00  0.00     0.000 OA
ENDBRANCH 5 16
BRANCH 1 19
ATOM     19  O4  A00 X   2      87.437  40.337  47.0020  0.00  0.00     0.000 O
BRANCH 19 23
ATOM     20  C1  A00 X   2      83.548  41.230  45.4390  0.00  0.00     0.000 C
ATOM     21  C2  A00 X   2      84.661  42.286  45.2310  0.00  0.00     0.000 C
ATOM     22  C3  A00 X   2      86.056  41.662  45.4450  0.00  0.00     0.000 C
ATOM     23  C4  A00 X   2      86.137  40.968  46.8230  0.00  0.00     0.000 C
ATOM     24  C5  A00 X   2      84.964  39.954  46.9130  0.00  0.00     0.000 C
ATOM     25  O5  A00 X   2      83.712  40.673  46.7700  0.00  0.00     0.000 O
ATOM     26   O  A00 X   2      87.054  42.662  45.1750  0.00  0.00     0.000 O
ATOM     28  HD  A00 X   2      86.677  43.249  45.6870  0.00  0.00     0.000 HD
BRANCH 21 30
ATOM     28   N  A00 X   2      83.643  43.331  45.3750  0.00  0.00     0.000 N
ATOM     30  HD  A00 X   2      84.341  43.707  45.0240  0.00  0.00     0.000 HD
ATOM     30   O  A00 X   2      84.274  45.147  44.0480  0.00  0.00     0.000 OA
ATOM     31   S  A00 X   2      84.109  44.841  45.4240  0.00  0.00     0.000 S
ATOM     32   O  A00 X   2      83.020  45.511  46.0650  0.00  0.00     0.000 OA
ATOM     33   O  A00 X   2      85.281  44.896  46.2470  0.00  0.00     0.000 OA
ENDBRANCH 21 30
BRANCH 24 34
ATOM     34   C  A00 X   2      84.951  38.962  48.1000  0.00  0.00     0.000 C
ATOM     35   O  A00 X   2      82.337  38.845  50.6320  0.00  0.00     0.000 OA
ATOM     36   O  A00 X   2      84.011  39.373  49.1130  0.00  0.00     0.000 O
ATOM     37   O  A00 X   2      81.937  38.650  48.3090  0.00  0.00     0.000 OA
ATOM     38   S  A00 X   2      82.836  38.364  49.3850  0.00  0.00     0.000 S
ATOM     39   O  A00 X   2      83.424  37.059  49.4290  0.00  0.00     0.000 OA
ENDBRANCH 24 34
BRANCH 20 40
ATOM     40  O4  A00 X   3      83.794  40.210  44.4590  0.00  0.00     0.000 O
BRANCH 40 44
ATOM     41  C1  A00 X   3      83.965  36.681  43.6610  0.00  0.00     0.000 C
ATOM     42  C2  A00 X   3      84.270  37.823  42.6680  0.00  0.00     0.000 C
ATOM     43  C3  A00 X   3      83.123  38.866  42.6530  0.00  0.00     0.000 C
ATOM     44  C4  A00 X   3      82.703  39.367  44.0290  0.00  0.00     0.000 C
ATOM     45  C5  A00 X   3      82.409  38.162  44.9670  0.00  0.00     0.000 C
ATOM     46  O5  A00 X   3      83.513  37.199  44.9430  0.00  0.00     0.000 O
ATOM     47   O  A00 X   3      83.256  39.925  41.7060  0.00  0.00     0.000 O
ATOM     49  HD  A00 X   3      82.929  40.395  42.3560  0.00  0.00     0.000 HD
BRANCH 42 49
ATOM     49   O  A00 X   3      85.520  38.419  43.0800  0.00  0.00     0.000 O
ATOM     50   O  A00 X   3      86.883  40.252  42.3650  0.00  0.00     0.000 OA
ATOM     51   O  A00 X   3      85.896  38.859  40.7300  0.00  0.00     0.000 OA
ATOM     52   O  A00 X   3      87.602  37.959  42.0970  0.00  0.00     0.000 OA
ATOM     53   S  A00 X   3      86.546  38.908  42.0170  0.00  0.00     0.000 S
ENDBRANCH 42 49
BRANCH 45 54
ATOM     54   C  A00 X   3      81.047  37.527  44.6640  0.00  0.00     0.000 C
ATOM     55   O  A00 X   3      80.585  36.675  45.3960  0.00  0.00     0.000 OA
ATOM     56   O  A00 X   3      80.404  37.864  43.6830  0.00  0.00     0.000 OA
ENDBRANCH 45 54
BRANCH 41 57
ATOM     57  O4  A00 X   4      83.083  35.693  43.0830  0.00  0.00     0.000 O
BRANCH 57 61
ATOM     58  C1  A00 X   4      82.758  31.413  43.5460  0.00  0.00     0.000 C
ATOM     59  C2  A00 X   4      82.535  32.311  44.7880  0.00  0.00     0.000 C
ATOM     60  C3  A00 X   4      82.319  33.798  44.4390  0.00  0.00     0.000 C
ATOM     61  C4  A00 X   4      83.379  34.313  43.4430  0.00  0.00     0.000 C
ATOM     62  C5  A00 X   4      83.283  33.402  42.1940  0.00  0.00     0.000 C
ATOM     63  O5  A00 X   4      83.620  32.041  42.5700  0.00  0.00     0.000 O
BRANCH 59 66
ATOM     64   N  A00 X   4      83.722  32.283  45.6620  0.00  0.00     0.000 N
ATOM     66  HD  A00 X   4      84.489  32.130  45.2900  0.00  0.00     0.000 HD
ATOM     66   O  A00 X   4      82.882  30.214  46.5650  0.00  0.00     0.000 OA
ATOM     67   S  A00 X   4      83.694  31.328  46.9450  0.00  0.00     0.000 S
ATOM     68   O  A00 X   4      85.093  31.050  47.0900  0.00  0.00     0.000 OA
ATOM     69   O  A00 X   4      83.170  32.236  47.9250  0.00  0.00     0.000 OA
ENDBRANCH 59 66
BRANCH 62 70
ATOM     70   C  A00 X   4      84.203  33.831  41.0260  0.00  0.00     0.000 C
ATOM     71   O  A00 X   4      87.814  33.684  40.8190  0.00  0.00     0.000 OA
ATOM     72   O  A00 X   4      86.320  35.442  40.3460  0.00  0.00     0.000 OA
ATOM     73   O  A00 X   4      85.539  33.367  41.2780  0.00  0.00     0.000 O
ATOM     74   O  A00 X   4      86.813  34.871  42.6630  0.00  0.00     0.000 OA
ATOM     75   S  A00 X   4      86.691  34.430  41.3110  0.00  0.00     0.000 S
ENDBRANCH 62 70
ENDBRANCH 57 61
ENDBRANCH 41 57
ENDBRANCH 40 44
ENDBRANCH 20 40
ENDBRANCH 19 23
ENDBRANCH 1 19
TORSDOF 14
ENDMDL
MODEL 98
REMARK VINA RESULT:      -0.9     58.753     62.718
ROOT
ATOM      1  C1  A00 X   1      38.404  55.490  62.1280  0.00  0.00     0.000 C
ATOM      2  C2  A00 X   1      37.701  55.522  60.7450  0.00  0.00     0.000 C
ATOM      3  C3  A00 X   1      38.624  55.304  59.5000  0.00  0.00     0.000 C
ATOM      4  C4  A00 X   1      40.145  55.450  59.7610  0.00  0.00     0.000 C
ATOM      5  C5  A00 X   1      40.439  56.291  61.0030  0.00  0.00     0.000 C
ATOM      6  O5  A00 X   1      39.852  55.550  62.0960  0.00  0.00     0.000 O
ATOM      7   O  A00 X   1      38.289  56.272  58.5080  0.00  0.00     0.000 O
ATOM      9  HD  A00 X   1      39.153  56.209  58.5220  0.00  0.00     0.000 HD
ATOM      9   O  A00 X   1      40.778  54.177  59.8800  0.00  0.00     0.000 O
ATOM     11  HD  A00 X   1      41.642  54.114  59.8940  0.00  0.00     0.000 HD
ENDROOT
BRANCH 2 11
ATOM     11   O  A00 X   1      36.675  54.511  60.7500  0.00  0.00     0.000 O
ATOM     12   O  A00 X   1      35.465  53.918  58.7620  0.00  0.00     0.000 OA
ATOM     13   O  A00 X   1      35.242  56.166  59.6640  0.00  0.00     0.000 OA
ATOM     14   O  A00 X   1      34.351  54.301  60.8420  0.00  0.00     0.000 OA
ATOM     15   S  A00 X   1      35.363  54.758  59.9280  0.00  0.00     0.000 S
ENDBRANCH 2 11
BRANCH 5 16
ATOM     16   C  A00 X   1      39.967  57.747  60.9270  0.00  0.00     0.000 C
ATOM     17   O  A00 X   1      39.709  58.217  59.8380  0.00  0.00     0.000 OA
ATOM     18   O  A00 X   1      39.837  58.442  61.9140  0.00  0.00     0.000 OA
ENDBRANCH 5 16
BRANCH 1 19
ATOM     19  O4  A00 X   2      37.856  56.454  63.0590  0.00  0.00     0.000 O
BRANCH 19 23
ATOM     20  C1  A00 X   2      38.127  53.819  66.4270  0.00  0.00     0.000 C
ATOM     21  C2  A00 X   2      36.757  53.929  65.7150  0.00  0.00     0.000 C
ATOM     22  C3  A00 X   2      36.917  54.546  64.3100  0.00  0.00     0.000 C
ATOM     23  C4  A00 X   2      37.662  55.898  64.3910  0.00  0.00     0.000 C
ATOM     24  C5  A00 X   2      39.002  55.657  65.1380  0.00  0.00     0.000 C
ATOM     25  O5  A00 X   2      38.712  55.148  66.4660  0.00  0.00     0.000 O
ATOM     26   O  A00 X   2      35.632  54.564  63.6650  0.00  0.00     0.000 O
ATOM     28  HD  A00 X   2      35.241  54.937  64.3420  0.00  0.00     0.000 HD
BRANCH 21 30
ATOM     28   N  A00 X   2      36.106  53.761  67.0180  0.00  0.00     0.000 N
ATOM     30  HD  A00 X   2      35.501  53.620  66.4150  0.00  0.00     0.000 HD
ATOM     30   O  A00 X   2      34.081  52.646  66.6800  0.00  0.00     0.000 OA
ATOM     31   S  A00 X   2      34.536  53.921  67.1070  0.00  0.00     0.000 S
ATOM     32   O  A00 X   2      34.304  54.214  68.4880  0.00  0.00     0.000 OA
ATOM     33   O  A00 X   2      34.178  55.045  66.2940  0.00  0.00     0.000 OA
ENDBRANCH 21 30
BRANCH 24 34
ATOM     34   C  A00 X   2      40.041  56.803  65.1520  0.00  0.00     0.000 C
ATOM     35   O  A00 X   2      41.157  58.509  68.1690  0.00  0.00     0.000 OA
ATOM     36   O  A00 X   2      40.021  57.511  66.4080  0.00  0.00     0.000 O
ATOM     37   O  A00 X   2      41.278  56.169  67.8530  0.00  0.00     0.000 OA
ATOM     38   S  A00 X   2      41.360  57.455  67.2310  0.00  0.00     0.000 S
ATOM     39   O  A00 X   2      42.421  57.672  66.2940  0.00  0.00     0.000 OA
ENDBRANCH 24 34
BRANCH 20 40
ATOM     40  O4  A00 X   3      38.929  52.966  65.5970  0.00  0.00     0.000 O
BRANCH 40 44
ATOM     41  C1  A00 X   3      42.143  52.346  64.0450  0.00  0.00     0.000 C
ATOM     42  C2  A00 X   3      40.896  51.452  63.8730  0.00  0.00     0.000 C
ATOM     43  C3  A00 X   3      40.285  51.080  65.2490  0.00  0.00     0.000 C
ATOM     44  C4  A00 X   3      40.048  52.264  66.1780  0.00  0.00     0.000 C
ATOM     45  C5  A00 X   3      41.347  53.110  66.3040  0.00  0.00     0.000 C
ATOM     46  O5  A00 X   3      41.893  53.429  64.9830  0.00  0.00     0.000 O
ATOM     47   O  A00 X   3      39.177  50.184  65.2160  0.00  0.00     0.000 O
ATOM     49  HD  A00 X   3      38.886  50.699  65.8490  0.00  0.00     0.000 HD
BRANCH 42 49
ATOM     49   O  A00 X   3      39.956  52.190  63.0610  0.00  0.00     0.000 O
ATOM     50   O  A00 X   3      37.731  51.849  62.2450  0.00  0.00     0.000 OA
ATOM     51   O  A00 X   3      39.248  50.036  62.2140  0.00  0.00     0.000 OA
ATOM     52   O  A00 X   3      39.638  51.856  60.7580  0.00  0.00     0.000 OA
ATOM     53   S  A00 X   3      39.083  51.452  62.0040  0.00  0.00     0.000 S
ENDBRANCH 42 49
BRANCH 45 54
ATOM     54   C  A00 X   3      42.368  52.446  67.2350  0.00  0.00     0.000 C
ATOM     55   O  A00 X   3      42.180  51.326  67.6620  0.00  0.00     0.000 OA
ATOM     56   O  A00 X   3      43.388  53.032  67.5640  0.00  0.00     0.000 OA
ENDBRANCH 45 54
BRANCH 41 57
ATOM     57  O4  A00 X   4      43.321  51.566  64.3500  0.00  0.00     0.000 O
BRANCH 57 61
ATOM     58  C1  A00 X   4      47.494  52.025  63.3410  0.00  0.00     0.000 C
ATOM     59  C2  A00 X   4      46.812  53.123  64.1950  0.00  0.00     0.000 C
ATOM     60  C3  A00 X   4      45.456  52.688  64.7870  0.00  0.00     0.000 C
ATOM     61  C4  A00 X   4      44.550  52.032  63.7240  0.00  0.00     0.000 C
ATOM     62  C5  A00 X   4      45.348  50.834  63.1510  0.00  0.00     0.000 C
ATOM     63  O5  A00 X   4      46.547  51.326  62.5010  0.00  0.00     0.000 O
BRANCH 59 66
ATOM     64   N  A00 X   4      46.514  54.309  63.3720  0.00  0.00     0.000 N
ATOM     66  HD  A00 X   4      46.376  54.185  62.5270  0.00  0.00     0.000 HD
ATOM     66   O  A00 X   4      48.807  54.978  63.6860  0.00  0.00     0.000 OA
ATOM     67   S  A00 X   4      47.520  55.551  63.4430  0.00  0.00     0.000 S
ATOM     68   O  A00 X   4      47.331  56.111  62.1360  0.00  0.00     0.000 OA
ATOM     69   O  A00 X   4      46.913  56.309  64.5010  0.00  0.00     0.000 OA
ENDBRANCH 59 66
BRANCH 62 70
ATOM     70   C  A00 X   4      44.556  49.974  62.1370  0.00  0.00     0.000 C
ATOM     71   O  A00 X   4      43.524  50.824  58.7720  0.00  0.00     0.000 OA
ATOM     72   O  A00 X   4      42.304  49.909  60.5660  0.00  0.00     0.000 OA
ATOM     73   O  A00 X   4      44.587  50.610  60.8490  0.00  0.00     0.000 O
ATOM     74   O  A00 X   4      42.870  52.279  60.5800  0.00  0.00     0.000 OA
ATOM     75   S  A00 X   4      43.217  50.957  60.1690  0.00  0.00     0.000 S
ENDBRANCH 62 70
ENDBRANCH 57 61
ENDBRANCH 41 57
ENDBRANCH 40 44
ENDBRANCH 20 40
ENDBRANCH 19 23
ENDBRANCH 1 19
TORSDOF 14
ENDMDL
MODEL 99
REMARK VINA RESULT:      -0.9     71.102     75.958
ROOT
ATOM      1  C1  A00 X   1      56.694  10.196  84.0460  0.00  0.00     0.000 C
ATOM      2  C2  A00 X   1      55.806  11.426  83.7160  0.00  0.00     0.000 C
ATOM      3  C3  A00 X   1      56.272  12.792  84.3180  0.00  0.00     0.000 C
ATOM      4  C4  A00 X   1      57.328  12.699  85.4500  0.00  0.00     0.000 C
ATOM      5  C5  A00 X   1      57.319  11.333  86.1360  0.00  0.00     0.000 C
ATOM      6  O5  A00 X   1      57.675  10.396  85.0940  0.00  0.00     0.000 O
ATOM      7   O  A00 X   1      55.140  13.457  84.8730  0.00  0.00     0.000 O
ATOM      9  HD  A00 X   1      55.798  13.569  85.4250  0.00  0.00     0.000 HD
ATOM      9   O  A00 X   1      58.639  12.987  84.9660  0.00  0.00     0.000 O
ATOM     11  HD  A00 X   1      59.297  13.099  85.5180  0.00  0.00     0.000 HD
ENDROOT
BRANCH 2 11
ATOM     11   O  A00 X   1      55.737  11.544  82.2810  0.00  0.00     0.000 O
ATOM     12   O  A00 X   1      54.327  13.164  81.2070  0.00  0.00     0.000 OA
ATOM     13   O  A00 X   1      53.312  11.393  82.5310  0.00  0.00     0.000 OA
ATOM     14   O  A00 X   1      54.405  10.888  80.4790  0.00  0.00     0.000 OA
ATOM     15   S  A00 X   1      54.342  11.779  81.6060  0.00  0.00     0.000 S
ENDBRANCH 2 11
BRANCH 5 16
ATOM     16   C  A00 X   1      56.014  10.979  86.8580  0.00  0.00     0.000 C
ATOM     17   O  A00 X   1      55.232  11.870  87.1150  0.00  0.00     0.000 OA
ATOM     18   O  A00 X   1      55.734   9.840  87.1760  0.00  0.00     0.000 OA
ENDBRANCH 5 16
BRANCH 1 19
ATOM     19  O4  A00 X   2      55.923   8.990  84.2670  0.00  0.00     0.000 O
BRANCH 19 23
ATOM     20  C1  A00 X   2      58.831   6.431  82.4330  0.00  0.00     0.000 C
ATOM     21  C2  A00 X   2      57.620   6.870  81.5730  0.00  0.00     0.000 C
ATOM     22  C3  A00 X   2      56.919   8.095  82.1950  0.00  0.00     0.000 C
ATOM     23  C4  A00 X   2      56.540   7.815  83.6670  0.00  0.00     0.000 C
ATOM     24  C5  A00 X   2      57.827   7.370  84.4120  0.00  0.00     0.000 C
ATOM     25  O5  A00 X   2      58.345   6.172  83.7770  0.00  0.00     0.000 O
ATOM     26   O  A00 X   2      55.848   8.504  81.3270  0.00  0.00     0.000 O
ATOM     28  HD  A00 X   2      55.520   7.705  81.2730  0.00  0.00     0.000 HD
BRANCH 21 30
ATOM     28   N  A00 X   2      57.660   5.558  80.9180  0.00  0.00     0.000 N
ATOM     30  HD  A00 X   2      57.169   6.071  80.4220  0.00  0.00     0.000 HD
ATOM     30   O  A00 X   2      56.928   5.823  78.7150  0.00  0.00     0.000 OA
ATOM     31   S  A00 X   2      56.504   5.180  79.9080  0.00  0.00     0.000 S
ATOM     32   O  A00 X   2      56.542   3.751  79.8700  0.00  0.00     0.000 OA
ATOM     33   O  A00 X   2      55.273   5.629  80.4860  0.00  0.00     0.000 OA
ENDBRANCH 21 30
BRANCH 24 34
ATOM     34   C  A00 X   2      57.769   7.250  85.9540  0.00  0.00     0.000 C
ATOM     35   O  A00 X   2      58.294   4.144  87.7800  0.00  0.00     0.000 OA
ATOM     36   O  A00 X   2      57.660   5.873  86.3670  0.00  0.00     0.000 O
ATOM     37   O  A00 X   2      59.848   5.055  86.2490  0.00  0.00     0.000 OA
ATOM     38   S  A00 X   2      58.855   5.338  87.2390  0.00  0.00     0.000 S
ATOM     39   O  A00 X   2      59.146   6.361  88.1980  0.00  0.00     0.000 OA
ENDBRANCH 24 34
BRANCH 20 40
ATOM     40  O4  A00 X   3      59.720   7.558  82.4530  0.00  0.00     0.000 O
BRANCH 40 44
ATOM     41  C1  A00 X   3      61.931   9.705  84.3560  0.00  0.00     0.000 C
ATOM     42  C2  A00 X   3      61.612   9.879  82.8560  0.00  0.00     0.000 C
ATOM     43  C3  A00 X   3      61.818   8.549  82.0860  0.00  0.00     0.000 C
ATOM     44  C4  A00 X   3      61.125   7.343  82.7080  0.00  0.00     0.000 C
ATOM     45  C5  A00 X   3      61.499   7.233  84.2130  0.00  0.00     0.000 C
ATOM     46  O5  A00 X   3      61.299   8.512  84.8970  0.00  0.00     0.000 O
ATOM     47   O  A00 X   3      61.635   8.612  80.6730  0.00  0.00     0.000 O
ATOM     49  HD  A00 X   3      61.266   7.839  80.7990  0.00  0.00     0.000 HD
BRANCH 42 49
ATOM     49   O  A00 X   3      60.244  10.335  82.7640  0.00  0.00     0.000 O
ATOM     50   O  A00 X   3      58.706  10.858  81.0060  0.00  0.00     0.000 OA
ATOM     51   O  A00 X   3      60.955  11.558  80.8000  0.00  0.00     0.000 OA
ATOM     52   O  A00 X   3      59.606  12.574  82.4540  0.00  0.00     0.000 OA
ATOM     53   S  A00 X   3      59.838  11.392  81.6960  0.00  0.00     0.000 S
ENDBRANCH 42 49
BRANCH 45 54
ATOM     54   C  A00 X   3      62.907   6.658  84.4070  0.00  0.00     0.000 C
ATOM     55   O  A00 X   3      63.300   6.342  85.5120  0.00  0.00     0.000 OA
ATOM     56   O  A00 X   3      63.659   6.511  83.4560  0.00  0.00     0.000 OA
ENDBRANCH 45 54
BRANCH 41 57
ATOM     57  O4  A00 X   4      63.352   9.784  84.6120  0.00  0.00     0.000 O
BRANCH 57 61
ATOM     58  C1  A00 X   4      65.660  11.284  87.9380  0.00  0.00     0.000 C
ATOM     59  C2  A00 X   4      64.689  10.102  88.1820  0.00  0.00     0.000 C
ATOM     60  C3  A00 X   4      64.202   9.428  86.8840  0.00  0.00     0.000 C
ATOM     61  C4  A00 X   4      63.720  10.464  85.8460  0.00  0.00     0.000 C
ATOM     62  C5  A00 X   4      64.915  11.417  85.5950  0.00  0.00     0.000 C
ATOM     63  O5  A00 X   4      65.239  12.110  86.8280  0.00  0.00     0.000 O
BRANCH 59 66
ATOM     64   N  A00 X   4      63.492  10.642  88.8510  0.00  0.00     0.000 N
ATOM     66  HD  A00 X   4      63.299  11.476  88.7150  0.00  0.00     0.000 HD
ATOM     66   O  A00 X   4      64.694  10.461  90.9300  0.00  0.00     0.000 OA
ATOM     67   S  A00 X   4      63.354  10.445  90.4330  0.00  0.00     0.000 S
ATOM     68   O  A00 X   4      62.558  11.590  90.7670  0.00  0.00     0.000 OA
ATOM     69   O  A00 X   4      62.640   9.200  90.4710  0.00  0.00     0.000 OA
ENDBRANCH 59 66
BRANCH 62 70
ATOM     70   C  A00 X   4      64.662  12.471  84.4910  0.00  0.00     0.000 C
ATOM     71   O  A00 X   4      62.439  15.328  84.5590  0.00  0.00     0.000 OA
ATOM     72   O  A00 X   4      62.717  13.638  82.9420  0.00  0.00     0.000 OA
ATOM     73   O  A00 X   4      63.895  13.557  85.0370  0.00  0.00     0.000 O
ATOM     74   O  A00 X   4      61.522  13.143  85.0080  0.00  0.00     0.000 OA
ATOM     75   S  A00 X   4      62.531  13.910  84.3500  0.00  0.00     0.000 S
ENDBRANCH 62 70
ENDBRANCH 57 61
ENDBRANCH 41 57
ENDBRANCH 40 44
ENDBRANCH 20 40
ENDBRANCH 19 23
ENDBRANCH 1 19
TORSDOF 14
ENDMDL
MODEL 100
REMARK VINA RESULT:      -0.9     56.000     61.009
ROOT
ATOM      1  C1  A00 X   1      62.336  22.386  66.0510  0.00  0.00     0.000 C
ATOM      2  C2  A00 X   1      62.808  23.559  65.1510  0.00  0.00     0.000 C
ATOM      3  C3  A00 X   1      63.546  23.158  63.8310  0.00  0.00     0.000 C
ATOM      4  C4  A00 X   1      64.037  21.689  63.7590  0.00  0.00     0.000 C
ATOM      5  C5  A00 X   1      64.204  21.068  65.1450  0.00  0.00     0.000 C
ATOM      6  O5  A00 X   1      62.877  21.083  65.7170  0.00  0.00     0.000 O
ATOM      7   O  A00 X   1      64.702  23.979  63.6870  0.00  0.00     0.000 O
ATOM      9  HD  A00 X   1      64.930  23.176  63.4570  0.00  0.00     0.000 HD
ATOM      9   O  A00 X   1      63.160  20.884  62.9720  0.00  0.00     0.000 O
ATOM     11  HD  A00 X   1      63.387  20.080  62.7430  0.00  0.00     0.000 HD
ENDROOT
BRANCH 2 11
ATOM     11   O  A00 X   1      61.651  24.351  64.8200  0.00  0.00     0.000 O
ATOM     12   O  A00 X   1      61.826  26.397  63.5750  0.00  0.00     0.000 OA
ATOM     13   O  A00 X   1      62.857  26.249  65.7730  0.00  0.00     0.000 OA
ATOM     14   O  A00 X   1      60.489  26.240  65.5500  0.00  0.00     0.000 OA
ATOM     15   S  A00 X   1      61.744  25.912  64.9300  0.00  0.00     0.000 S
ENDBRANCH 2 11
BRANCH 5 16
ATOM     16   C  A00 X   1      65.261  21.735  66.0310  0.00  0.00     0.000 C
ATOM     17   O  A00 X   1      66.083  22.460  65.5100  0.00  0.00     0.000 OA
ATOM     18   O  A00 X   1      65.301  21.570  67.2340  0.00  0.00     0.000 OA
ENDBRANCH 5 16
BRANCH 1 19
ATOM     19  O4  A00 X   2      62.477  22.670  67.4640  0.00  0.00     0.000 O
BRANCH 19 23
ATOM     20  C1  A00 X   2      58.893  20.589  68.5550  0.00  0.00     0.000 C
ATOM     21  C2  A00 X   2      58.808  22.127  68.4010  0.00  0.00     0.000 C
ATOM     22  C3  A00 X   2      60.014  22.667  67.6050  0.00  0.00     0.000 C
ATOM     23  C4  A00 X   2      61.341  22.201  68.2450  0.00  0.00     0.000 C
ATOM     24  C5  A00 X   2      61.294  20.653  68.3600  0.00  0.00     0.000 C
ATOM     25  O5  A00 X   2      60.163  20.280  69.1890  0.00  0.00     0.000 O
ATOM     26   O  A00 X   2      59.854  24.086  67.4310  0.00  0.00     0.000 O
ATOM     28  HD  A00 X   2      59.699  24.222  68.2720  0.00  0.00     0.000 HD
BRANCH 21 30
ATOM     28   N  A00 X   2      57.829  22.145  69.4930  0.00  0.00     0.000 N
ATOM     30  HD  A00 X   2      57.772  22.911  69.0920  0.00  0.00     0.000 HD
ATOM     30   O  A00 X   2      56.342  23.905  69.1070  0.00  0.00     0.000 OA
ATOM     31   S  A00 X   2      57.340  23.541  70.0490  0.00  0.00     0.000 S
ATOM     32   O  A00 X   2      56.851  23.232  71.3570  0.00  0.00     0.000 OA
ATOM     33   O  A00 X   2      58.491  24.389  70.1370  0.00  0.00     0.000 OA
ENDBRANCH 21 30
BRANCH 24 34
ATOM     34   C  A00 X   2      62.594  19.915  68.7580  0.00  0.00     0.000 C
ATOM     35   O  A00 X   2      64.420  20.519  71.8500  0.00  0.00     0.000 OA
ATOM     36   O  A00 X   2      63.273  20.594  69.8330  0.00  0.00     0.000 O
ATOM     37   O  A00 X   2      62.135  19.915  71.7600  0.00  0.00     0.000 OA
ATOM     38   S  A00 X   2      63.425  19.764  71.1600  0.00  0.00     0.000 S
ATOM     39   O  A00 X   2      63.826  18.446  70.7700  0.00  0.00     0.000 OA
ENDBRANCH 24 34
BRANCH 20 40
ATOM     40  O4  A00 X   3      58.884  20.065  67.2190  0.00  0.00     0.000 O
BRANCH 40 44
ATOM     41  C1  A00 X   3      60.234  17.709  64.8210  0.00  0.00     0.000 C
ATOM     42  C2  A00 X   3      59.145  18.757  64.5070  0.00  0.00     0.000 C
ATOM     43  C3  A00 X   3      57.991  18.685  65.5400  0.00  0.00     0.000 C
ATOM     44  C4  A00 X   3      58.441  18.709  66.9950  0.00  0.00     0.000 C
ATOM     45  C5  A00 X   3      59.531  17.626  67.2330  0.00  0.00     0.000 C
ATOM     46  O5  A00 X   3      60.594  17.724  66.2300  0.00  0.00     0.000 O
ATOM     47   O  A00 X   3      56.884  19.552  65.2990  0.00  0.00     0.000 O
ATOM     49  HD  A00 X   3      56.909  19.638  66.1610  0.00  0.00     0.000 HD
BRANCH 42 49
ATOM     49   O  A00 X   3      59.786  20.051  64.5220  0.00  0.00     0.000 O
ATOM     50   O  A00 X   3      59.101  22.328  64.2450  0.00  0.00     0.000 OA
ATOM     51   O  A00 X   3      58.191  20.680  62.8140  0.00  0.00     0.000 OA
ATOM     52   O  A00 X   3      60.484  21.213  62.6040  0.00  0.00     0.000 OA
ATOM     53   S  A00 X   3      59.375  21.144  63.4920  0.00  0.00     0.000 S
ENDBRANCH 42 49
BRANCH 45 54
ATOM     54   C  A00 X   3      58.923  16.221  67.3320  0.00  0.00     0.000 C
ATOM     55   O  A00 X   3      59.604  15.275  67.6700  0.00  0.00     0.000 OA
ATOM     56   O  A00 X   3      57.746  16.030  67.0710  0.00  0.00     0.000 OA
ENDBRANCH 45 54
BRANCH 41 57
ATOM     57  O4  A00 X   4      59.876  16.401  64.3210  0.00  0.00     0.000 O
BRANCH 57 61
ATOM     58  C1  A00 X   4      62.197  13.125  62.7330  0.00  0.00     0.000 C
ATOM     59  C2  A00 X   4      62.455  13.578  64.1920  0.00  0.00     0.000 C
ATOM     60  C3  A00 X   4      61.347  14.489  64.7580  0.00  0.00     0.000 C
ATOM     61  C4  A00 X   4      60.980  15.623  63.7770  0.00  0.00     0.000 C
ATOM     62  C5  A00 X   4      60.553  14.936  62.4560  0.00  0.00     0.000 C
ATOM     63  O5  A00 X   4      61.680  14.200  61.9160  0.00  0.00     0.000 O
BRANCH 59 66
ATOM     64   N  A00 X   4      63.692  14.374  64.2910  0.00  0.00     0.000 N
ATOM     66  HD  A00 X   4      63.935  14.825  63.5920  0.00  0.00     0.000 HD
ATOM     66   O  A00 X   4      64.908  12.295  64.3240  0.00  0.00     0.000 OA
ATOM     67   S  A00 X   4      65.026  13.643  64.7870  0.00  0.00     0.000 S
ATOM     68   O  A00 X   4      66.018  14.438  64.1250  0.00  0.00     0.000 OA
ATOM     69   O  A00 X   4      64.931  13.876  66.2000  0.00  0.00     0.000 OA
ENDBRANCH 59 66
BRANCH 62 70
ATOM     70   C  A00 X   4      60.040  15.914  61.3730  0.00  0.00     0.000 C
ATOM     71   O  A00 X   4      61.907  18.362  59.4680  0.00  0.00     0.000 OA
ATOM     72   O  A00 X   4      59.890  18.564  60.6670  0.00  0.00     0.000 OA
ATOM     73   O  A00 X   4      61.161  16.523  60.7120  0.00  0.00     0.000 O
ATOM     74   O  A00 X   4      62.004  18.457  61.8750  0.00  0.00     0.000 OA
ATOM     75   S  A00 X   4      61.255  18.088  60.7180  0.00  0.00     0.000 S
ENDBRANCH 62 70
ENDBRANCH 57 61
ENDBRANCH 41 57
ENDBRANCH 40 44
ENDBRANCH 20 40
ENDBRANCH 19 23
ENDBRANCH 1 19
TORSDOF 14
ENDMDL
