MODEL 1
REMARK VINA RESULT:      -7.4      0.000      0.000
ROOT
ATOM      1  C1  GCU B   1      19.760  26.573  11.4350  0.00  0.00     0.000 C
ATOM      2  C2  GCU B   1      20.229  27.554  12.4990  0.00  0.00     0.000 C
ATOM      3  C3  GCU B   1      19.984  28.986  12.0480  0.00  0.00     0.000 C
ATOM      4  C4  GCU B   1      20.567  29.207  10.6610  0.00  0.00     0.000 C
ATOM      5  C5  GCU B   1      20.082  28.134   9.6840  0.00  0.00     0.000 C
ATOM      6  O5  GCU B   1      20.432  26.841  10.1940  0.00  0.00     0.000 O
ATOM      7   O  GCU B   1      19.509  27.272  13.6950  0.00  0.00     0.000 O
ATOM      9  HD  GCU B   1      19.853  27.132  14.4770  0.00  0.00     0.000 HD
ATOM      9   O  GCU B   1      20.565  29.911  12.9700  0.00  0.00     0.000 O
ATOM     11  HD  GCU B   1      20.909  29.771  13.7520  0.00  0.00     0.000 HD
ATOM     11   O  GCU B   1      20.174  30.498  10.1950  0.00  0.00     0.000 O
ATOM     13  HD  GCU B   1      20.518  30.358  10.9780  0.00  0.00     0.000 HD
ENDROOT
BRANCH 5 13
ATOM     13   C  GCU B   1      20.665  28.387   8.3140  0.00  0.00     0.000 C
ATOM     14   O  GCU B   1      20.432  29.458   7.7160  0.00  0.00     0.000 OA
ATOM     15   O  GCU B   1      21.399  27.503   7.8300  0.00  0.00     0.000 OA
ENDBRANCH 5 13
BRANCH 1 16
ATOM     16  O3  NAG B   2      20.199  25.331  11.2250  0.00  0.00     0.000 O
BRANCH 16 19
ATOM     17  C1  NAG B   2      18.985  21.771  11.5050  0.00  0.00     0.000 C
ATOM     18  C2  NAG B   2      19.491  23.124  11.9880  0.00  0.00     0.000 C
ATOM     19  C3  NAG B   2      19.556  24.111  10.8240  0.00  0.00     0.000 C
ATOM     20  C4  NAG B   2      20.351  23.514   9.6630  0.00  0.00     0.000 C
ATOM     21  C5  NAG B   2      19.754  22.171   9.2660  0.00  0.00     0.000 C
ATOM     22  O5  NAG B   2      19.779  21.295  10.4060  0.00  0.00     0.000 O
ATOM     23   O  NAG B   2      20.318  24.439   8.5710  0.00  0.00     0.000 O
ATOM     25  HD  NAG B   2      21.081  24.316   8.9620  0.00  0.00     0.000 HD
ATOM     25   C  NAG B   2      20.489  21.520   8.0970  0.00  0.00     0.000 C
ATOM     26   O  NAG B   2      21.769  21.005   8.4960  0.00  0.00     0.000 O
ATOM     28  HD  NAG B   2      22.532  20.883   8.8870  0.00  0.00     0.000 HD
BRANCH 18 30
ATOM     28   N  NAG B   2      19.602  22.891  13.4150  0.00  0.00     0.000 N
ATOM     30  HD  NAG B   2      19.032  23.541  13.3650  0.00  0.00     0.000 HD
ATOM     30   C  NAG B   2      19.022  23.660  14.3440  0.00  0.00     0.000 C
ATOM     31   C  NAG B   2      19.267  23.316  15.7870  0.00  0.00     0.000 C
ATOM     32   O  NAG B   2      18.322  24.607  14.0460  0.00  0.00     0.000 OA
ENDBRANCH 18 30
BRANCH 17 33
ATOM     33  O4  GCU B   3      18.981  20.878  12.6370  0.00  0.00     0.000 O
BRANCH 33 37
ATOM     34  C1  GCU B   3      16.646  17.534  13.4720  0.00  0.00     0.000 C
ATOM     35  C2  GCU B   3      17.805  17.363  12.4890  0.00  0.00     0.000 C
ATOM     36  C3  GCU B   3      18.769  18.520  12.6360  0.00  0.00     0.000 C
ATOM     37  C4  GCU B   3      18.021  19.835  12.4650  0.00  0.00     0.000 C
ATOM     38  C5  GCU B   3      16.886  19.917  13.4880  0.00  0.00     0.000 C
ATOM     39  O5  GCU B   3      16.011  18.802  13.2880  0.00  0.00     0.000 O
ATOM     40   O  GCU B   3      18.469  16.128  12.7670  0.00  0.00     0.000 O
ATOM     42  HD  GCU B   3      19.254  15.788  12.9020  0.00  0.00     0.000 HD
ATOM     42   O  GCU B   3      19.837  18.430  11.6760  0.00  0.00     0.000 O
ATOM     44  HD  GCU B   3      20.622  18.090  11.8110  0.00  0.00     0.000 HD
BRANCH 38 44
ATOM     44   C  GCU B   3      16.080  21.186  13.3620  0.00  0.00     0.000 C
ATOM     45   O  GCU B   3      16.081  21.986  14.3090  0.00  0.00     0.000 OA
ATOM     46   O  GCU B   3      15.437  21.408  12.3180  0.00  0.00     0.000 OA
ENDBRANCH 38 44
BRANCH 34 47
ATOM     47  O3  NAG B   4      15.713  16.635  13.1920  0.00  0.00     0.000 O
BRANCH 47 50
ATOM     48  C1  NAG B   4      12.567  14.672  13.1110  0.00  0.00     0.000 C
ATOM     49  C2  NAG B   4      14.054  14.950  13.3040  0.00  0.00     0.000 C
ATOM     50  C3  NAG B   4      14.327  16.436  13.4670  0.00  0.00     0.000 C
ATOM     51  C4  NAG B   4      13.491  17.324  12.5380  0.00  0.00     0.000 C
ATOM     52  C5  NAG B   4      12.004  17.127  12.7790  0.00  0.00     0.000 C
ATOM     53  O5  NAG B   4      11.615  15.748  12.9680  0.00  0.00     0.000 O
BRANCH 49 56
ATOM     54   N  NAG B   4      14.049  14.467  14.6960  0.00  0.00     0.000 N
ATOM     56  HD  NAG B   4      13.426  14.614  15.2790  0.00  0.00     0.000 HD
ATOM     56   C  NAG B   4      14.829  13.393  16.7280  0.00  0.00     0.000 C
ATOM     57   O  NAG B   4      16.201  13.756  14.8610  0.00  0.00     0.000 OA
ATOM     58   C  NAG B   4      15.086  13.898  15.3410  0.00  0.00     0.000 C
ENDBRANCH 49 56
ATOM     59   O  NAG B   4       9.827  17.929  11.9360  0.00  0.00     0.000 O
ATOM     61  HD  NAG B   4      10.465  17.345  11.9020  0.00  0.00     0.000 HD
ATOM     61   O  NAG B   4       9.827  17.929  11.9360  0.00  0.00     0.000 O
ATOM     63  HD  NAG B   4      10.465  17.345  11.9020  0.00  0.00     0.000 HD
ENDBRANCH 47 50
ENDBRANCH 34 47
ENDBRANCH 33 37
ENDBRANCH 17 33
ENDBRANCH 16 19
ENDBRANCH 1 16
TORSDOF 10
ENDMDL
MODEL 2
REMARK VINA RESULT:      -7.0      2.300      3.128
ROOT
ATOM      1  C1  GCU B   1      19.663  25.404  10.9750  0.00  0.00     0.000 C
ATOM      2  C2  GCU B   1      20.317  26.225  12.0760  0.00  0.00     0.000 C
ATOM      3  C3  GCU B   1      20.085  27.710  11.8400  0.00  0.00     0.000 C
ATOM      4  C4  GCU B   1      20.491  28.086  10.4240  0.00  0.00     0.000 C
ATOM      5  C5  GCU B   1      19.829  27.164   9.3990  0.00  0.00     0.000 C
ATOM      6  O5  GCU B   1      20.178  25.805   9.6950  0.00  0.00     0.000 O
ATOM      7   O  GCU B   1      19.748  25.816  13.3160  0.00  0.00     0.000 O
ATOM      9  HD  GCU B   1      20.185  25.566  14.0200  0.00  0.00     0.000 HD
ATOM      9   O  GCU B   1      20.828  28.491  12.7800  0.00  0.00     0.000 O
ATOM     11  HD  GCU B   1      21.265  28.241  13.4840  0.00  0.00     0.000 HD
ATOM     11   O  GCU B   1      20.104  29.439  10.1770  0.00  0.00     0.000 O
ATOM     13  HD  GCU B   1      20.541  29.189  10.8820  0.00  0.00     0.000 HD
ENDROOT
BRANCH 5 13
ATOM     13   C  GCU B   1      20.237  27.569   8.0030  0.00  0.00     0.000 C
ATOM     14   O  GCU B   1      21.298  28.199   7.8140  0.00  0.00     0.000 OA
ATOM     15   O  GCU B   1      19.493  27.226   7.0640  0.00  0.00     0.000 OA
ENDBRANCH 5 13
BRANCH 1 16
ATOM     16  O3  NAG B   2      20.008  24.184  10.5560  0.00  0.00     0.000 O
BRANCH 16 19
ATOM     17  C1  NAG B   2      18.609  20.687  10.7510  0.00  0.00     0.000 C
ATOM     18  C2  NAG B   2      19.240  21.977  11.2580  0.00  0.00     0.000 C
ATOM     19  C3  NAG B   2      19.256  23.030  10.1510  0.00  0.00     0.000 C
ATOM     20  C4  NAG B   2      19.900  22.463   8.8870  0.00  0.00     0.000 C
ATOM     21  C5  NAG B   2      19.186  21.183   8.4740  0.00  0.00     0.000 C
ATOM     22  O5  NAG B   2      19.265  20.237   9.5550  0.00  0.00     0.000 O
ATOM     23   O  NAG B   2      19.822  23.455   7.8570  0.00  0.00     0.000 O
ATOM     25  HD  NAG B   2      20.609  23.265   8.1640  0.00  0.00     0.000 HD
ATOM     25   C  NAG B   2      19.767  20.566   7.2040  0.00  0.00     0.000 C
ATOM     26   O  NAG B   2      21.045  19.957   7.4460  0.00  0.00     0.000 O
ATOM     28  HD  NAG B   2      21.832  19.767   7.7540  0.00  0.00     0.000 HD
BRANCH 18 30
ATOM     28   N  NAG B   2      18.551  22.486  12.4290  0.00  0.00     0.000 N
ATOM     30  HD  NAG B   2      19.314  22.227  12.7460  0.00  0.00     0.000 HD
ATOM     30   C  NAG B   2      19.029  22.390  13.6760  0.00  0.00     0.000 C
ATOM     31   C  NAG B   2      18.176  22.926  14.7920  0.00  0.00     0.000 C
ATOM     32   O  NAG B   2      20.109  21.888  13.9110  0.00  0.00     0.000 OA
ENDBRANCH 18 30
BRANCH 17 33
ATOM     33  O4  GCU B   3      18.656  19.727  11.8260  0.00  0.00     0.000 O
BRANCH 33 37
ATOM     34  C1  GCU B   3      16.261  16.408  12.5870  0.00  0.00     0.000 C
ATOM     35  C2  GCU B   3      17.513  16.199  11.7340  0.00  0.00     0.000 C
ATOM     36  C3  GCU B   3      18.454  17.371  11.9190  0.00  0.00     0.000 C
ATOM     37  C4  GCU B   3      17.721  18.669  11.6110  0.00  0.00     0.000 C
ATOM     38  C5  GCU B   3      16.490  18.791  12.5100  0.00  0.00     0.000 C
ATOM     39  O5  GCU B   3      15.643  17.661  12.2800  0.00  0.00     0.000 O
ATOM     40   O  GCU B   3      18.150  14.985  12.1360  0.00  0.00     0.000 O
ATOM     42  HD  GCU B   3      18.919  14.658  12.3650  0.00  0.00     0.000 HD
ATOM     42   O  GCU B   3      19.612  17.243  11.0750  0.00  0.00     0.000 O
ATOM     44  HD  GCU B   3      20.380  16.917  11.3040  0.00  0.00     0.000 HD
BRANCH 38 44
ATOM     44   C  GCU B   3      15.696  20.046  12.2430  0.00  0.00     0.000 C
ATOM     45   O  GCU B   3      14.939  20.071  11.2610  0.00  0.00     0.000 OA
ATOM     46   O  GCU B   3      15.811  21.023  13.0070  0.00  0.00     0.000 OA
ENDBRANCH 38 44
BRANCH 34 47
ATOM     47  O3  NAG B   4      15.364  15.489  12.2610  0.00  0.00     0.000 O
BRANCH 47 50
ATOM     48  C1  NAG B   4      12.395  14.095  10.5280  0.00  0.00     0.000 C
ATOM     49  C2  NAG B   4      13.182  14.940  11.5240  0.00  0.00     0.000 C
ATOM     50  C3  NAG B   4      14.633  15.097  11.1000  0.00  0.00     0.000 C
ATOM     51  C4  NAG B   4      15.248  13.818  10.5190  0.00  0.00     0.000 C
ATOM     52  C5  NAG B   4      14.484  13.348   9.2920  0.00  0.00     0.000 C
ATOM     53  O5  NAG B   4      13.048  13.440   9.4200  0.00  0.00     0.000 O
BRANCH 49 56
ATOM     54   N  NAG B   4      12.661  16.239  11.0630  0.00  0.00     0.000 N
ATOM     56  HD  NAG B   4      12.706  16.544  10.2540  0.00  0.00     0.000 HD
ATOM     56   C  NAG B   4      11.638  18.438  11.1630  0.00  0.00     0.000 C
ATOM     57   O  NAG B   4      12.236  17.214  13.0720  0.00  0.00     0.000 OA
ATOM     58   C  NAG B   4      12.215  17.239  11.8500  0.00  0.00     0.000 C
ENDBRANCH 49 56
ATOM     59   O  NAG B   4      14.512  11.523   7.6300  0.00  0.00     0.000 O
ATOM     61  HD  NAG B   4      14.215  11.838   8.3800  0.00  0.00     0.000 HD
ATOM     61   O  NAG B   4      14.512  11.523   7.6300  0.00  0.00     0.000 O
ATOM     63  HD  NAG B   4      14.215  11.838   8.3800  0.00  0.00     0.000 HD
ENDBRANCH 47 50
ENDBRANCH 34 47
ENDBRANCH 33 37
ENDBRANCH 17 33
ENDBRANCH 16 19
ENDBRANCH 1 16
TORSDOF 10
ENDMDL
MODEL 3
REMARK VINA RESULT:      -6.9      4.133     11.780
ROOT
ATOM      1  C1  GCU B   1      16.306  13.997   8.0620  0.00  0.00     0.000 C
ATOM      2  C2  GCU B   1      17.406  13.061   7.5860  0.00  0.00     0.000 C
ATOM      3  C3  GCU B   1      16.975  12.332   6.3230  0.00  0.00     0.000 C
ATOM      4  C4  GCU B   1      15.616  11.682   6.5290  0.00  0.00     0.000 C
ATOM      5  C5  GCU B   1      14.599  12.691   7.0660  0.00  0.00     0.000 C
ATOM      6  O5  GCU B   1      15.096  13.255   8.2870  0.00  0.00     0.000 O
ATOM      7   O  GCU B   1      18.568  13.848   7.3430  0.00  0.00     0.000 O
ATOM      9  HD  GCU B   1      19.360  13.702   7.6620  0.00  0.00     0.000 HD
ATOM      9   O  GCU B   1      17.937  11.338   5.9610  0.00  0.00     0.000 O
ATOM     11  HD  GCU B   1      18.729  11.192   6.2800  0.00  0.00     0.000 HD
ATOM     11   O  GCU B   1      15.162  11.155   5.2820  0.00  0.00     0.000 O
ATOM     13  HD  GCU B   1      15.954  11.009   5.6010  0.00  0.00     0.000 HD
ENDROOT
BRANCH 5 13
ATOM     13   C  GCU B   1      13.258  12.022   7.2480  0.00  0.00     0.000 C
ATOM     14   O  GCU B   1      12.997  11.408   8.3030  0.00  0.00     0.000 OA
ATOM     15   O  GCU B   1      12.430  12.135   6.3230  0.00  0.00     0.000 OA
ENDBRANCH 5 13
BRANCH 1 16
ATOM     16  O3  NAG B   2      16.087  14.429   9.3060  0.00  0.00     0.000 O
BRANCH 16 19
ATOM     17  C1  NAG B   2      16.391  17.662  11.2250  0.00  0.00     0.000 C
ATOM     18  C2  NAG B   2      16.866  16.422  10.4790  0.00  0.00     0.000 C
ATOM     19  C3  NAG B   2      15.678  15.691   9.8550  0.00  0.00     0.000 C
ATOM     20  C4  NAG B   2      14.604  15.425  10.9090  0.00  0.00     0.000 C
ATOM     21  C5  NAG B   2      14.206  16.732  11.5810  0.00  0.00     0.000 C
ATOM     22  O5  NAG B   2      15.374  17.321  12.1810  0.00  0.00     0.000 O
ATOM     23   O  NAG B   2      13.482  14.811  10.2650  0.00  0.00     0.000 O
ATOM     25  HD  NAG B   2      13.935  14.323  10.8180  0.00  0.00     0.000 HD
ATOM     25   C  NAG B   2      13.121  16.545  12.6390  0.00  0.00     0.000 C
ATOM     26   O  NAG B   2      13.636  15.916  13.8230  0.00  0.00     0.000 O
ATOM     28  HD  NAG B   2      14.089  15.427  14.3760  0.00  0.00     0.000 HD
BRANCH 18 30
ATOM     28   N  NAG B   2      18.308  16.487  10.6220  0.00  0.00     0.000 N
ATOM     30  HD  NAG B   2      18.190  16.571   9.7680  0.00  0.00     0.000 HD
ATOM     30   C  NAG B   2      19.159  16.524   9.5890  0.00  0.00     0.000 C
ATOM     31   C  NAG B   2      20.630  16.545   9.8990  0.00  0.00     0.000 C
ATOM     32   O  NAG B   2      18.770  16.538   8.4390  0.00  0.00     0.000 OA
ENDBRANCH 18 30
BRANCH 17 33
ATOM     33  O4  GCU B   3      17.548  18.284  11.8180  0.00  0.00     0.000 O
BRANCH 33 37
ATOM     34  C1  GCU B   3      18.419  22.285  12.5720  0.00  0.00     0.000 C
ATOM     35  C2  GCU B   3      17.356  21.613  13.4430  0.00  0.00     0.000 C
ATOM     36  C3  GCU B   3      17.479  20.109  13.3230  0.00  0.00     0.000 C
ATOM     37  C4  GCU B   3      17.404  19.705  11.8580  0.00  0.00     0.000 C
ATOM     38  C5  GCU B   3      18.503  20.421  11.0690  0.00  0.00     0.000 C
ATOM     39  O5  GCU B   3      18.323  21.833  11.2190  0.00  0.00     0.000 O
ATOM     40   O  GCU B   3      17.545  22.018  14.8000  0.00  0.00     0.000 O
ATOM     42  HD  GCU B   3      17.616  21.705  15.6050  0.00  0.00     0.000 HD
ATOM     42   O  GCU B   3      16.447  19.444  14.0730  0.00  0.00     0.000 O
ATOM     44  HD  GCU B   3      16.518  19.130  14.8780  0.00  0.00     0.000 HD
BRANCH 38 44
ATOM     44   C  GCU B   3      18.475  20.088   9.5990  0.00  0.00     0.000 C
ATOM     45   O  GCU B   3      19.552  19.901   9.0120  0.00  0.00     0.000 OA
ATOM     46   O  GCU B   3      17.383  20.004   9.0050  0.00  0.00     0.000 OA
ENDBRANCH 38 44
BRANCH 34 47
ATOM     47  O3  NAG B   4      18.171  23.586  12.5230  0.00  0.00     0.000 O
BRANCH 47 50
ATOM     48  C1  NAG B   4      21.125  25.540  13.6230  0.00  0.00     0.000 C
ATOM     49  C2  NAG B   4      20.334  24.489  12.8510  0.00  0.00     0.000 C
ATOM     50  C3  NAG B   4      18.846  24.798  12.8540  0.00  0.00     0.000 C
ATOM     51  C4  NAG B   4      18.326  25.321  14.1980  0.00  0.00     0.000 C
ATOM     52  C5  NAG B   4      19.037  26.601  14.6030  0.00  0.00     0.000 C
ATOM     53  O5  NAG B   4      20.461  26.588  14.3590  0.00  0.00     0.000 O
BRANCH 49 56
ATOM     54   N  NAG B   4      20.648  24.990  11.5010  0.00  0.00     0.000 N
ATOM     56  HD  NAG B   4      20.438  25.770  11.1900  0.00  0.00     0.000 HD
ATOM     56   C  NAG B   4      21.467  24.994   9.2160  0.00  0.00     0.000 C
ATOM     57   O  NAG B   4      21.317  23.051  10.5210  0.00  0.00     0.000 OA
ATOM     58   C  NAG B   4      21.128  24.258  10.4760  0.00  0.00     0.000 C
ENDBRANCH 49 56
ATOM     59   O  NAG B   4      19.072  28.245  16.4450  0.00  0.00     0.000 O
ATOM     61  HD  NAG B   4      19.392  27.523  16.0900  0.00  0.00     0.000 HD
ATOM     61   O  NAG B   4      19.072  28.245  16.4450  0.00  0.00     0.000 O
ATOM     63  HD  NAG B   4      19.392  27.523  16.0900  0.00  0.00     0.000 HD
ENDBRANCH 47 50
ENDBRANCH 34 47
ENDBRANCH 33 37
ENDBRANCH 17 33
ENDBRANCH 16 19
ENDBRANCH 1 16
TORSDOF 10
ENDMDL
MODEL 4
REMARK VINA RESULT:      -6.8     10.433     17.183
ROOT
ATOM      1  C1  GCU B   1      21.295  32.214  14.3880  0.00  0.00     0.000 C
ATOM      2  C2  GCU B   1      22.762  32.215  13.9840  0.00  0.00     0.000 C
ATOM      3  C3  GCU B   1      22.911  31.819  12.5240  0.00  0.00     0.000 C
ATOM      4  C4  GCU B   1      22.166  30.521  12.2530  0.00  0.00     0.000 C
ATOM      5  C5  GCU B   1      20.722  30.602  12.7500  0.00  0.00     0.000 C
ATOM      6  O5  GCU B   1      20.724  30.917  14.1490  0.00  0.00     0.000 O
ATOM      7   O  GCU B   1      23.270  33.527  14.2060  0.00  0.00     0.000 O
ATOM      9  HD  GCU B   1      23.978  33.731  14.6600  0.00  0.00     0.000 HD
ATOM      9   O  GCU B   1      24.291  31.665  12.1820  0.00  0.00     0.000 O
ATOM     11  HD  GCU B   1      25.000  31.868  12.6370  0.00  0.00     0.000 HD
ATOM     11   O  GCU B   1      22.180  30.266  10.8480  0.00  0.00     0.000 O
ATOM     13  HD  GCU B   1      22.888  30.469  11.3020  0.00  0.00     0.000 HD
ENDROOT
BRANCH 5 13
ATOM     13   C  GCU B   1      20.004  29.307  12.4560  0.00  0.00     0.000 C
ATOM     14   O  GCU B   1      19.964  28.399  13.3110  0.00  0.00     0.000 OA
ATOM     15   O  GCU B   1      19.439  29.203  11.3500  0.00  0.00     0.000 OA
ENDBRANCH 5 13
BRANCH 1 16
ATOM     16  O3  NAG B   2      20.789  32.038  15.6110  0.00  0.00     0.000 O
BRANCH 16 19
ATOM     17  C1  NAG B   2      18.327  34.011  17.6790  0.00  0.00     0.000 C
ATOM     18  C2  NAG B   2      19.597  33.748  16.8790  0.00  0.00     0.000 C
ATOM     19  C3  NAG B   2      19.530  32.374  16.2150  0.00  0.00     0.000 C
ATOM     20  C4  NAG B   2      19.197  31.299  17.2490  0.00  0.00     0.000 C
ATOM     21  C5  NAG B   2      17.913  31.665  17.9790  0.00  0.00     0.000 C
ATOM     22  O5  NAG B   2      18.086  32.945  18.6120  0.00  0.00     0.000 O
ATOM     23   O  NAG B   2      19.069  30.045  16.5700  0.00  0.00     0.000 O
ATOM     25  HD  NAG B   2      19.745  30.138  17.1030  0.00  0.00     0.000 HD
ATOM     25   C  NAG B   2      17.508  30.624  19.0200  0.00  0.00     0.000 C
ATOM     26   O  NAG B   2      18.358  30.671  20.1760  0.00  0.00     0.000 O
ATOM     28  HD  NAG B   2      19.035  30.764  20.7090  0.00  0.00     0.000 HD
BRANCH 18 30
ATOM     28   N  NAG B   2      19.622  35.100  16.3550  0.00  0.00     0.000 N
ATOM     30  HD  NAG B   2      20.447  34.846  16.2850  0.00  0.00     0.000 HD
ATOM     30   C  NAG B   2      20.743  35.746  16.0100  0.00  0.00     0.000 C
ATOM     31   C  NAG B   2      20.610  37.162  15.5230  0.00  0.00     0.000 C
ATOM     32   O  NAG B   2      21.835  35.220  16.0860  0.00  0.00     0.000 OA
ENDBRANCH 18 30
BRANCH 17 33
ATOM     33  O4  GCU B   3      18.467  35.301  18.3070  0.00  0.00     0.000 O
BRANCH 33 37
ATOM     34  C1  GCU B   3      15.589  37.985  19.6660  0.00  0.00     0.000 C
ATOM     35  C2  GCU B   3      16.029  36.874  20.6190  0.00  0.00     0.000 C
ATOM     36  C3  GCU B   3      17.339  36.285  20.1410  0.00  0.00     0.000 C
ATOM     37  C4  GCU B   3      17.195  35.822  18.6980  0.00  0.00     0.000 C
ATOM     38  C5  GCU B   3      16.757  36.997  17.8220  0.00  0.00     0.000 C
ATOM     39  O5  GCU B   3      15.513  37.499  18.3230  0.00  0.00     0.000 O
ATOM     40   O  GCU B   3      16.183  37.422  21.9300  0.00  0.00     0.000 O
ATOM     42  HD  GCU B   3      16.735  37.460  22.5960  0.00  0.00     0.000 HD
ATOM     42   O  GCU B   3      17.747  35.185  20.9750  0.00  0.00     0.000 O
ATOM     44  HD  GCU B   3      18.300  35.223  21.6400  0.00  0.00     0.000 HD
BRANCH 38 44
ATOM     44   C  GCU B   3      16.568  36.607  16.3770  0.00  0.00     0.000 C
ATOM     45   O  GCU B   3      15.582  35.919  16.0720  0.00  0.00     0.000 OA
ATOM     46   O  GCU B   3      17.395  36.982  15.5240  0.00  0.00     0.000 OA
ENDBRANCH 38 44
BRANCH 34 47
ATOM     47  O3  NAG B   4      14.352  38.348  19.9740  0.00  0.00     0.000 O
BRANCH 47 50
ATOM     48  C1  NAG B   4      11.303  40.295  20.7930  0.00  0.00     0.000 C
ATOM     49  C2  NAG B   4      12.359  39.202  20.9230  0.00  0.00     0.000 C
ATOM     50  C3  NAG B   4      13.631  39.563  20.1740  0.00  0.00     0.000 C
ATOM     51  C4  NAG B   4      13.380  40.235  18.8200  0.00  0.00     0.000 C
ATOM     52  C5  NAG B   4      12.591  41.524  18.9820  0.00  0.00     0.000 C
ATOM     53  O5  NAG B   4      11.506  41.435  19.9320  0.00  0.00     0.000 O
BRANCH 49 56
ATOM     54   N  NAG B   4      12.708  39.569  22.3070  0.00  0.00     0.000 N
ATOM     56  HD  NAG B   4      12.822  40.375  22.6030  0.00  0.00     0.000 HD
ATOM     56   C  NAG B   4      13.310  39.299  24.6430  0.00  0.00     0.000 C
ATOM     57   O  NAG B   4      13.264  37.519  23.1170  0.00  0.00     0.000 OA
ATOM     58   C  NAG B   4      13.097  38.719  23.2780  0.00  0.00     0.000 C
ENDBRANCH 49 56
ATOM     59   O  NAG B   4      11.632  43.341  17.6140  0.00  0.00     0.000 O
ATOM     61  HD  NAG B   4      11.530  42.576  18.0060  0.00  0.00     0.000 HD
ATOM     61   O  NAG B   4      11.632  43.341  17.6140  0.00  0.00     0.000 O
ATOM     63  HD  NAG B   4      11.530  42.576  18.0060  0.00  0.00     0.000 HD
ENDBRANCH 47 50
ENDBRANCH 34 47
ENDBRANCH 33 37
ENDBRANCH 17 33
ENDBRANCH 16 19
ENDBRANCH 1 16
TORSDOF 10
ENDMDL
MODEL 5
REMARK VINA RESULT:      -6.7     10.339     16.967
ROOT
ATOM      1  C1  GCU B   1      21.312  32.245  14.2820  0.00  0.00     0.000 C
ATOM      2  C2  GCU B   1      22.777  32.296  13.8770  0.00  0.00     0.000 C
ATOM      3  C3  GCU B   1      22.923  32.069  12.3800  0.00  0.00     0.000 C
ATOM      4  C4  GCU B   1      22.180  30.809  11.9640  0.00  0.00     0.000 C
ATOM      5  C5  GCU B   1      20.737  30.830  12.4720  0.00  0.00     0.000 C
ATOM      6  O5  GCU B   1      20.742  30.983  13.8970  0.00  0.00     0.000 O
ATOM      7   O  GCU B   1      23.283  33.575  14.2450  0.00  0.00     0.000 O
ATOM      9  HD  GCU B   1      23.992  33.727  14.7180  0.00  0.00     0.000 HD
ATOM      9   O  GCU B   1      24.302  31.958  12.0200  0.00  0.00     0.000 O
ATOM     11  HD  GCU B   1      25.012  32.110  12.4930  0.00  0.00     0.000 HD
ATOM     11   O  GCU B   1      22.190  30.716  10.5400  0.00  0.00     0.000 O
ATOM     13  HD  GCU B   1      22.899  30.868  11.0120  0.00  0.00     0.000 HD
ENDROOT
BRANCH 5 13
ATOM     13   C  GCU B   1      20.020  29.575  12.0330  0.00  0.00     0.000 C
ATOM     14   O  GCU B   1      20.664  28.604  11.5860  0.00  0.00     0.000 OA
ATOM     15   O  GCU B   1      18.781  29.546  12.1630  0.00  0.00     0.000 OA
ENDBRANCH 5 13
BRANCH 1 16
ATOM     16  O3  NAG B   2      20.809  31.930  15.4780  0.00  0.00     0.000 O
BRANCH 16 19
ATOM     17  C1  NAG B   2      18.409  33.816  17.6930  0.00  0.00     0.000 C
ATOM     18  C2  NAG B   2      19.649  33.590  16.8390  0.00  0.00     0.000 C
ATOM     19  C3  NAG B   2      19.571  32.234  16.1390  0.00  0.00     0.000 C
ATOM     20  C4  NAG B   2      19.290  31.127  17.1550  0.00  0.00     0.000 C
ATOM     21  C5  NAG B   2      18.031  31.458  17.9430  0.00  0.00     0.000 C
ATOM     22  O5  NAG B   2      18.215  32.722  18.6050  0.00  0.00     0.000 O
ATOM     23   O  NAG B   2      19.149  29.890  16.4470  0.00  0.00     0.000 O
ATOM     25  HD  NAG B   2      19.844  29.977  16.9550  0.00  0.00     0.000 HD
ATOM     25   C  NAG B   2      17.679  30.384  18.9700  0.00  0.00     0.000 C
ATOM     26   O  NAG B   2      18.573  30.409  20.0940  0.00  0.00     0.000 O
ATOM     28  HD  NAG B   2      19.268  30.496  20.6020  0.00  0.00     0.000 HD
BRANCH 18 30
ATOM     28   N  NAG B   2      19.635  34.934  16.2940  0.00  0.00     0.000 N
ATOM     30  HD  NAG B   2      20.472  34.716  16.2600  0.00  0.00     0.000 HD
ATOM     30   C  NAG B   2      20.739  35.624  15.9820  0.00  0.00     0.000 C
ATOM     31   C  NAG B   2      20.562  37.026  15.4680  0.00  0.00     0.000 C
ATOM     32   O  NAG B   2      21.849  35.148  16.1070  0.00  0.00     0.000 OA
ENDBRANCH 18 30
BRANCH 17 33
ATOM     33  O4  GCU B   3      18.559  35.089  18.3520  0.00  0.00     0.000 O
BRANCH 33 37
ATOM     34  C1  GCU B   3      15.746  37.557  20.1780  0.00  0.00     0.000 C
ATOM     35  C2  GCU B   3      16.335  36.416  21.0080  0.00  0.00     0.000 C
ATOM     36  C3  GCU B   3      17.606  35.917  20.3540  0.00  0.00     0.000 C
ATOM     37  C4  GCU B   3      17.319  35.528  18.9110  0.00  0.00     0.000 C
ATOM     38  C5  GCU B   3      16.737  36.727  18.1610  0.00  0.00     0.000 C
ATOM     39  O5  GCU B   3      15.539  37.142  18.8240  0.00  0.00     0.000 O
ATOM     40   O  GCU B   3      16.614  36.898  22.3250  0.00  0.00     0.000 O
ATOM     42  HD  GCU B   3      17.236  36.926  22.9260  0.00  0.00     0.000 HD
ATOM     42   O  GCU B   3      18.150  34.794  21.0710  0.00  0.00     0.000 O
ATOM     44  HD  GCU B   3      18.773  34.821  21.6720  0.00  0.00     0.000 HD
BRANCH 38 44
ATOM     44   C  GCU B   3      16.403  36.409  16.7250  0.00  0.00     0.000 C
ATOM     45   O  GCU B   3      17.232  36.691  15.8460  0.00  0.00     0.000 OA
ATOM     46   O  GCU B   3      15.313  35.872  16.4480  0.00  0.00     0.000 OA
ENDBRANCH 38 44
BRANCH 34 47
ATOM     47  O3  NAG B   4      14.538  37.843  20.6420  0.00  0.00     0.000 O
BRANCH 47 50
ATOM     48  C1  NAG B   4      12.748  41.085  20.4360  0.00  0.00     0.000 C
ATOM     49  C2  NAG B   4      13.917  40.109  20.3530  0.00  0.00     0.000 C
ATOM     50  C3  NAG B   4      13.437  38.670  20.2690  0.00  0.00     0.000 C
ATOM     51  C4  NAG B   4      12.240  38.364  21.1770  0.00  0.00     0.000 C
ATOM     52  C5  NAG B   4      11.048  39.241  20.8320  0.00  0.00     0.000 C
ATOM     53  O5  NAG B   4      11.388  40.619  20.5610  0.00  0.00     0.000 O
BRANCH 49 56
ATOM     54   N  NAG B   4      14.222  40.291  18.9230  0.00  0.00     0.000 N
ATOM     56  HD  NAG B   4      13.705  40.072  18.2640  0.00  0.00     0.000 HD
ATOM     56   C  NAG B   4      15.479  40.858  16.9250  0.00  0.00     0.000 C
ATOM     57   O  NAG B   4      16.435  40.792  19.0660  0.00  0.00     0.000 OA
ATOM     58   C  NAG B   4      15.419  40.635  18.4050  0.00  0.00     0.000 C
ENDBRANCH 49 56
ATOM     59   O  NAG B   4       8.726  39.653  21.5630  0.00  0.00     0.000 O
ATOM     61  HD  NAG B   4       9.567  39.856  21.6150  0.00  0.00     0.000 HD
ATOM     61   O  NAG B   4       8.726  39.653  21.5630  0.00  0.00     0.000 O
ATOM     63  HD  NAG B   4       9.567  39.856  21.6150  0.00  0.00     0.000 HD
ENDBRANCH 47 50
ENDBRANCH 34 47
ENDBRANCH 33 37
ENDBRANCH 17 33
ENDBRANCH 16 19
ENDBRANCH 1 16
TORSDOF 10
ENDMDL
MODEL 6
REMARK VINA RESULT:      -6.6     12.247     18.290
ROOT
ATOM      1  C1  GCU B   1      14.921  29.565  28.1560  0.00  0.00     0.000 C
ATOM      2  C2  GCU B   1      13.551  29.202  28.7080  0.00  0.00     0.000 C
ATOM      3  C3  GCU B   1      13.477  29.513  30.1950  0.00  0.00     0.000 C
ATOM      4  C4  GCU B   1      14.656  28.884  30.9220  0.00  0.00     0.000 C
ATOM      5  C5  GCU B   1      15.979  29.261  30.2530  0.00  0.00     0.000 C
ATOM      6  O5  GCU B   1      15.942  28.857  28.8780  0.00  0.00     0.000 O
ATOM      7   O  GCU B   1      12.580  29.954  27.9870  0.00  0.00     0.000 O
ATOM      9  HD  GCU B   1      11.880  29.637  27.5890  0.00  0.00     0.000 HD
ATOM      9   O  GCU B   1      12.252  29.028  30.7510  0.00  0.00     0.000 O
ATOM     11  HD  GCU B   1      11.551  28.711  30.3540  0.00  0.00     0.000 HD
ATOM     11   O  GCU B   1      14.654  29.334  32.2780  0.00  0.00     0.000 O
ATOM     13  HD  GCU B   1      13.954  29.016  31.8810  0.00  0.00     0.000 HD
ENDROOT
BRANCH 5 13
ATOM     13   C  GCU B   1      17.130  28.636  31.0040  0.00  0.00     0.000 C
ATOM     14   O  GCU B   1      17.482  29.089  32.1120  0.00  0.00     0.000 OA
ATOM     15   O  GCU B   1      17.683  27.647  30.4860  0.00  0.00     0.000 OA
ENDBRANCH 5 13
BRANCH 1 16
ATOM     16  O3  NAG B   2      15.532  29.043  27.0910  0.00  0.00     0.000 O
BRANCH 16 19
ATOM     17  C1  NAG B   2      16.736  30.471  23.8130  0.00  0.00     0.000 C
ATOM     18  C2  NAG B   2      15.735  30.096  24.8990  0.00  0.00     0.000 C
ATOM     19  C3  NAG B   2      16.465  29.568  26.1330  0.00  0.00     0.000 C
ATOM     20  C4  NAG B   2      17.427  28.447  25.7430  0.00  0.00     0.000 C
ATOM     21  C5  NAG B   2      18.377  28.937  24.6590  0.00  0.00     0.000 C
ATOM     22  O5  NAG B   2      17.606  29.366  23.5230  0.00  0.00     0.000 O
ATOM     23   O  NAG B   2      18.142  28.039  26.9140  0.00  0.00     0.000 O
ATOM     25  HD  NAG B   2      17.580  27.472  26.5770  0.00  0.00     0.000 HD
ATOM     25   C  NAG B   2      19.383  27.870  24.2290  0.00  0.00     0.000 C
ATOM     26   O  NAG B   2      18.763  26.846  23.4360  0.00  0.00     0.000 O
ATOM     28  HD  NAG B   2      18.201  26.280  23.0990  0.00  0.00     0.000 HD
BRANCH 18 30
ATOM     28   N  NAG B   2      14.941  31.296  24.7160  0.00  0.00     0.000 N
ATOM     30  HD  NAG B   2      14.365  30.722  25.0140  0.00  0.00     0.000 HD
ATOM     30   C  NAG B   2      13.612  31.342  24.8690  0.00  0.00     0.000 C
ATOM     31   C  NAG B   2      12.924  32.651  24.6000  0.00  0.00     0.000 C
ATOM     32   O  NAG B   2      12.972  30.367  25.2080  0.00  0.00     0.000 OA
ENDBRANCH 18 30
BRANCH 17 33
ATOM     33  O4  GCU B   3      15.987  30.925  22.6680  0.00  0.00     0.000 O
BRANCH 33 37
ATOM     34  C1  GCU B   3      17.157  33.151  19.3500  0.00  0.00     0.000 C
ATOM     35  C2  GCU B   3      17.477  31.656  19.3510  0.00  0.00     0.000 C
ATOM     36  C3  GCU B   3      16.628  30.956  20.3900  0.00  0.00     0.000 C
ATOM     37  C4  GCU B   3      16.829  31.618  21.7460  0.00  0.00     0.000 C
ATOM     38  C5  GCU B   3      16.484  33.105  21.6490  0.00  0.00     0.000 C
ATOM     39  O5  GCU B   3      17.325  33.705  20.6580  0.00  0.00     0.000 O
ATOM     40   O  GCU B   3      17.207  31.124  18.0520  0.00  0.00     0.000 O
ATOM     42  HD  GCU B   3      16.795  30.478  17.6490  0.00  0.00     0.000 HD
ATOM     42   O  GCU B   3      16.955  29.557  20.4690  0.00  0.00     0.000 O
ATOM     44  HD  GCU B   3      16.543  28.910  20.0660  0.00  0.00     0.000 HD
BRANCH 38 44
ATOM     44   C  GCU B   3      16.685  33.836  22.9530  0.00  0.00     0.000 C
ATOM     45   O  GCU B   3      17.843  34.039  23.3470  0.00  0.00     0.000 OA
ATOM     46   O  GCU B   3      15.695  34.221  23.6040  0.00  0.00     0.000 OA
ENDBRANCH 38 44
BRANCH 34 47
ATOM     47  O3  NAG B   4      18.044  33.778  18.5910  0.00  0.00     0.000 O
BRANCH 47 50
ATOM     48  C1  NAG B   4      19.683  35.855  15.9920  0.00  0.00     0.000 C
ATOM     49  C2  NAG B   4      19.465  34.662  16.9170  0.00  0.00     0.000 C
ATOM     50  C3  NAG B   4      18.036  34.611  17.4320  0.00  0.00     0.000 C
ATOM     51  C4  NAG B   4      17.461  35.985  17.7970  0.00  0.00     0.000 C
ATOM     52  C5  NAG B   4      17.456  36.916  16.5960  0.00  0.00     0.000 C
ATOM     53  O5  NAG B   4      18.655  36.848  15.7930  0.00  0.00     0.000 O
BRANCH 49 56
ATOM     54   N  NAG B   4      19.480  33.710  15.7920  0.00  0.00     0.000 N
ATOM     56  HD  NAG B   4      19.187  33.868  14.9920  0.00  0.00     0.000 HD
ATOM     56   C  NAG B   4      19.811  31.632  14.5830  0.00  0.00     0.000 C
ATOM     57   O  NAG B   4      19.990  31.802  16.9160  0.00  0.00     0.000 OA
ATOM     58   C  NAG B   4      19.760  32.394  15.8720  0.00  0.00     0.000 C
ENDBRANCH 49 56
ATOM     59   O  NAG B   4      16.834  39.228  15.9960  0.00  0.00     0.000 O
ATOM     61  HD  NAG B   4      17.440  38.669  16.2610  0.00  0.00     0.000 HD
ATOM     61   O  NAG B   4      16.834  39.228  15.9960  0.00  0.00     0.000 O
ATOM     63  HD  NAG B   4      17.440  38.669  16.2610  0.00  0.00     0.000 HD
ENDBRANCH 47 50
ENDBRANCH 34 47
ENDBRANCH 33 37
ENDBRANCH 17 33
ENDBRANCH 16 19
ENDBRANCH 1 16
TORSDOF 10
ENDMDL
MODEL 7
REMARK VINA RESULT:      -6.5      2.503      4.016
ROOT
ATOM      1  C1  GCU B   1      20.379  27.572  15.4580  0.00  0.00     0.000 C
ATOM      2  C2  GCU B   1      21.178  27.554  16.7520  0.00  0.00     0.000 C
ATOM      3  C3  GCU B   1      20.842  28.769  17.6020  0.00  0.00     0.000 C
ATOM      4  C4  GCU B   1      20.973  30.040  16.7770  0.00  0.00     0.000 C
ATOM      5  C5  GCU B   1      20.182  29.932  15.4710  0.00  0.00     0.000 C
ATOM      6  O5  GCU B   1      20.640  28.788  14.7390  0.00  0.00     0.000 O
ATOM      7   O  GCU B   1      20.857  26.351  17.4420  0.00  0.00     0.000 O
ATOM      9  HD  GCU B   1      21.422  25.769  17.7460  0.00  0.00     0.000 HD
ATOM      9   O  GCU B   1      21.703  28.841  18.7410  0.00  0.00     0.000 O
ATOM     11  HD  GCU B   1      22.268  28.260  19.0450  0.00  0.00     0.000 HD
ATOM     11   O  GCU B   1      20.488  31.142  17.5460  0.00  0.00     0.000 O
ATOM     13  HD  GCU B   1      21.053  30.560  17.8500  0.00  0.00     0.000 HD
ENDROOT
BRANCH 5 13
ATOM     13   C  GCU B   1      20.319  31.212  14.6810  0.00  0.00     0.000 C
ATOM     14   O  GCU B   1      19.638  32.214  14.9800  0.00  0.00     0.000 OA
ATOM     15   O  GCU B   1      21.150  31.226  13.7520  0.00  0.00     0.000 OA
ENDBRANCH 5 13
BRANCH 1 16
ATOM     16  O3  NAG B   2      20.699  27.000  14.2950  0.00  0.00     0.000 O
BRANCH 16 19
ATOM     17  C1  NAG B   2      19.429  24.087  12.2640  0.00  0.00     0.000 C
ATOM     18  C2  NAG B   2      20.078  24.799  13.4430  0.00  0.00     0.000 C
ATOM     19  C3  NAG B   2      19.938  26.313  13.2900  0.00  0.00     0.000 C
ATOM     20  C4  NAG B   2      20.448  26.759  11.9200  0.00  0.00     0.000 C
ATOM     21  C5  NAG B   2      19.728  25.985  10.8250  0.00  0.00     0.000 C
ATOM     22  O5  NAG B   2      19.956  24.579  11.0210  0.00  0.00     0.000 O
ATOM     23   O  NAG B   2      20.225  28.168  11.7930  0.00  0.00     0.000 O
ATOM     25  HD  NAG B   2      21.048  27.901  11.8470  0.00  0.00     0.000 HD
ATOM     25   C  NAG B   2      20.177  26.391   9.4230  0.00  0.00     0.000 C
ATOM     26   O  NAG B   2      21.490  25.894   9.1210  0.00  0.00     0.000 O
ATOM     28  HD  NAG B   2      22.312  25.628   9.1760  0.00  0.00     0.000 HD
BRANCH 18 30
ATOM     28   N  NAG B   2      20.549  23.725  14.2970  0.00  0.00     0.000 N
ATOM     30  HD  NAG B   2      19.922  24.092  14.7680  0.00  0.00     0.000 HD
ATOM     30   C  NAG B   2      20.133  23.535  15.5550  0.00  0.00     0.000 C
ATOM     31   C  NAG B   2      20.749  22.403  16.3290  0.00  0.00     0.000 C
ATOM     32   O  NAG B   2      19.292  24.247  16.0660  0.00  0.00     0.000 OA
ENDBRANCH 18 30
BRANCH 17 33
ATOM     33  O4  GCU B   3      19.626  22.670  12.4480  0.00  0.00     0.000 O
BRANCH 33 37
ATOM     34  C1  GCU B   3      17.231  19.420  11.4320  0.00  0.00     0.000 C
ATOM     35  C2  GCU B   3      17.944  20.159  10.2980  0.00  0.00     0.000 C
ATOM     36  C3  GCU B   3      19.066  21.000  10.8680  0.00  0.00     0.000 C
ATOM     37  C4  GCU B   3      18.516  21.927  11.9420  0.00  0.00     0.000 C
ATOM     38  C5  GCU B   3      17.826  21.103  13.0300  0.00  0.00     0.000 C
ATOM     39  O5  GCU B   3      16.775  20.341  12.4270  0.00  0.00     0.000 O
ATOM     40   O  GCU B   3      18.464  19.199   9.3760  0.00  0.00     0.000 O
ATOM     42  HD  GCU B   3      19.186  18.980   8.9500  0.00  0.00     0.000 HD
ATOM     42   O  GCU B   3      19.714  21.766   9.8370  0.00  0.00     0.000 O
ATOM     44  HD  GCU B   3      20.436  21.547   9.4110  0.00  0.00     0.000 HD
BRANCH 38 44
ATOM     44   C  GCU B   3      17.231  21.959  14.1200  0.00  0.00     0.000 C
ATOM     45   O  GCU B   3      16.655  23.010  13.8010  0.00  0.00     0.000 OA
ATOM     46   O  GCU B   3      17.324  21.598  15.3090  0.00  0.00     0.000 OA
ENDBRANCH 38 44
BRANCH 34 47
ATOM     47  O3  NAG B   4      16.132  18.857  10.9500  0.00  0.00     0.000 O
BRANCH 47 50
ATOM     48  C1  NAG B   4      13.705  16.056  10.8220  0.00  0.00     0.000 C
ATOM     49  C2  NAG B   4      15.055  16.760  10.7350  0.00  0.00     0.000 C
ATOM     50  C3  NAG B   4      15.031  18.101  11.4510  0.00  0.00     0.000 C
ATOM     51  C4  NAG B   4      13.734  18.890  11.2410  0.00  0.00     0.000 C
ATOM     52  C5  NAG B   4      12.528  18.111  11.7390  0.00  0.00     0.000 C
ATOM     53  O5  NAG B   4      12.555  16.706  11.4040  0.00  0.00     0.000 O
BRANCH 49 56
ATOM     54   N  NAG B   4      15.684  15.891  11.7440  0.00  0.00     0.000 N
ATOM     56  HD  NAG B   4      15.328  15.648  12.4950  0.00  0.00     0.000 HD
ATOM     56   C  NAG B   4      17.377  14.532  12.8300  0.00  0.00     0.000 C
ATOM     57   O  NAG B   4      17.814  15.865  10.9500  0.00  0.00     0.000 OA
ATOM     58   C  NAG B   4      16.974  15.499  11.7590  0.00  0.00     0.000 C
ENDBRANCH 49 56
ATOM     59   O  NAG B   4      10.074  18.322  11.9050  0.00  0.00     0.000 O
ATOM     61  HD  NAG B   4      10.766  18.049  11.4620  0.00  0.00     0.000 HD
ATOM     61   O  NAG B   4      10.074  18.322  11.9050  0.00  0.00     0.000 O
ATOM     63  HD  NAG B   4      10.766  18.049  11.4620  0.00  0.00     0.000 HD
ENDBRANCH 47 50
ENDBRANCH 34 47
ENDBRANCH 33 37
ENDBRANCH 17 33
ENDBRANCH 16 19
ENDBRANCH 1 16
TORSDOF 10
ENDMDL
MODEL 8
REMARK VINA RESULT:      -6.5      3.402      5.710
ROOT
ATOM      1  C1  GCU B   1      19.282  26.521  17.4790  0.00  0.00     0.000 C
ATOM      2  C2  GCU B   1      19.926  26.291  18.8370  0.00  0.00     0.000 C
ATOM      3  C3  GCU B   1      19.368  27.266  19.8620  0.00  0.00     0.000 C
ATOM      4  C4  GCU B   1      19.457  28.690  19.3350  0.00  0.00     0.000 C
ATOM      5  C5  GCU B   1      18.837  28.800  17.9410  0.00  0.00     0.000 C
ATOM      6  O5  GCU B   1      19.494  27.879  17.0610  0.00  0.00     0.000 O
ATOM      7   O  GCU B   1      19.657  24.946  19.2220  0.00  0.00     0.000 O
ATOM      9  HD  GCU B   1      20.242  24.361  19.4750  0.00  0.00     0.000 HD
ATOM      9   O  GCU B   1      20.080  27.162  21.0970  0.00  0.00     0.000 O
ATOM     11  HD  GCU B   1      20.666  26.576  21.3510  0.00  0.00     0.000 HD
ATOM     11   O  GCU B   1      18.773  29.560  20.2380  0.00  0.00     0.000 O
ATOM     13  HD  GCU B   1      19.359  28.974  20.4920  0.00  0.00     0.000 HD
ENDROOT
BRANCH 5 13
ATOM     13   C  GCU B   1      18.927  30.225  17.4500  0.00  0.00     0.000 C
ATOM     14   O  GCU B   1      18.110  31.082  17.8450  0.00  0.00     0.000 OA
ATOM     15   O  GCU B   1      19.856  30.505  16.6680  0.00  0.00     0.000 OA
ENDBRANCH 5 13
BRANCH 1 16
ATOM     16  O3  NAG B   2      19.792  26.237  16.2780  0.00  0.00     0.000 O
BRANCH 16 19
ATOM     17  C1  NAG B   2      18.981  23.762  13.5490  0.00  0.00     0.000 C
ATOM     18  C2  NAG B   2      19.413  24.238  14.9300  0.00  0.00     0.000 C
ATOM     19  C3  NAG B   2      19.222  25.749  15.0540  0.00  0.00     0.000 C
ATOM     20  C4  NAG B   2      19.907  26.468  13.8920  0.00  0.00     0.000 C
ATOM     21  C5  NAG B   2      19.395  25.915  12.5700  0.00  0.00     0.000 C
ATOM     22  O5  NAG B   2      19.661  24.502  12.5220  0.00  0.00     0.000 O
ATOM     23   O  NAG B   2      19.636  27.870  14.0060  0.00  0.00     0.000 O
ATOM     25  HD  NAG B   2      20.453  27.613  14.1350  0.00  0.00     0.000 HD
ATOM     25   C  NAG B   2      20.025  26.600  11.3590  0.00  0.00     0.000 C
ATOM     26   O  NAG B   2      21.391  26.198  11.1730  0.00  0.00     0.000 O
ATOM     28  HD  NAG B   2      22.209  25.942  11.3020  0.00  0.00     0.000 HD
BRANCH 18 30
ATOM     28   N  NAG B   2      19.773  23.001  15.5970  0.00  0.00     0.000 N
ATOM     30  HD  NAG B   2      19.102  23.288  16.0630  0.00  0.00     0.000 HD
ATOM     30   C  NAG B   2      19.218  22.581  16.7400  0.00  0.00     0.000 C
ATOM     31   C  NAG B   2      19.730  21.298  17.3330  0.00  0.00     0.000 C
ATOM     32   O  NAG B   2      18.333  23.205  17.2900  0.00  0.00     0.000 OA
ENDBRANCH 18 30
BRANCH 17 33
ATOM     33  O4  GCU B   3      19.218  22.342  13.4840  0.00  0.00     0.000 O
BRANCH 33 37
ATOM     34  C1  GCU B   3      17.232  19.330  11.4060  0.00  0.00     0.000 C
ATOM     35  C2  GCU B   3      18.157  20.251  10.6090  0.00  0.00     0.000 C
ATOM     36  C3  GCU B   3      19.090  20.975  11.5560  0.00  0.00     0.000 C
ATOM     37  C4  GCU B   3      18.278  21.704  12.6170  0.00  0.00     0.000 C
ATOM     38  C5  GCU B   3      17.389  20.705  13.3610  0.00  0.00     0.000 C
ATOM     39  O5  GCU B   3      16.530  20.066  12.4120  0.00  0.00     0.000 O
ATOM     40   O  GCU B   3      18.907  19.465   9.6810  0.00  0.00     0.000 O
ATOM     42  HD  GCU B   3      19.713  19.320   9.4010  0.00  0.00     0.000 HD
ATOM     42   O  GCU B   3      19.928  21.906  10.8480  0.00  0.00     0.000 O
ATOM     44  HD  GCU B   3      20.735  21.761  10.5680  0.00  0.00     0.000 HD
BRANCH 38 44
ATOM     44   C  GCU B   3      16.532  21.361  14.4150  0.00  0.00     0.000 C
ATOM     45   O  GCU B   3      15.817  22.320  14.0860  0.00  0.00     0.000 OA
ATOM     46   O  GCU B   3      16.555  20.932  15.5840  0.00  0.00     0.000 OA
ENDBRANCH 38 44
BRANCH 34 47
ATOM     47  O3  NAG B   4      16.292  18.865  10.5950  0.00  0.00     0.000 O
BRANCH 47 50
ATOM     48  C1  NAG B   4      14.892  15.492  11.2450  0.00  0.00     0.000 C
ATOM     49  C2  NAG B   4      15.065  17.001  11.3860  0.00  0.00     0.000 C
ATOM     50  C3  NAG B   4      15.790  17.593  10.1880  0.00  0.00     0.000 C
ATOM     51  C4  NAG B   4      16.948  16.728   9.6770  0.00  0.00     0.000 C
ATOM     52  C5  NAG B   4      16.462  15.352   9.2530  0.00  0.00     0.000 C
ATOM     53  O5  NAG B   4      15.493  14.767  10.1520  0.00  0.00     0.000 O
BRANCH 49 56
ATOM     54   N  NAG B   4      13.790  17.634  11.0070  0.00  0.00     0.000 N
ATOM     56  HD  NAG B   4      13.651  18.104  10.2930  0.00  0.00     0.000 HD
ATOM     56   C  NAG B   4      11.476  18.349  11.1690  0.00  0.00     0.000 C
ATOM     57   O  NAG B   4      12.651  17.393  12.9590  0.00  0.00     0.000 OA
ATOM     58   C  NAG B   4      12.701  17.754  11.7930  0.00  0.00     0.000 C
ENDBRANCH 49 56
ATOM     59   O  NAG B   4      17.341  13.229   8.3510  0.00  0.00     0.000 O
ATOM     61  HD  NAG B   4      17.121  13.707   9.0390  0.00  0.00     0.000 HD
ATOM     61   O  NAG B   4      17.341  13.229   8.3510  0.00  0.00     0.000 O
ATOM     63  HD  NAG B   4      17.121  13.707   9.0390  0.00  0.00     0.000 HD
ENDBRANCH 47 50
ENDBRANCH 34 47
ENDBRANCH 33 37
ENDBRANCH 17 33
ENDBRANCH 16 19
ENDBRANCH 1 16
TORSDOF 10
ENDMDL
MODEL 9
REMARK VINA RESULT:      -6.5     12.900     18.698
ROOT
ATOM      1  C1  GCU B   1      15.325  43.419  15.4740  0.00  0.00     0.000 C
ATOM      2  C2  GCU B   1      14.322  44.542  15.6910  0.00  0.00     0.000 C
ATOM      3  C3  GCU B   1      13.691  44.953  14.3700  0.00  0.00     0.000 C
ATOM      4  C4  GCU B   1      14.771  45.240  13.3380  0.00  0.00     0.000 C
ATOM      5  C5  GCU B   1      15.760  44.077  13.2410  0.00  0.00     0.000 C
ATOM      6  O5  GCU B   1      16.329  43.835  14.5350  0.00  0.00     0.000 O
ATOM      7   O  GCU B   1      13.332  44.067  16.5980  0.00  0.00     0.000 O
ATOM      9  HD  GCU B   1      13.075  44.460  17.3260  0.00  0.00     0.000 HD
ATOM      9   O  GCU B   1      12.869  46.110  14.5440  0.00  0.00     0.000 O
ATOM     11  HD  GCU B   1      12.612  46.503  15.2720  0.00  0.00     0.000 HD
ATOM     11   O  GCU B   1      14.151  45.455  12.0700  0.00  0.00     0.000 O
ATOM     13  HD  GCU B   1      13.895  45.847  12.7980  0.00  0.00     0.000 HD
ENDROOT
BRANCH 5 13
ATOM     13   C  GCU B   1      16.811  44.383  12.2010  0.00  0.00     0.000 C
ATOM     14   O  GCU B   1      16.573  44.198  10.9900  0.00  0.00     0.000 OA
ATOM     15   O  GCU B   1      17.897  44.847  12.6010  0.00  0.00     0.000 OA
ENDBRANCH 5 13
BRANCH 1 16
ATOM     16  O3  NAG B   2      16.382  43.115  16.2310  0.00  0.00     0.000 O
BRANCH 16 19
ATOM     17  C1  NAG B   2      17.284  40.010  18.1730  0.00  0.00     0.000 C
ATOM     18  C2  NAG B   2      16.441  41.206  17.7490  0.00  0.00     0.000 C
ATOM     19  C3  NAG B   2      17.061  41.885  16.5300  0.00  0.00     0.000 C
ATOM     20  C4  NAG B   2      18.532  42.206  16.7900  0.00  0.00     0.000 C
ATOM     21  C5  NAG B   2      19.272  40.941  17.2000  0.00  0.00     0.000 C
ATOM     22  O5  NAG B   2      18.651  40.400  18.3800  0.00  0.00     0.000 O
ATOM     23   O  NAG B   2      19.090  42.769  15.5970  0.00  0.00     0.000 O
ATOM     25  HD  NAG B   2      19.007  43.294  16.2800  0.00  0.00     0.000 HD
ATOM     25   C  NAG B   2      20.757  41.183  17.4620  0.00  0.00     0.000 C
ATOM     26   O  NAG B   2      20.970  41.889  18.6940  0.00  0.00     0.000 O
ATOM     28  HD  NAG B   2      20.888  42.414  19.3770  0.00  0.00     0.000 HD
BRANCH 18 30
ATOM     28   N  NAG B   2      15.328  41.101  18.6730  0.00  0.00     0.000 N
ATOM     30  HD  NAG B   2      14.947  41.041  17.8980  0.00  0.00     0.000 HD
ATOM     30   C  NAG B   2      14.044  41.069  18.2940  0.00  0.00     0.000 C
ATOM     31   C  NAG B   2      13.000  41.004  19.3740  0.00  0.00     0.000 C
ATOM     32   O  NAG B   2      13.721  41.094  17.1240  0.00  0.00     0.000 OA
ENDBRANCH 18 30
BRANCH 17 33
ATOM     33  O4  GCU B   3      16.669  39.436  19.3440  0.00  0.00     0.000 O
BRANCH 33 37
ATOM     34  C1  GCU B   3      16.448  35.466  20.5790  0.00  0.00     0.000 C
ATOM     35  C2  GCU B   3      17.586  36.321  21.1370  0.00  0.00     0.000 C
ATOM     36  C3  GCU B   3      17.267  37.787  20.9320  0.00  0.00     0.000 C
ATOM     37  C4  GCU B   3      16.982  38.047  19.4600  0.00  0.00     0.000 C
ATOM     38  C5  GCU B   3      15.832  37.153  18.9930  0.00  0.00     0.000 C
ATOM     39  O5  GCU B   3      16.201  35.787  19.2070  0.00  0.00     0.000 O
ATOM     40   O  GCU B   3      17.737  36.038  22.5300  0.00  0.00     0.000 O
ATOM     42  HD  GCU B   3      17.803  36.422  23.3030  0.00  0.00     0.000 HD
ATOM     42   O  GCU B   3      18.351  38.620  21.3810  0.00  0.00     0.000 O
ATOM     44  HD  GCU B   3      18.417  39.004  22.1550  0.00  0.00     0.000 HD
BRANCH 38 44
ATOM     44   C  GCU B   3      15.508  37.338  17.5320  0.00  0.00     0.000 C
ATOM     45   O  GCU B   3      16.345  36.982  16.6880  0.00  0.00     0.000 OA
ATOM     46   O  GCU B   3      14.415  37.835  17.1990  0.00  0.00     0.000 OA
ENDBRANCH 38 44
BRANCH 34 47
ATOM     47  O3  NAG B   4      16.828  34.197  20.5760  0.00  0.00     0.000 O
BRANCH 47 50
ATOM     48  C1  NAG B   4      17.541  30.686  19.6140  0.00  0.00     0.000 C
ATOM     49  C2  NAG B   4      17.075  31.844  20.4910  0.00  0.00     0.000 C
ATOM     50  C3  NAG B   4      16.813  33.096  19.6690  0.00  0.00     0.000 C
ATOM     51  C4  NAG B   4      17.846  33.334  18.5610  0.00  0.00     0.000 C
ATOM     52  C5  NAG B   4      17.882  32.172  17.5830  0.00  0.00     0.000 C
ATOM     53  O5  NAG B   4      17.814  30.872  18.2090  0.00  0.00     0.000 O
BRANCH 49 56
ATOM     54   N  NAG B   4      15.747  31.236  20.6830  0.00  0.00     0.000 N
ATOM     56  HD  NAG B   4      15.333  30.734  20.1110  0.00  0.00     0.000 HD
ATOM     56   C  NAG B   4      13.624  30.707  21.7340  0.00  0.00     0.000 C
ATOM     57   O  NAG B   4      15.073  32.368  22.5350  0.00  0.00     0.000 OA
ATOM     58   C  NAG B   4      14.883  31.517  21.6790  0.00  0.00     0.000 C
ENDBRANCH 49 56
ATOM     59   O  NAG B   4      19.073  31.451  15.5440  0.00  0.00     0.000 O
ATOM     61  HD  NAG B   4      19.013  31.446  16.4080  0.00  0.00     0.000 HD
ATOM     61   O  NAG B   4      19.073  31.451  15.5440  0.00  0.00     0.000 O
ATOM     63  HD  NAG B   4      19.013  31.446  16.4080  0.00  0.00     0.000 HD
ENDBRANCH 47 50
ENDBRANCH 34 47
ENDBRANCH 33 37
ENDBRANCH 17 33
ENDBRANCH 16 19
ENDBRANCH 1 16
TORSDOF 10
ENDMDL
MODEL 10
REMARK VINA RESULT:      -6.4     23.077     27.222
ROOT
ATOM      1  C1  GCU B   1       5.650  24.449  35.6670  0.00  0.00     0.000 C
ATOM      2  C2  GCU B   1       6.324  23.729  36.8250  0.00  0.00     0.000 C
ATOM      3  C3  GCU B   1       6.556  22.267  36.4790  0.00  0.00     0.000 C
ATOM      4  C4  GCU B   1       5.265  21.632  35.9850  0.00  0.00     0.000 C
ATOM      5  C5  GCU B   1       4.637  22.464  34.8650  0.00  0.00     0.000 C
ATOM      6  O5  GCU B   1       4.412  23.798  35.3410  0.00  0.00     0.000 O
ATOM      7   O  GCU B   1       7.559  24.388  37.0840  0.00  0.00     0.000 O
ATOM      9  HD  GCU B   1       7.829  24.686  37.8510  0.00  0.00     0.000 HD
ATOM      9   O  GCU B   1       7.042  21.551  37.6180  0.00  0.00     0.000 O
ATOM     11  HD  GCU B   1       7.311  21.848  38.3850  0.00  0.00     0.000 HD
ATOM     11   O  GCU B   1       5.550  20.317  35.5080  0.00  0.00     0.000 O
ATOM     13  HD  GCU B   1       5.819  20.614  36.2760  0.00  0.00     0.000 HD
ENDROOT
BRANCH 5 13
ATOM     13   C  GCU B   1       3.366  21.804  34.3860  0.00  0.00     0.000 C
ATOM     14   O  GCU B   1       2.259  22.170  34.8290  0.00  0.00     0.000 OA
ATOM     15   O  GCU B   1       3.474  20.914  33.5210  0.00  0.00     0.000 OA
ENDBRANCH 5 13
BRANCH 1 16
ATOM     16  O3  NAG B   2       4.881  25.539  35.7230  0.00  0.00     0.000 O
BRANCH 16 19
ATOM     17  C1  NAG B   2       4.155  28.154  33.1040  0.00  0.00     0.000 C
ATOM     18  C2  NAG B   2       5.004  27.262  34.0000  0.00  0.00     0.000 C
ATOM     19  C3  NAG B   2       4.120  26.262  34.7430  0.00  0.00     0.000 C
ATOM     20  C4  NAG B   2       2.985  26.988  35.4640  0.00  0.00     0.000 C
ATOM     21  C5  NAG B   2       2.207  27.841  34.4720  0.00  0.00     0.000 C
ATOM     22  O5  NAG B   2       3.107  28.782  33.8600  0.00  0.00     0.000 O
ATOM     23   O  NAG B   2       2.142  26.008  36.0800  0.00  0.00     0.000 O
ATOM     25  HD  NAG B   2       2.603  26.518  36.6060  0.00  0.00     0.000 HD
ATOM     25   C  NAG B   2       1.043  28.587  35.1210  0.00  0.00     0.000 C
ATOM     26   O  NAG B   2       1.499  29.678  35.9350  0.00  0.00     0.000 O
ATOM     28  HD  NAG B   2       1.961  30.188  36.4610  0.00  0.00     0.000 HD
BRANCH 18 30
ATOM     28   N  NAG B   2       6.025  27.081  32.9850  0.00  0.00     0.000 N
ATOM     30  HD  NAG B   2       6.457  26.952  33.7250  0.00  0.00     0.000 HD
ATOM     30   C  NAG B   2       7.324  26.903  33.2570  0.00  0.00     0.000 C
ATOM     31   C  NAG B   2       8.268  26.775  32.0950  0.00  0.00     0.000 C
ATOM     32   O  NAG B   2       7.738  26.849  34.3980  0.00  0.00     0.000 OA
ENDBRANCH 18 30
BRANCH 17 33
ATOM     33  O4  GCU B   3       5.038  29.094  32.4610  0.00  0.00     0.000 O
BRANCH 33 37
ATOM     34  C1  GCU B   3       4.302  32.013  29.5860  0.00  0.00     0.000 C
ATOM     35  C2  GCU B   3       3.875  32.310  31.0240  0.00  0.00     0.000 C
ATOM     36  C3  GCU B   3       4.586  31.364  31.9690  0.00  0.00     0.000 C
ATOM     37  C4  GCU B   3       4.325  29.926  31.5450  0.00  0.00     0.000 C
ATOM     38  C5  GCU B   3       4.783  29.724  30.0990  0.00  0.00     0.000 C
ATOM     39  O5  GCU B   3       4.069  30.639  29.2620  0.00  0.00     0.000 O
ATOM     40   O  GCU B   3       4.209  33.664  31.3360  0.00  0.00     0.000 O
ATOM     42  HD  GCU B   3       4.604  34.152  31.9330  0.00  0.00     0.000 HD
ATOM     42   O  GCU B   3       4.154  31.567  33.3260  0.00  0.00     0.000 O
ATOM     44  HD  GCU B   3       4.549  32.054  33.9230  0.00  0.00     0.000 HD
BRANCH 38 44
ATOM     44   C  GCU B   3       4.532  28.323  29.6000  0.00  0.00     0.000 C
ATOM     45   O  GCU B   3       5.352  27.436  29.8800  0.00  0.00     0.000 OA
ATOM     46   O  GCU B   3       3.513  28.082  28.9240  0.00  0.00     0.000 OA
ENDBRANCH 38 44
BRANCH 34 47
ATOM     47  O3  NAG B   4       3.525  32.700  28.7600  0.00  0.00     0.000 O
BRANCH 47 50
ATOM     48  C1  NAG B   4       3.012  35.285  26.1490  0.00  0.00     0.000 C
ATOM     49  C2  NAG B   4       3.426  34.699  27.4950  0.00  0.00     0.000 C
ATOM     50  C3  NAG B   4       3.586  33.189  27.4210  0.00  0.00     0.000 C
ATOM     51  C4  NAG B   4       2.512  32.495  26.5750  0.00  0.00     0.000 C
ATOM     52  C5  NAG B   4       2.524  33.005  25.1440  0.00  0.00     0.000 C
ATOM     53  O5  NAG B   4       2.691  34.435  25.0280  0.00  0.00     0.000 O
BRANCH 49 56
ATOM     54   N  NAG B   4       4.835  35.117  27.3880  0.00  0.00     0.000 N
ATOM     56  HD  NAG B   4       5.357  34.966  26.7140  0.00  0.00     0.000 HD
ATOM     56   C  NAG B   4       6.974  36.071  28.0260  0.00  0.00     0.000 C
ATOM     57   O  NAG B   4       5.211  35.747  29.5390  0.00  0.00     0.000 OA
ATOM     58   C  NAG B   4       5.590  35.621  28.3840  0.00  0.00     0.000 C
ENDBRANCH 49 56
ATOM     59   O  NAG B   4       1.328  32.678  23.0090  0.00  0.00     0.000 O
ATOM     61  HD  NAG B   4       1.411  33.114  23.7520  0.00  0.00     0.000 HD
ATOM     61   O  NAG B   4       1.328  32.678  23.0090  0.00  0.00     0.000 O
ATOM     63  HD  NAG B   4       1.411  33.114  23.7520  0.00  0.00     0.000 HD
ENDBRANCH 47 50
ENDBRANCH 34 47
ENDBRANCH 33 37
ENDBRANCH 17 33
ENDBRANCH 16 19
ENDBRANCH 1 16
TORSDOF 10
ENDMDL
MODEL 11
REMARK VINA RESULT:      -6.4     11.106     14.171
ROOT
ATOM      1  C1  GCU B   1      16.724  34.496  19.5200  0.00  0.00     0.000 C
ATOM      2  C2  GCU B   1      16.312  34.956  18.1310  0.00  0.00     0.000 C
ATOM      3  C3  GCU B   1      16.628  36.432  17.9440  0.00  0.00     0.000 C
ATOM      4  C4  GCU B   1      16.049  37.243  19.0930  0.00  0.00     0.000 C
ATOM      5  C5  GCU B   1      16.473  36.662  20.4440  0.00  0.00     0.000 C
ATOM      6  O5  GCU B   1      16.060  35.291  20.5160  0.00  0.00     0.000 O
ATOM      7   O  GCU B   1      17.023  34.165  17.1840  0.00  0.00     0.000 O
ATOM      9  HD  GCU B   1      16.677  33.723  16.5250  0.00  0.00     0.000 HD
ATOM      9   O  GCU B   1      16.100  36.907  16.7030  0.00  0.00     0.000 O
ATOM     11  HD  GCU B   1      15.753  36.466  16.0430  0.00  0.00     0.000 HD
ATOM     11   O  GCU B   1      16.505  38.592  18.9830  0.00  0.00     0.000 O
ATOM     13  HD  GCU B   1      16.158  38.150  18.3230  0.00  0.00     0.000 HD
ENDROOT
BRANCH 5 13
ATOM     13   C  GCU B   1      15.896  37.494  21.5640  0.00  0.00     0.000 C
ATOM     14   O  GCU B   1      16.435  38.571  21.8930  0.00  0.00     0.000 OA
ATOM     15   O  GCU B   1      14.859  37.076  22.1140  0.00  0.00     0.000 OA
ENDBRANCH 5 13
BRANCH 1 16
ATOM     16  O3  NAG B   2      16.221  33.478  20.2230  0.00  0.00     0.000 O
BRANCH 16 19
ATOM     17  C1  NAG B   2      17.653  30.179  21.3580  0.00  0.00     0.000 C
ATOM     18  C2  NAG B   2      17.224  31.259  20.3730  0.00  0.00     0.000 C
ATOM     19  C3  NAG B   2      16.798  32.520  21.1230  0.00  0.00     0.000 C
ATOM     20  C4  NAG B   2      15.755  32.180  22.1870  0.00  0.00     0.000 C
ATOM     21  C5  NAG B   2      16.294  31.097  23.1110  0.00  0.00     0.000 C
ATOM     22  O5  NAG B   2      16.621  29.936  22.3270  0.00  0.00     0.000 O
ATOM     23   O  NAG B   2      15.445  33.374  22.9130  0.00  0.00     0.000 O
ATOM     25  HD  NAG B   2      14.822  33.046  22.4090  0.00  0.00     0.000 HD
ATOM     25   C  NAG B   2      15.308  30.717  24.2130  0.00  0.00     0.000 C
ATOM     26   O  NAG B   2      14.211  29.945  23.7000  0.00  0.00     0.000 O
ATOM     28  HD  NAG B   2      13.588  29.617  23.1970  0.00  0.00     0.000 HD
BRANCH 18 30
ATOM     28   N  NAG B   2      18.348  31.046  19.4830  0.00  0.00     0.000 N
ATOM     30  HD  NAG B   2      17.726  31.329  18.9510  0.00  0.00     0.000 HD
ATOM     30   C  NAG B   2      18.276  31.157  18.1500  0.00  0.00     0.000 C
ATOM     31   C  NAG B   2      19.519  30.860  17.3580  0.00  0.00     0.000 C
ATOM     32   O  NAG B   2      17.249  31.481  17.5890  0.00  0.00     0.000 OA
ENDBRANCH 18 30
BRANCH 17 33
ATOM     33  O4  GCU B   3      18.007  29.008  20.5940  0.00  0.00     0.000 O
BRANCH 33 37
ATOM     34  C1  GCU B   3      20.237  25.652  21.6370  0.00  0.00     0.000 C
ATOM     35  C2  GCU B   3      18.750  25.654  21.9920  0.00  0.00     0.000 C
ATOM     36  C3  GCU B   3      18.037  26.716  21.1820  0.00  0.00     0.000 C
ATOM     37  C4  GCU B   3      18.712  28.063  21.3990  0.00  0.00     0.000 C
ATOM     38  C5  GCU B   3      20.191  27.965  21.0170  0.00  0.00     0.000 C
ATOM     39  O5  GCU B   3      20.803  26.952  21.8220  0.00  0.00     0.000 O
ATOM     40   O  GCU B   3      18.203  24.365  21.7050  0.00  0.00     0.000 O
ATOM     42  HD  GCU B   3      17.545  23.975  21.3000  0.00  0.00     0.000 HD
ATOM     42   O  GCU B   3      16.646  26.796  21.5430  0.00  0.00     0.000 O
ATOM     44  HD  GCU B   3      15.988  26.406  21.1380  0.00  0.00     0.000 HD
BRANCH 38 44
ATOM     44   C  GCU B   3      20.934  29.260  21.2310  0.00  0.00     0.000 C
ATOM     45   O  GCU B   3      21.197  29.609  22.3910  0.00  0.00     0.000 OA
ATOM     46   O  GCU B   3      21.270  29.948  20.2480  0.00  0.00     0.000 OA
ENDBRANCH 38 44
BRANCH 34 47
ATOM     47  O3  NAG B   4      20.879  24.869  22.4930  0.00  0.00     0.000 O
BRANCH 47 50
ATOM     48  C1  NAG B   4      21.418  23.819  26.0090  0.00  0.00     0.000 C
ATOM     49  C2  NAG B   4      21.281  24.769  24.8240  0.00  0.00     0.000 C
ATOM     50  C3  NAG B   4      20.568  24.105  23.6570  0.00  0.00     0.000 C
ATOM     51  C4  NAG B   4      20.979  22.645  23.4320  0.00  0.00     0.000 C
ATOM     52  C5  NAG B   4      20.689  21.796  24.6590  0.00  0.00     0.000 C
ATOM     53  O5  NAG B   4      21.025  22.434  25.9110  0.00  0.00     0.000 O
BRANCH 49 56
ATOM     54   N  NAG B   4      20.143  25.543  25.3510  0.00  0.00     0.000 N
ATOM     56  HD  NAG B   4      19.360  25.226  25.5400  0.00  0.00     0.000 HD
ATOM     56   C  NAG B   4      18.854  27.460  26.0940  0.00  0.00     0.000 C
ATOM     57   O  NAG B   4      20.933  27.650  25.0260  0.00  0.00     0.000 OA
ATOM     58   C  NAG B   4      20.070  26.887  25.4340  0.00  0.00     0.000 C
ENDBRANCH 49 56
ATOM     59   O  NAG B   4      20.920  19.468  25.4480  0.00  0.00     0.000 O
ATOM     61  HD  NAG B   4      21.248  20.268  25.3930  0.00  0.00     0.000 HD
ATOM     61   O  NAG B   4      20.920  19.468  25.4480  0.00  0.00     0.000 O
ATOM     63  HD  NAG B   4      21.248  20.268  25.3930  0.00  0.00     0.000 HD
ENDBRANCH 47 50
ENDBRANCH 34 47
ENDBRANCH 33 37
ENDBRANCH 17 33
ENDBRANCH 16 19
ENDBRANCH 1 16
TORSDOF 10
ENDMDL
MODEL 12
REMARK VINA RESULT:      -6.4     20.671     25.228
ROOT
ATOM      1  C1  GCU B   1       5.768  24.824  35.3340  0.00  0.00     0.000 C
ATOM      2  C2  GCU B   1       5.334  24.968  36.7850  0.00  0.00     0.000 C
ATOM      3  C3  GCU B   1       5.182  23.601  37.4330  0.00  0.00     0.000 C
ATOM      4  C4  GCU B   1       4.296  22.709  36.5780  0.00  0.00     0.000 C
ATOM      5  C5  GCU B   1       4.781  22.681  35.1270  0.00  0.00     0.000 C
ATOM      6  O5  GCU B   1       4.817  24.021  34.6180  0.00  0.00     0.000 O
ATOM      7   O  GCU B   1       6.325  25.738  37.4580  0.00  0.00     0.000 O
ATOM      9  HD  GCU B   1       6.184  26.447  37.9350  0.00  0.00     0.000 HD
ATOM      9   O  GCU B   1       4.624  23.724  38.7440  0.00  0.00     0.000 O
ATOM     11  HD  GCU B   1       4.483  24.433  39.2210  0.00  0.00     0.000 HD
ATOM     11   O  GCU B   1       4.311  21.388  37.1190  0.00  0.00     0.000 O
ATOM     13  HD  GCU B   1       4.170  22.097  37.5960  0.00  0.00     0.000 HD
ENDROOT
BRANCH 5 13
ATOM     13   C  GCU B   1       3.892  21.779  34.3060  0.00  0.00     0.000 C
ATOM     14   O  GCU B   1       3.720  20.588  34.6390  0.00  0.00     0.000 OA
ATOM     15   O  GCU B   1       3.326  22.279  33.3150  0.00  0.00     0.000 OA
ENDBRANCH 5 13
BRANCH 1 16
ATOM     16  O3  NAG B   2       5.561  25.683  34.3340  0.00  0.00     0.000 O
BRANCH 16 19
ATOM     17  C1  NAG B   2       7.749  27.925  32.2330  0.00  0.00     0.000 C
ATOM     18  C2  NAG B   2       7.075  27.403  33.4960  0.00  0.00     0.000 C
ATOM     19  C3  NAG B   2       6.348  26.091  33.2040  0.00  0.00     0.000 C
ATOM     20  C4  NAG B   2       5.412  26.256  32.0080  0.00  0.00     0.000 C
ATOM     21  C5  NAG B   2       6.193  26.776  30.8100  0.00  0.00     0.000 C
ATOM     22  O5  NAG B   2       6.800  28.033  31.1600  0.00  0.00     0.000 O
ATOM     23   O  NAG B   2       4.813  24.987  31.7250  0.00  0.00     0.000 O
ATOM     25  HD  NAG B   2       4.294  25.609  32.0280  0.00  0.00     0.000 HD
ATOM     25   C  NAG B   2       5.322  26.951  29.5670  0.00  0.00     0.000 C
ATOM     26   O  NAG B   2       4.451  28.087  29.6860  0.00  0.00     0.000 O
ATOM     28  HD  NAG B   2       3.932  28.710  29.9890  0.00  0.00     0.000 HD
BRANCH 18 30
ATOM     28   N  NAG B   2       7.501  28.373  34.4860  0.00  0.00     0.000 N
ATOM     30  HD  NAG B   2       7.838  27.631  34.7790  0.00  0.00     0.000 HD
ATOM     30   C  NAG B   2       8.138  28.053  35.6190  0.00  0.00     0.000 C
ATOM     31   C  NAG B   2       8.474  29.169  36.5680  0.00  0.00     0.000 C
ATOM     32   O  NAG B   2       8.437  26.906  35.8840  0.00  0.00     0.000 OA
ENDBRANCH 18 30
BRANCH 17 33
ATOM     33  O4  GCU B   3       8.384  29.176  32.5630  0.00  0.00     0.000 O
BRANCH 33 37
ATOM     34  C1  GCU B   3      11.746  31.040  30.9650  0.00  0.00     0.000 C
ATOM     35  C2  GCU B   3      10.497  30.955  30.0880  0.00  0.00     0.000 C
ATOM     36  C3  GCU B   3       9.291  30.652  30.9500  0.00  0.00     0.000 C
ATOM     37  C4  GCU B   3       9.547  29.389  31.7610  0.00  0.00     0.000 C
ATOM     38  C5  GCU B   3      10.810  29.568  32.6070  0.00  0.00     0.000 C
ATOM     39  O5  GCU B   3      11.908  29.843  31.7320  0.00  0.00     0.000 O
ATOM     40   O  GCU B   3      10.320  32.202  29.4120  0.00  0.00     0.000 O
ATOM     42  HD  GCU B   3       9.729  32.812  29.2440  0.00  0.00     0.000 HD
ATOM     42   O  GCU B   3       8.107  30.493  30.1480  0.00  0.00     0.000 O
ATOM     44  HD  GCU B   3       7.515  31.102  29.9800  0.00  0.00     0.000 HD
BRANCH 38 44
ATOM     44   C  GCU B   3      11.142  28.343  33.4210  0.00  0.00     0.000 C
ATOM     45   O  GCU B   3      10.642  27.257  33.0920  0.00  0.00     0.000 OA
ATOM     46   O  GCU B   3      11.909  28.441  34.3990  0.00  0.00     0.000 OA
ENDBRANCH 38 44
BRANCH 34 47
ATOM     47  O3  NAG B   4      12.815  31.099  30.1830  0.00  0.00     0.000 O
BRANCH 47 50
ATOM     48  C1  NAG B   4      15.766  29.541  28.5650  0.00  0.00     0.000 C
ATOM     49  C2  NAG B   4      14.852  29.995  29.6980  0.00  0.00     0.000 C
ATOM     50  C3  NAG B   4      13.445  30.281  29.1990  0.00  0.00     0.000 C
ATOM     51  C4  NAG B   4      13.404  30.994  27.8420  0.00  0.00     0.000 C
ATOM     52  C5  NAG B   4      14.088  30.167  26.7650  0.00  0.00     0.000 C
ATOM     53  O5  NAG B   4      15.319  29.544  27.1930  0.00  0.00     0.000 O
BRANCH 49 56
ATOM     54   N  NAG B   4      14.585  28.666  30.2760  0.00  0.00     0.000 N
ATOM     56  HD  NAG B   4      14.161  28.020  29.8840  0.00  0.00     0.000 HD
ATOM     56   C  NAG B   4      14.528  26.871  31.9090  0.00  0.00     0.000 C
ATOM     57   O  NAG B   4      15.152  29.069  32.4390  0.00  0.00     0.000 OA
ATOM     58   C  NAG B   4      14.776  28.307  31.5610  0.00  0.00     0.000 C
ENDBRANCH 49 56
ATOM     59   O  NAG B   4      14.635  30.273  24.3610  0.00  0.00     0.000 O
ATOM     61  HD  NAG B   4      14.871  30.417  25.1810  0.00  0.00     0.000 HD
ATOM     61   O  NAG B   4      14.635  30.273  24.3610  0.00  0.00     0.000 O
ATOM     63  HD  NAG B   4      14.871  30.417  25.1810  0.00  0.00     0.000 HD
ENDBRANCH 47 50
ENDBRANCH 34 47
ENDBRANCH 33 37
ENDBRANCH 17 33
ENDBRANCH 16 19
ENDBRANCH 1 16
TORSDOF 10
ENDMDL
MODEL 13
REMARK VINA RESULT:      -6.4     11.524     17.978
ROOT
ATOM      1  C1  GCU B   1      15.451  42.559  16.4890  0.00  0.00     0.000 C
ATOM      2  C2  GCU B   1      14.305  43.462  16.9180  0.00  0.00     0.000 C
ATOM      3  C3  GCU B   1      13.370  43.728  15.7490  0.00  0.00     0.000 C
ATOM      4  C4  GCU B   1      14.161  44.213  14.5440  0.00  0.00     0.000 C
ATOM      5  C5  GCU B   1      15.324  43.269  14.2330  0.00  0.00     0.000 C
ATOM      6  O5  GCU B   1      16.161  43.157  15.3920  0.00  0.00     0.000 O
ATOM      7   O  GCU B   1      13.614  42.809  17.9780  0.00  0.00     0.000 O
ATOM      9  HD  GCU B   1      13.426  43.151  18.7520  0.00  0.00     0.000 HD
ATOM      9   O  GCU B   1      12.384  44.701  16.1030  0.00  0.00     0.000 O
ATOM     11  HD  GCU B   1      12.196  45.042  16.8770  0.00  0.00     0.000 HD
ATOM     11   O  GCU B   1      13.287  44.290  13.4170  0.00  0.00     0.000 O
ATOM     13  HD  GCU B   1      13.098  44.631  14.1910  0.00  0.00     0.000 HD
ENDROOT
BRANCH 5 13
ATOM     13   C  GCU B   1      16.082  43.768  13.0250  0.00  0.00     0.000 C
ATOM     14   O  GCU B   1      16.070  44.980  12.7290  0.00  0.00     0.000 OA
ATOM     15   O  GCU B   1      16.731  42.930  12.3700  0.00  0.00     0.000 OA
ENDBRANCH 5 13
BRANCH 1 16
ATOM     16  O3  NAG B   2      16.669  42.477  17.0280  0.00  0.00     0.000 O
BRANCH 16 19
ATOM     17  C1  NAG B   2      19.010  39.546  17.4240  0.00  0.00     0.000 C
ATOM     18  C2  NAG B   2      17.713  40.335  17.5520  0.00  0.00     0.000 C
ATOM     19  C3  NAG B   2      17.809  41.643  16.7700  0.00  0.00     0.000 C
ATOM     20  C4  NAG B   2      19.064  42.415  17.1750  0.00  0.00     0.000 C
ATOM     21  C5  NAG B   2      20.292  41.532  17.0020  0.00  0.00     0.000 C
ATOM     22  O5  NAG B   2      20.135  40.353  17.8110  0.00  0.00     0.000 O
ATOM     23   O  NAG B   2      19.153  43.592  16.3640  0.00  0.00     0.000 O
ATOM     25  HD  NAG B   2      18.990  43.705  17.2070  0.00  0.00     0.000 HD
ATOM     25   C  NAG B   2      21.590  42.246  17.3750  0.00  0.00     0.000 C
ATOM     26   O  NAG B   2      21.717  42.406  18.7960  0.00  0.00     0.000 O
ATOM     28  HD  NAG B   2      21.555  42.519  19.6390  0.00  0.00     0.000 HD
BRANCH 18 30
ATOM     28   N  NAG B   2      16.852  39.489  18.3570  0.00  0.00     0.000 N
ATOM     30  HD  NAG B   2      16.464  39.486  17.5830  0.00  0.00     0.000 HD
ATOM     30   C  NAG B   2      15.683  38.995  17.9310  0.00  0.00     0.000 C
ATOM     31   C  NAG B   2      14.881  38.170  18.8990  0.00  0.00     0.000 C
ATOM     32   O  NAG B   2      15.271  39.201  16.8070  0.00  0.00     0.000 OA
ENDBRANCH 18 30
BRANCH 17 33
ATOM     33  O4  GCU B   3      18.870  38.346  18.2100  0.00  0.00     0.000 O
BRANCH 33 37
ATOM     34  C1  GCU B   3      20.272  34.479  17.5690  0.00  0.00     0.000 C
ATOM     35  C2  GCU B   3      21.271  35.521  18.0720  0.00  0.00     0.000 C
ATOM     36  C3  GCU B   3      20.522  36.707  18.6420  0.00  0.00     0.000 C
ATOM     37  C4  GCU B   3      19.554  37.250  17.6010  0.00  0.00     0.000 C
ATOM     38  C5  GCU B   3      18.596  36.141  17.1610  0.00  0.00     0.000 C
ATOM     39  O5  GCU B   3      19.366  35.059  16.6260  0.00  0.00     0.000 O
ATOM     40   O  GCU B   3      22.094  34.926  19.0770  0.00  0.00     0.000 O
ATOM     42  HD  GCU B   3      22.394  35.053  19.8800  0.00  0.00     0.000 HD
ATOM     42   O  GCU B   3      21.431  37.741  19.0600  0.00  0.00     0.000 O
ATOM     44  HD  GCU B   3      21.730  37.868  19.8630  0.00  0.00     0.000 HD
BRANCH 38 44
ATOM     44   C  GCU B   3      17.620  36.600  16.1060  0.00  0.00     0.000 C
ATOM     45   O  GCU B   3      18.024  37.360  15.2130  0.00  0.00     0.000 OA
ATOM     46   O  GCU B   3      16.437  36.210  16.1480  0.00  0.00     0.000 OA
ENDBRANCH 38 44
BRANCH 34 47
ATOM     47  O3  NAG B   4      20.930  33.549  16.8910  0.00  0.00     0.000 O
BRANCH 47 50
ATOM     48  C1  NAG B   4      21.940  30.327  15.3570  0.00  0.00     0.000 C
ATOM     49  C2  NAG B   4      21.986  31.509  16.3190  0.00  0.00     0.000 C
ATOM     50  C3  NAG B   4      20.663  32.258  16.3460  0.00  0.00     0.000 C
ATOM     51  C4  NAG B   4      20.012  32.411  14.9670  0.00  0.00     0.000 C
ATOM     52  C5  NAG B   4      19.732  31.057  14.3360  0.00  0.00     0.000 C
ATOM     53  O5  NAG B   4      20.798  30.096  14.5050  0.00  0.00     0.000 O
BRANCH 49 56
ATOM     54   N  NAG B   4      21.900  30.645  17.5100  0.00  0.00     0.000 N
ATOM     56  HD  NAG B   4      21.410  29.935  17.5850  0.00  0.00     0.000 HD
ATOM     56   C  NAG B   4      22.285  29.854  19.7720  0.00  0.00     0.000 C
ATOM     57   O  NAG B   4      22.964  31.969  19.0200  0.00  0.00     0.000 OA
ATOM     58   C  NAG B   4      22.406  30.922  18.7280  0.00  0.00     0.000 C
ENDBRANCH 49 56
ATOM     59   O  NAG B   4      18.795  30.090  12.2670  0.00  0.00     0.000 O
ATOM     61  HD  NAG B   4      19.487  30.362  12.7110  0.00  0.00     0.000 HD
ATOM     61   O  NAG B   4      18.795  30.090  12.2670  0.00  0.00     0.000 O
ATOM     63  HD  NAG B   4      19.487  30.362  12.7110  0.00  0.00     0.000 HD
ENDBRANCH 47 50
ENDBRANCH 34 47
ENDBRANCH 33 37
ENDBRANCH 17 33
ENDBRANCH 16 19
ENDBRANCH 1 16
TORSDOF 10
ENDMDL
MODEL 14
REMARK VINA RESULT:      -6.3     10.698     15.148
ROOT
ATOM      1  C1  GCU B   1      20.653  30.012  16.5920  0.00  0.00     0.000 C
ATOM      2  C2  GCU B   1      21.070  28.725  15.8960  0.00  0.00     0.000 C
ATOM      3  C3  GCU B   1      22.416  28.902  15.2110  0.00  0.00     0.000 C
ATOM      4  C4  GCU B   1      22.398  30.140  14.3280  0.00  0.00     0.000 C
ATOM      5  C5  GCU B   1      21.908  31.363  15.1050  0.00  0.00     0.000 C
ATOM      6  O5  GCU B   1      20.607  31.088  15.6420  0.00  0.00     0.000 O
ATOM      7   O  GCU B   1      21.137  27.701  16.8840  0.00  0.00     0.000 O
ATOM      9  HD  GCU B   1      20.745  26.929  16.8470  0.00  0.00     0.000 HD
ATOM      9   O  GCU B   1      22.737  27.752  14.4250  0.00  0.00     0.000 O
ATOM     11  HD  GCU B   1      22.346  26.980  14.3880  0.00  0.00     0.000 HD
ATOM     11   O  GCU B   1      23.718  30.376  13.8370  0.00  0.00     0.000 O
ATOM     13  HD  GCU B   1      23.326  29.604  13.8000  0.00  0.00     0.000 HD
ENDROOT
BRANCH 5 13
ATOM     13   C  GCU B   1      21.913  32.578  14.2080  0.00  0.00     0.000 C
ATOM     14   O  GCU B   1      22.100  32.455  12.9810  0.00  0.00     0.000 OA
ATOM     15   O  GCU B   1      21.697  33.684  14.7400  0.00  0.00     0.000 OA
ENDBRANCH 5 13
BRANCH 1 16
ATOM     16  O3  NAG B   2      19.414  30.418  16.8770  0.00  0.00     0.000 O
BRANCH 16 19
ATOM     17  C1  NAG B   2      17.467  31.194  20.0130  0.00  0.00     0.000 C
ATOM     18  C2  NAG B   2      18.221  30.337  19.0040  0.00  0.00     0.000 C
ATOM     19  C3  NAG B   2      18.856  31.219  17.9310  0.00  0.00     0.000 C
ATOM     20  C4  NAG B   2      17.810  32.149  17.3170  0.00  0.00     0.000 C
ATOM     21  C5  NAG B   2      17.128  32.953  18.4140  0.00  0.00     0.000 C
ATOM     22  O5  NAG B   2      16.518  32.044  19.3480  0.00  0.00     0.000 O
ATOM     23   O  NAG B   2      18.464  33.006  16.3760  0.00  0.00     0.000 O
ATOM     25  HD  NAG B   2      17.913  32.418  16.0580  0.00  0.00     0.000 HD
ATOM     25   C  NAG B   2      16.077  33.919  17.8720  0.00  0.00     0.000 C
ATOM     26   O  NAG B   2      14.897  33.228  17.4350  0.00  0.00     0.000 O
ATOM     28  HD  NAG B   2      14.346  32.640  17.1170  0.00  0.00     0.000 HD
BRANCH 18 30
ATOM     28   N  NAG B   2      18.689  29.462  20.0620  0.00  0.00     0.000 N
ATOM     30  HD  NAG B   2      18.838  29.001  19.3440  0.00  0.00     0.000 HD
ATOM     30   C  NAG B   2      19.099  28.203  19.8620  0.00  0.00     0.000 C
ATOM     31   C  NAG B   2      19.513  27.405  21.0660  0.00  0.00     0.000 C
ATOM     32   O  NAG B   2      19.137  27.710  18.7520  0.00  0.00     0.000 OA
ENDBRANCH 18 30
BRANCH 17 33
ATOM     33  O4  GCU B   3      16.863  30.305  20.9740  0.00  0.00     0.000 O
BRANCH 33 37
ATOM     34  C1  GCU B   3      15.061  31.069  24.6490  0.00  0.00     0.000 C
ATOM     35  C2  GCU B   3      14.257  31.380  23.3860  0.00  0.00     0.000 C
ATOM     36  C3  GCU B   3      14.872  30.661  22.2040  0.00  0.00     0.000 C
ATOM     37  C4  GCU B   3      16.344  31.032  22.0900  0.00  0.00     0.000 C
ATOM     38  C5  GCU B   3      17.065  30.684  23.3940  0.00  0.00     0.000 C
ATOM     39  O5  GCU B   3      16.441  31.400  24.4640  0.00  0.00     0.000 O
ATOM     40   O  GCU B   3      12.908  30.949  23.5790  0.00  0.00     0.000 O
ATOM     42  HD  GCU B   3      12.277  30.488  23.2060  0.00  0.00     0.000 HD
ATOM     42   O  GCU B   3      14.183  30.988  20.9840  0.00  0.00     0.000 O
ATOM     44  HD  GCU B   3      13.552  30.527  20.6110  0.00  0.00     0.000 HD
BRANCH 38 44
ATOM     44   C  GCU B   3      18.528  31.048  23.3640  0.00  0.00     0.000 C
ATOM     45   O  GCU B   3      19.359  30.150  23.1600  0.00  0.00     0.000 OA
ATOM     46   O  GCU B   3      18.874  32.232  23.5410  0.00  0.00     0.000 OA
ENDBRANCH 38 44
BRANCH 34 47
ATOM     47  O3  NAG B   4      14.642  31.860  25.6270  0.00  0.00     0.000 O
BRANCH 47 50
ATOM     48  C1  NAG B   4      14.817  31.480  29.3120  0.00  0.00     0.000 C
ATOM     49  C2  NAG B   4      15.152  32.036  27.9320  0.00  0.00     0.000 C
ATOM     50  C3  NAG B   4      14.062  31.714  26.9220  0.00  0.00     0.000 C
ATOM     51  C4  NAG B   4      13.486  30.301  27.0660  0.00  0.00     0.000 C
ATOM     52  C5  NAG B   4      12.878  30.091  28.4430  0.00  0.00     0.000 C
ATOM     53  O5  NAG B   4      13.663  30.641  29.5240  0.00  0.00     0.000 O
BRANCH 49 56
ATOM     54   N  NAG B   4      14.761  33.448  28.0850  0.00  0.00     0.000 N
ATOM     56  HD  NAG B   4      13.958  33.762  28.0060  0.00  0.00     0.000 HD
ATOM     56   C  NAG B   4      14.987  35.841  28.4230  0.00  0.00     0.000 C
ATOM     57   O  NAG B   4      16.818  34.416  28.0840  0.00  0.00     0.000 OA
ATOM     58   C  NAG B   4      15.602  34.498  28.1740  0.00  0.00     0.000 C
ENDBRANCH 49 56
ATOM     59   O  NAG B   4      11.746  28.340  29.7660  0.00  0.00     0.000 O
ATOM     61  HD  NAG B   4      12.480  28.740  29.5390  0.00  0.00     0.000 HD
ATOM     61   O  NAG B   4      11.746  28.340  29.7660  0.00  0.00     0.000 O
ATOM     63  HD  NAG B   4      12.480  28.740  29.5390  0.00  0.00     0.000 HD
ENDBRANCH 47 50
ENDBRANCH 34 47
ENDBRANCH 33 37
ENDBRANCH 17 33
ENDBRANCH 16 19
ENDBRANCH 1 16
TORSDOF 10
ENDMDL
MODEL 15
REMARK VINA RESULT:      -6.3     15.227     20.663
ROOT
ATOM      1  C1  GCU B   1      11.981  29.690  30.5690  0.00  0.00     0.000 C
ATOM      2  C2  GCU B   1      12.642  28.880  31.6730  0.00  0.00     0.000 C
ATOM      3  C3  GCU B   1      11.782  27.681  32.0410  0.00  0.00     0.000 C
ATOM      4  C4  GCU B   1      10.356  28.126  32.3280  0.00  0.00     0.000 C
ATOM      5  C5  GCU B   1       9.807  28.983  31.1860  0.00  0.00     0.000 C
ATOM      6  O5  GCU B   1      10.672  30.109  30.9860  0.00  0.00     0.000 O
ATOM      7   O  GCU B   1      13.917  28.460  31.1980  0.00  0.00     0.000 O
ATOM      9  HD  GCU B   1      14.675  28.572  31.6010  0.00  0.00     0.000 HD
ATOM      9   O  GCU B   1      12.318  27.008  33.1830  0.00  0.00     0.000 O
ATOM     11  HD  GCU B   1      13.076  27.120  33.5870  0.00  0.00     0.000 HD
ATOM     11   O  GCU B   1       9.538  26.968  32.5000  0.00  0.00     0.000 O
ATOM     13  HD  GCU B   1      10.296  27.080  32.9040  0.00  0.00     0.000 HD
ENDROOT
BRANCH 5 13
ATOM     13   C  GCU B   1       8.387  29.397  31.4910  0.00  0.00     0.000 C
ATOM     14   O  GCU B   1       7.429  28.688  31.1200  0.00  0.00     0.000 OA
ATOM     15   O  GCU B   1       8.223  30.446  32.1440  0.00  0.00     0.000 OA
ENDBRANCH 5 13
BRANCH 1 16
ATOM     16  O3  NAG B   2      12.141  30.989  30.3050  0.00  0.00     0.000 O
BRANCH 16 19
ATOM     17  C1  NAG B   2      13.578  32.683  27.2570  0.00  0.00     0.000 C
ATOM     18  C2  NAG B   2      13.526  31.715  28.4320  0.00  0.00     0.000 C
ATOM     19  C3  NAG B   2      12.149  31.757  29.0920  0.00  0.00     0.000 C
ATOM     20  C4  NAG B   2      11.767  33.196  29.4370  0.00  0.00     0.000 C
ATOM     21  C5  NAG B   2      11.851  34.065  28.1900  0.00  0.00     0.000 C
ATOM     22  O5  NAG B   2      13.191  34.003  27.6690  0.00  0.00     0.000 O
ATOM     23   O  NAG B   2      10.441  33.193  29.9790  0.00  0.00     0.000 O
ATOM     25  HD  NAG B   2      11.088  33.392  30.5190  0.00  0.00     0.000 HD
ATOM     25   C  NAG B   2      11.466  35.518  28.4570  0.00  0.00     0.000 C
ATOM     26   O  NAG B   2      12.486  36.211  29.1940  0.00  0.00     0.000 O
ATOM     28  HD  NAG B   2      13.133  36.409  29.7340  0.00  0.00     0.000 HD
BRANCH 18 30
ATOM     28   N  NAG B   2      14.832  31.084  28.4210  0.00  0.00     0.000 N
ATOM     30  HD  NAG B   2      14.296  30.432  28.2290  0.00  0.00     0.000 HD
ATOM     30   C  NAG B   2      15.023  29.767  28.2780  0.00  0.00     0.000 C
ATOM     31   C  NAG B   2      16.436  29.258  28.3320  0.00  0.00     0.000 C
ATOM     32   O  NAG B   2      14.096  28.999  28.1120  0.00  0.00     0.000 OA
ENDBRANCH 18 30
BRANCH 17 33
ATOM     33  O4  GCU B   3      14.908  32.624  26.7030  0.00  0.00     0.000 O
BRANCH 33 37
ATOM     34  C1  GCU B   3      16.235  32.861  22.7640  0.00  0.00     0.000 C
ATOM     35  C2  GCU B   3      15.918  34.171  23.4860  0.00  0.00     0.000 C
ATOM     36  C3  GCU B   3      15.872  33.929  24.9800  0.00  0.00     0.000 C
ATOM     37  C4  GCU B   3      14.883  32.813  25.2870  0.00  0.00     0.000 C
ATOM     38  C5  GCU B   3      15.282  31.548  24.5260  0.00  0.00     0.000 C
ATOM     39  O5  GCU B   3      15.297  31.844  23.1260  0.00  0.00     0.000 O
ATOM     40   O  GCU B   3      16.929  35.131  23.1710  0.00  0.00     0.000 O
ATOM     42  HD  GCU B   3      17.471  35.699  23.5370  0.00  0.00     0.000 HD
ATOM     42   O  GCU B   3      15.504  35.126  25.6880  0.00  0.00     0.000 O
ATOM     44  HD  GCU B   3      16.046  35.694  26.0530  0.00  0.00     0.000 HD
BRANCH 38 44
ATOM     44   C  GCU B   3      14.330  30.402  24.7620  0.00  0.00     0.000 C
ATOM     45   O  GCU B   3      14.798  29.266  24.9310  0.00  0.00     0.000 OA
ATOM     46   O  GCU B   3      13.102  30.614  24.7870  0.00  0.00     0.000 OA
ENDBRANCH 38 44
BRANCH 34 47
ATOM     47  O3  NAG B   4      16.069  33.040  21.4610  0.00  0.00     0.000 O
BRANCH 47 50
ATOM     48  C1  NAG B   4      16.538  33.133  17.7830  0.00  0.00     0.000 C
ATOM     49  C2  NAG B   4      16.105  33.613  19.1650  0.00  0.00     0.000 C
ATOM     50  C3  NAG B   4      16.832  32.863  20.2690  0.00  0.00     0.000 C
ATOM     51  C4  NAG B   4      17.000  31.365  19.9910  0.00  0.00     0.000 C
ATOM     52  C5  NAG B   4      17.788  31.127  18.7130  0.00  0.00     0.000 C
ATOM     53  O5  NAG B   4      17.425  32.006  17.6250  0.00  0.00     0.000 O
BRANCH 49 56
ATOM     54   N  NAG B   4      16.861  34.871  19.0390  0.00  0.00     0.000 N
ATOM     56  HD  NAG B   4      17.624  34.965  18.6400  0.00  0.00     0.000 HD
ATOM     56   C  NAG B   4      17.438  37.210  19.3330  0.00  0.00     0.000 C
ATOM     57   O  NAG B   4      15.706  36.158  20.5140  0.00  0.00     0.000 OA
ATOM     58   C  NAG B   4      16.594  36.023  19.6860  0.00  0.00     0.000 C
ENDBRANCH 49 56
ATOM     59   O  NAG B   4      18.618  29.266  17.3190  0.00  0.00     0.000 O
ATOM     61  HD  NAG B   4      17.998  29.846  17.4880  0.00  0.00     0.000 HD
ATOM     61   O  NAG B   4      18.618  29.266  17.3190  0.00  0.00     0.000 O
ATOM     63  HD  NAG B   4      17.998  29.846  17.4880  0.00  0.00     0.000 HD
ENDBRANCH 47 50
ENDBRANCH 34 47
ENDBRANCH 33 37
ENDBRANCH 17 33
ENDBRANCH 16 19
ENDBRANCH 1 16
TORSDOF 10
ENDMDL
MODEL 16
REMARK VINA RESULT:      -6.3     10.500     14.773
ROOT
ATOM      1  C1  GCU B   1      20.655  32.128  14.9170  0.00  0.00     0.000 C
ATOM      2  C2  GCU B   1      20.648  31.357  13.6050  0.00  0.00     0.000 C
ATOM      3  C3  GCU B   1      22.064  30.972  13.2070  0.00  0.00     0.000 C
ATOM      4  C4  GCU B   1      22.969  32.193  13.2350  0.00  0.00     0.000 C
ATOM      5  C5  GCU B   1      22.857  32.930  14.5710  0.00  0.00     0.000 C
ATOM      6  O5  GCU B   1      21.488  33.292  14.7950  0.00  0.00     0.000 O
ATOM      7   O  GCU B   1      19.842  30.198  13.7890  0.00  0.00     0.000 O
ATOM      9  HD  GCU B   1      19.182  29.949  13.2870  0.00  0.00     0.000 HD
ATOM      9   O  GCU B   1      22.079  30.389  11.9010  0.00  0.00     0.000 O
ATOM     11  HD  GCU B   1      21.419  30.140  11.3980  0.00  0.00     0.000 HD
ATOM     11   O  GCU B   1      24.318  31.774  13.0270  0.00  0.00     0.000 O
ATOM     13  HD  GCU B   1      23.658  31.525  12.5240  0.00  0.00     0.000 HD
ENDROOT
BRANCH 5 13
ATOM     13   C  GCU B   1      23.775  34.128  14.5760  0.00  0.00     0.000 C
ATOM     14   O  GCU B   1      24.431  34.417  15.5980  0.00  0.00     0.000 OA
ATOM     15   O  GCU B   1      23.866  34.786  13.5220  0.00  0.00     0.000 OA
ENDBRANCH 5 13
BRANCH 1 16
ATOM     16  O3  NAG B   2      19.751  33.011  15.3460  0.00  0.00     0.000 O
BRANCH 16 19
ATOM     17  C1  NAG B   2      18.033  32.761  18.6940  0.00  0.00     0.000 C
ATOM     18  C2  NAG B   2      18.658  32.266  17.3960  0.00  0.00     0.000 C
ATOM     19  C3  NAG B   2      19.319  33.425  16.6510  0.00  0.00     0.000 C
ATOM     20  C4  NAG B   2      18.332  34.579  16.4810  0.00  0.00     0.000 C
ATOM     21  C5  NAG B   2      17.778  34.989  17.8380  0.00  0.00     0.000 C
ATOM     22  O5  NAG B   2      17.134  33.853  18.4410  0.00  0.00     0.000 O
ATOM     23   O  NAG B   2      19.015  35.668  15.8490  0.00  0.00     0.000 O
ATOM     25  HD  NAG B   2      18.399  35.269  15.3900  0.00  0.00     0.000 HD
ATOM     25   C  NAG B   2      16.794  36.153  17.7470  0.00  0.00     0.000 C
ATOM     26   O  NAG B   2      15.536  35.742  17.1880  0.00  0.00     0.000 O
ATOM     28  HD  NAG B   2      14.920  35.343  16.7290  0.00  0.00     0.000 HD
BRANCH 18 30
ATOM     28   N  NAG B   2      18.418  30.839  17.3010  0.00  0.00     0.000 N
ATOM     30  HD  NAG B   2      19.258  30.884  17.5070  0.00  0.00     0.000 HD
ATOM     30   C  NAG B   2      19.380  29.913  17.3890  0.00  0.00     0.000 C
ATOM     31   C  NAG B   2      18.979  28.473  17.2250  0.00  0.00     0.000 C
ATOM     32   O  NAG B   2      20.540  30.211  17.5900  0.00  0.00     0.000 OA
ENDBRANCH 18 30
BRANCH 17 33
ATOM     33  O4  GCU B   3      17.398  31.633  19.3300  0.00  0.00     0.000 O
BRANCH 33 37
ATOM     34  C1  GCU B   3      16.407  30.943  23.3140  0.00  0.00     0.000 C
ATOM     35  C2  GCU B   3      15.492  31.861  22.5040  0.00  0.00     0.000 C
ATOM     36  C3  GCU B   3      15.747  31.656  21.0260  0.00  0.00     0.000 C
ATOM     37  C4  GCU B   3      17.226  31.862  20.7290  0.00  0.00     0.000 C
ATOM     38  C5  GCU B   3      18.060  30.903  21.5810  0.00  0.00     0.000 C
ATOM     39  O5  GCU B   3      17.777  31.154  22.9610  0.00  0.00     0.000 O
ATOM     40   O  GCU B   3      14.132  31.553  22.8170  0.00  0.00     0.000 O
ATOM     42  HD  GCU B   3      13.367  31.377  22.4500  0.00  0.00     0.000 HD
ATOM     42   O  GCU B   3      14.954  32.558  20.2330  0.00  0.00     0.000 O
ATOM     44  HD  GCU B   3      14.189  32.381  19.8660  0.00  0.00     0.000 HD
BRANCH 38 44
ATOM     44   C  GCU B   3      19.543  31.067  21.3590  0.00  0.00     0.000 C
ATOM     45   O  GCU B   3      20.072  32.147  21.6600  0.00  0.00     0.000 OA
ATOM     46   O  GCU B   3      20.205  30.123  20.8850  0.00  0.00     0.000 OA
ENDBRANCH 38 44
BRANCH 34 47
ATOM     47  O3  NAG B   4      16.323  31.276  24.5940  0.00  0.00     0.000 O
BRANCH 47 50
ATOM     48  C1  NAG B   4      16.121  31.048  28.2900  0.00  0.00     0.000 C
ATOM     49  C2  NAG B   4      16.100  31.701  26.9120  0.00  0.00     0.000 C
ATOM     50  C3  NAG B   4      15.888  30.674  25.8120  0.00  0.00     0.000 C
ATOM     51  C4  NAG B   4      16.654  29.364  26.0340  0.00  0.00     0.000 C
ATOM     52  C5  NAG B   4      16.241  28.698  27.3360  0.00  0.00     0.000 C
ATOM     53  O5  NAG B   4      16.083  29.614  28.4420  0.00  0.00     0.000 O
BRANCH 49 56
ATOM     54   N  NAG B   4      15.075  32.752  27.0340  0.00  0.00     0.000 N
ATOM     56  HD  NAG B   4      15.205  33.553  27.3370  0.00  0.00     0.000 HD
ATOM     56   C  NAG B   4      12.893  33.813  26.9590  0.00  0.00     0.000 C
ATOM     57   O  NAG B   4      13.207  31.506  26.6810  0.00  0.00     0.000 OA
ATOM     58   C  NAG B   4      13.746  32.583  26.8860  0.00  0.00     0.000 C
ENDBRANCH 49 56
ATOM     59   O  NAG B   4      16.759  26.697  28.6860  0.00  0.00     0.000 O
ATOM     61  HD  NAG B   4      16.905  27.533  28.5130  0.00  0.00     0.000 HD
ATOM     61   O  NAG B   4      16.759  26.697  28.6860  0.00  0.00     0.000 O
ATOM     63  HD  NAG B   4      16.905  27.533  28.5130  0.00  0.00     0.000 HD
ENDBRANCH 47 50
ENDBRANCH 34 47
ENDBRANCH 33 37
ENDBRANCH 17 33
ENDBRANCH 16 19
ENDBRANCH 1 16
TORSDOF 10
ENDMDL
MODEL 17
REMARK VINA RESULT:      -6.2     22.750     26.666
ROOT
ATOM      1  C1  GCU B   1      15.352  19.748  36.9440  0.00  0.00     0.000 C
ATOM      2  C2  GCU B   1      16.663  20.432  37.3000  0.00  0.00     0.000 C
ATOM      3  C3  GCU B   1      17.079  21.393  36.1970  0.00  0.00     0.000 C
ATOM      4  C4  GCU B   1      17.062  20.686  34.8510  0.00  0.00     0.000 C
ATOM      5  C5  GCU B   1      15.725  19.981  34.6160  0.00  0.00     0.000 C
ATOM      6  O5  GCU B   1      15.484  19.061  35.6890  0.00  0.00     0.000 O
ATOM      7   O  GCU B   1      16.469  21.127  38.5280  0.00  0.00     0.000 O
ATOM      9  HD  GCU B   1      16.963  21.061  39.2360  0.00  0.00     0.000 HD
ATOM      9   O  GCU B   1      18.385  21.917  36.4520  0.00  0.00     0.000 O
ATOM     11  HD  GCU B   1      18.879  21.851  37.1600  0.00  0.00     0.000 HD
ATOM     11   O  GCU B   1      17.288  21.649  33.8210  0.00  0.00     0.000 O
ATOM     13  HD  GCU B   1      17.782  21.584  34.5290  0.00  0.00     0.000 HD
ENDROOT
BRANCH 5 13
ATOM     13   C  GCU B   1      15.731  19.302  33.2680  0.00  0.00     0.000 C
ATOM     14   O  GCU B   1      16.772  19.277  32.5790  0.00  0.00     0.000 OA
ATOM     15   O  GCU B   1      14.676  18.752  32.8970  0.00  0.00     0.000 OA
ENDBRANCH 5 13
BRANCH 1 16
ATOM     16  O3  NAG B   2      14.911  18.562  37.3680  0.00  0.00     0.000 O
BRANCH 16 19
ATOM     17  C1  NAG B   2      11.224  17.932  37.8520  0.00  0.00     0.000 C
ATOM     18  C2  NAG B   2      12.516  18.737  37.8010  0.00  0.00     0.000 C
ATOM     19  C3  NAG B   2      13.654  17.877  37.2530  0.00  0.00     0.000 C
ATOM     20  C4  NAG B   2      13.754  16.567  38.0330  0.00  0.00     0.000 C
ATOM     21  C5  NAG B   2      12.411  15.851  38.0120  0.00  0.00     0.000 C
ATOM     22  O5  NAG B   2      11.415  16.713  38.5890  0.00  0.00     0.000 O
ATOM     23   O  NAG B   2      14.779  15.764  37.4360  0.00  0.00     0.000 O
ATOM     25  HD  NAG B   2      14.933  16.075  38.2300  0.00  0.00     0.000 HD
ATOM     25   C  NAG B   2      12.439  14.520  38.7610  0.00  0.00     0.000 C
ATOM     26   O  NAG B   2      12.487  14.712  40.1830  0.00  0.00     0.000 O
ATOM     28  HD  NAG B   2      12.641  15.024  40.9760  0.00  0.00     0.000 HD
BRANCH 18 30
ATOM     28   N  NAG B   2      12.298  20.080  38.3030  0.00  0.00     0.000 N
ATOM     30  HD  NAG B   2      12.285  20.186  37.4440  0.00  0.00     0.000 HD
ATOM     30   C  NAG B   2      12.248  21.169  37.5260  0.00  0.00     0.000 C
ATOM     31   C  NAG B   2      12.059  22.498  38.2000  0.00  0.00     0.000 C
ATOM     32   O  NAG B   2      12.352  21.098  36.3180  0.00  0.00     0.000 OA
ENDBRANCH 18 30
BRANCH 17 33
ATOM     33  O4  GCU B   3      10.202  18.783  38.4090  0.00  0.00     0.000 O
BRANCH 33 37
ATOM     34  C1  GCU B   3       6.061  18.571  38.0330  0.00  0.00     0.000 C
ATOM     35  C2  GCU B   3       6.693  17.949  39.2790  0.00  0.00     0.000 C
ATOM     36  C3  GCU B   3       8.100  18.482  39.4540  0.00  0.00     0.000 C
ATOM     37  C4  GCU B   3       8.901  18.238  38.1830  0.00  0.00     0.000 C
ATOM     38  C5  GCU B   3       8.195  18.897  36.9950  0.00  0.00     0.000 C
ATOM     39  O5  GCU B   3       6.880  18.344  36.8830  0.00  0.00     0.000 O
ATOM     40   O  GCU B   3       5.895  18.278  40.4170  0.00  0.00     0.000 O
ATOM     42  HD  GCU B   3       5.947  18.597  41.2210  0.00  0.00     0.000 HD
ATOM     42   O  GCU B   3       8.752  17.863  40.5760  0.00  0.00     0.000 O
ATOM     44  HD  GCU B   3       8.804  18.182  41.3800  0.00  0.00     0.000 HD
BRANCH 38 44
ATOM     44   C  GCU B   3       8.920  18.675  35.6920  0.00  0.00     0.000 C
ATOM     45   O  GCU B   3       9.538  19.625  35.1870  0.00  0.00     0.000 OA
ATOM     46   O  GCU B   3       8.891  17.553  35.1510  0.00  0.00     0.000 OA
ENDBRANCH 38 44
BRANCH 34 47
ATOM     47  O3  NAG B   4       4.920  17.947  37.7760  0.00  0.00     0.000 O
BRANCH 47 50
ATOM     48  C1  NAG B   4       1.987  17.166  35.6450  0.00  0.00     0.000 C
ATOM     49  C2  NAG B   4       2.939  18.013  36.4820  0.00  0.00     0.000 C
ATOM     50  C3  NAG B   4       4.287  17.332  36.6560  0.00  0.00     0.000 C
ATOM     51  C4  NAG B   4       4.188  15.820  36.8930  0.00  0.00     0.000 C
ATOM     52  C5  NAG B   4       3.496  15.125  35.7330  0.00  0.00     0.000 C
ATOM     53  O5  NAG B   4       2.342  15.831  35.2260  0.00  0.00     0.000 O
BRANCH 49 56
ATOM     54   N  NAG B   4       3.485  19.023  35.5580  0.00  0.00     0.000 N
ATOM     56  HD  NAG B   4       4.264  18.994  35.1800  0.00  0.00     0.000 HD
ATOM     56   C  NAG B   4       3.627  21.068  34.2580  0.00  0.00     0.000 C
ATOM     57   O  NAG B   4       1.968  20.686  35.8710  0.00  0.00     0.000 OA
ATOM     58   C  NAG B   4       2.957  20.238  35.3100  0.00  0.00     0.000 C
ENDBRANCH 49 56
ATOM     59   O  NAG B   4       2.786  12.867  35.0310  0.00  0.00     0.000 O
ATOM     61  HD  NAG B   4       2.595  13.616  35.4220  0.00  0.00     0.000 HD
ATOM     61   O  NAG B   4       2.786  12.867  35.0310  0.00  0.00     0.000 O
ATOM     63  HD  NAG B   4       2.595  13.616  35.4220  0.00  0.00     0.000 HD
ENDBRANCH 47 50
ENDBRANCH 34 47
ENDBRANCH 33 37
ENDBRANCH 17 33
ENDBRANCH 16 19
ENDBRANCH 1 16
TORSDOF 10
ENDMDL
MODEL 18
REMARK VINA RESULT:      -6.2     10.444     14.677
ROOT
ATOM      1  C1  GCU B   1      20.702  32.016  14.9430  0.00  0.00     0.000 C
ATOM      2  C2  GCU B   1      20.652  31.195  13.6630  0.00  0.00     0.000 C
ATOM      3  C3  GCU B   1      22.058  30.829  13.2120  0.00  0.00     0.000 C
ATOM      4  C4  GCU B   1      22.931  32.072  13.1510  0.00  0.00     0.000 C
ATOM      5  C5  GCU B   1      22.863  32.857  14.4620  0.00  0.00     0.000 C
ATOM      6  O5  GCU B   1      21.497  33.195  14.7370  0.00  0.00     0.000 O
ATOM      7   O  GCU B   1      19.887  30.025  13.9300  0.00  0.00     0.000 O
ATOM      9  HD  GCU B   1      19.211  29.741  13.4690  0.00  0.00     0.000 HD
ATOM      9   O  GCU B   1      22.026  30.196  11.9300  0.00  0.00     0.000 O
ATOM     11  HD  GCU B   1      21.350  29.912  11.4690  0.00  0.00     0.000 HD
ATOM     11   O  GCU B   1      24.279  31.678  12.8930  0.00  0.00     0.000 O
ATOM     13  HD  GCU B   1      23.603  31.394  12.4330  0.00  0.00     0.000 HD
ENDROOT
BRANCH 5 13
ATOM     13   C  GCU B   1      23.749  34.077  14.3780  0.00  0.00     0.000 C
ATOM     14   O  GCU B   1      24.080  34.541  13.2670  0.00  0.00     0.000 OA
ATOM     15   O  GCU B   1      24.103  34.604  15.4500  0.00  0.00     0.000 OA
ENDBRANCH 5 13
BRANCH 1 16
ATOM     16  O3  NAG B   2      19.797  32.893  15.3820  0.00  0.00     0.000 O
BRANCH 16 19
ATOM     17  C1  NAG B   2      18.222  32.824  18.8090  0.00  0.00     0.000 C
ATOM     18  C2  NAG B   2      18.773  32.261  17.5050  0.00  0.00     0.000 C
ATOM     19  C3  NAG B   2      19.436  33.369  16.6880  0.00  0.00     0.000 C
ATOM     20  C4  NAG B   2      18.479  34.549  16.5160  0.00  0.00     0.000 C
ATOM     21  C5  NAG B   2      18.000  35.026  17.8800  0.00  0.00     0.000 C
ATOM     22  O5  NAG B   2      17.348  33.935  18.5530  0.00  0.00     0.000 O
ATOM     23   O  NAG B   2      19.168  35.590  15.8150  0.00  0.00     0.000 O
ATOM     25  HD  NAG B   2      18.520  35.195  15.3980  0.00  0.00     0.000 HD
ATOM     25   C  NAG B   2      17.049  36.218  17.7870  0.00  0.00     0.000 C
ATOM     26   O  NAG B   2      15.756  35.829  17.2990  0.00  0.00     0.000 O
ATOM     28  HD  NAG B   2      15.108  35.434  16.8820  0.00  0.00     0.000 HD
BRANCH 18 30
ATOM     28   N  NAG B   2      18.515  30.846  17.3210  0.00  0.00     0.000 N
ATOM     30  HD  NAG B   2      19.303  30.858  17.6800  0.00  0.00     0.000 HD
ATOM     30   C  NAG B   2      19.419  29.886  17.5560  0.00  0.00     0.000 C
ATOM     31   C  NAG B   2      19.016  28.466  17.2750  0.00  0.00     0.000 C
ATOM     32   O  NAG B   2      20.529  30.141  17.9780  0.00  0.00     0.000 OA
ENDBRANCH 18 30
BRANCH 17 33
ATOM     33  O4  GCU B   3      17.581  31.742  19.5140  0.00  0.00     0.000 O
BRANCH 33 37
ATOM     34  C1  GCU B   3      16.372  31.403  23.4830  0.00  0.00     0.000 C
ATOM     35  C2  GCU B   3      15.481  32.208  22.5360  0.00  0.00     0.000 C
ATOM     36  C3  GCU B   3      15.831  31.871  21.1020  0.00  0.00     0.000 C
ATOM     37  C4  GCU B   3      17.318  32.098  20.8720  0.00  0.00     0.000 C
ATOM     38  C5  GCU B   3      18.127  31.254  21.8590  0.00  0.00     0.000 C
ATOM     39  O5  GCU B   3      17.754  31.627  23.1900  0.00  0.00     0.000 O
ATOM     40   O  GCU B   3      14.114  31.885  22.8000  0.00  0.00     0.000 O
ATOM     42  HD  GCU B   3      13.379  31.648  22.4090  0.00  0.00     0.000 HD
ATOM     42   O  GCU B   3      15.061  32.665  20.1810  0.00  0.00     0.000 O
ATOM     44  HD  GCU B   3      14.326  32.428  19.7900  0.00  0.00     0.000 HD
BRANCH 38 44
ATOM     44   C  GCU B   3      19.615  31.446  21.7070  0.00  0.00     0.000 C
ATOM     45   O  GCU B   3      20.327  30.447  21.5250  0.00  0.00     0.000 OA
ATOM     46   O  GCU B   3      20.098  32.593  21.7640  0.00  0.00     0.000 OA
ENDBRANCH 38 44
BRANCH 34 47
ATOM     47  O3  NAG B   4      16.201  31.855  24.7170  0.00  0.00     0.000 O
BRANCH 47 50
ATOM     48  C1  NAG B   4      16.323  29.178  27.2820  0.00  0.00     0.000 C
ATOM     49  C2  NAG B   4      16.830  30.104  26.1810  0.00  0.00     0.000 C
ATOM     50  C3  NAG B   4      15.925  31.313  26.0070  0.00  0.00     0.000 C
ATOM     51  C4  NAG B   4      14.431  30.986  26.1130  0.00  0.00     0.000 C
ATOM     52  C5  NAG B   4      14.093  30.380  27.4650  0.00  0.00     0.000 C
ATOM     53  O5  NAG B   4      15.057  29.412  27.9350  0.00  0.00     0.000 O
BRANCH 49 56
ATOM     54   N  NAG B   4      17.890  30.767  26.9600  0.00  0.00     0.000 N
ATOM     56  HD  NAG B   4      17.768  31.275  27.6500  0.00  0.00     0.000 HD
ATOM     56   C  NAG B   4      20.114  31.492  27.6060  0.00  0.00     0.000 C
ATOM     57   O  NAG B   4      19.654  30.433  25.5650  0.00  0.00     0.000 OA
ATOM     58   C  NAG B   4      19.190  30.854  26.6150  0.00  0.00     0.000 C
ENDBRANCH 49 56
ATOM     59   O  NAG B   4      12.157  29.490  28.7100  0.00  0.00     0.000 O
ATOM     61  HD  NAG B   4      12.835  29.344  28.1920  0.00  0.00     0.000 HD
ATOM     61   O  NAG B   4      12.157  29.490  28.7100  0.00  0.00     0.000 O
ATOM     63  HD  NAG B   4      12.835  29.344  28.1920  0.00  0.00     0.000 HD
ENDBRANCH 47 50
ENDBRANCH 34 47
ENDBRANCH 33 37
ENDBRANCH 17 33
ENDBRANCH 16 19
ENDBRANCH 1 16
TORSDOF 10
ENDMDL
MODEL 19
REMARK VINA RESULT:      -6.2      3.615     12.154
ROOT
ATOM      1  C1  GCU B   1      18.995  16.123   8.2550  0.00  0.00     0.000 C
ATOM      2  C2  GCU B   1      20.189  15.204   8.0480  0.00  0.00     0.000 C
ATOM      3  C3  GCU B   1      19.876  14.155   6.9920  0.00  0.00     0.000 C
ATOM      4  C4  GCU B   1      18.568  13.453   7.3200  0.00  0.00     0.000 C
ATOM      5  C5  GCU B   1      17.448  14.466   7.5690  0.00  0.00     0.000 C
ATOM      6  O5  GCU B   1      17.842  15.350   8.6270  0.00  0.00     0.000 O
ATOM      7   O  GCU B   1      21.292  16.011   7.6460  0.00  0.00     0.000 O
ATOM      9  HD  GCU B   1      22.078  16.019   8.0100  0.00  0.00     0.000 HD
ATOM      9   O  GCU B   1      20.932  13.195   6.9070  0.00  0.00     0.000 O
ATOM     11  HD  GCU B   1      21.718  13.203   7.2700  0.00  0.00     0.000 HD
ATOM     11   O  GCU B   1      18.215  12.602   6.2290  0.00  0.00     0.000 O
ATOM     13  HD  GCU B   1      19.001  12.610   6.5920  0.00  0.00     0.000 HD
ENDROOT
BRANCH 5 13
ATOM     13   C  GCU B   1      16.160  13.741   7.8780  0.00  0.00     0.000 C
ATOM     14   O  GCU B   1      15.824  13.527   9.0610  0.00  0.00     0.000 OA
ATOM     15   O  GCU B   1      15.448  13.400   6.9140  0.00  0.00     0.000 OA
ENDBRANCH 5 13
BRANCH 1 16
ATOM     16  O3  NAG B   2      18.686  16.821   9.3500  0.00  0.00     0.000 O
BRANCH 16 19
ATOM     17  C1  NAG B   2      18.652  20.479  10.2670  0.00  0.00     0.000 C
ATOM     18  C2  NAG B   2      19.250  19.141   9.8530  0.00  0.00     0.000 C
ATOM     19  C3  NAG B   2      18.140  18.132   9.5640  0.00  0.00     0.000 C
ATOM     20  C4  NAG B   2      17.169  18.056  10.7410  0.00  0.00     0.000 C
ATOM     21  C5  NAG B   2      16.636  19.445  11.0590  0.00  0.00     0.000 C
ATOM     22  O5  NAG B   2      17.743  20.310  11.3670  0.00  0.00     0.000 O
ATOM     23   O  NAG B   2      16.108  17.160  10.3940  0.00  0.00     0.000 O
ATOM     25  HD  NAG B   2      16.652  16.905  11.0170  0.00  0.00     0.000 HD
ATOM     25   C  NAG B   2      15.643  19.445  12.2200  0.00  0.00     0.000 C
ATOM     26   O  NAG B   2      16.300  19.242  13.4800  0.00  0.00     0.000 O
ATOM     28  HD  NAG B   2      16.844  18.987  14.1040  0.00  0.00     0.000 HD
BRANCH 18 30
ATOM     28   N  NAG B   2      20.688  19.335   9.8610  0.00  0.00     0.000 N
ATOM     30  HD  NAG B   2      20.504  19.256   9.0190  0.00  0.00     0.000 HD
ATOM     30   C  NAG B   2      21.458  19.247   8.7700  0.00  0.00     0.000 C
ATOM     31   C  NAG B   2      22.940  19.430   8.9470  0.00  0.00     0.000 C
ATOM     32   O  NAG B   2      20.990  19.026   7.6710  0.00  0.00     0.000 OA
ENDBRANCH 18 30
BRANCH 17 33
ATOM     33  O4  GCU B   3      19.745  21.373  10.5600  0.00  0.00     0.000 O
BRANCH 33 37
ATOM     34  C1  GCU B   3      20.102  25.496  10.1130  0.00  0.00     0.000 C
ATOM     35  C2  GCU B   3      19.190  24.980  11.2260  0.00  0.00     0.000 C
ATOM     36  C3  GCU B   3      19.510  23.527  11.5110  0.00  0.00     0.000 C
ATOM     37  C4  GCU B   3      19.411  22.720  10.2240  0.00  0.00     0.000 C
ATOM     38  C5  GCU B   3      20.357  23.307   9.1740  0.00  0.00     0.000 C
ATOM     39  O5  GCU B   3      19.995  24.673   8.9480  0.00  0.00     0.000 O
ATOM     40   O  GCU B   3      19.397  25.770  12.3990  0.00  0.00     0.000 O
ATOM     42  HD  GCU B   3      19.553  25.707  13.2480  0.00  0.00     0.000 HD
ATOM     42   O  GCU B   3      18.621  22.986  12.5040  0.00  0.00     0.000 O
ATOM     44  HD  GCU B   3      18.778  22.923  13.3540  0.00  0.00     0.000 HD
BRANCH 38 44
ATOM     44   C  GCU B   3      20.294  22.572   7.8590  0.00  0.00     0.000 C
ATOM     45   O  GCU B   3      19.190  22.189   7.4450  0.00  0.00     0.000 OA
ATOM     46   O  GCU B   3      21.341  22.367   7.2160  0.00  0.00     0.000 OA
ENDBRANCH 38 44
BRANCH 34 47
ATOM     47  O3  NAG B   4      19.677  26.693   9.7330  0.00  0.00     0.000 O
BRANCH 47 50
ATOM     48  C1  NAG B   4      22.419  28.892   8.5500  0.00  0.00     0.000 C
ATOM     49  C2  NAG B   4      21.472  27.697   8.5610  0.00  0.00     0.000 C
ATOM     50  C3  NAG B   4      20.248  27.963   9.4230  0.00  0.00     0.000 C
ATOM     51  C4  NAG B   4      20.560  28.713  10.7230  0.00  0.00     0.000 C
ATOM     52  C5  NAG B   4      21.195  30.064  10.4410  0.00  0.00     0.000 C
ATOM     53  O5  NAG B   4      22.186  30.042   9.3900  0.00  0.00     0.000 O
BRANCH 49 56
ATOM     54   N  NAG B   4      21.198  27.399   7.1450  0.00  0.00     0.000 N
ATOM     56  HD  NAG B   4      21.637  26.839   6.6510  0.00  0.00     0.000 HD
ATOM     56   C  NAG B   4      20.160  27.545   4.9550  0.00  0.00     0.000 C
ATOM     57   O  NAG B   4      19.752  29.088   6.6730  0.00  0.00     0.000 OA
ATOM     58   C  NAG B   4      20.361  28.083   6.3390  0.00  0.00     0.000 C
ENDBRANCH 49 56
ATOM     59   O  NAG B   4      22.093  32.022  11.6470  0.00  0.00     0.000 O
ATOM     61  HD  NAG B   4      22.234  31.255  11.2710  0.00  0.00     0.000 HD
ATOM     61   O  NAG B   4      22.093  32.022  11.6470  0.00  0.00     0.000 O
ATOM     63  HD  NAG B   4      22.234  31.255  11.2710  0.00  0.00     0.000 HD
ENDBRANCH 47 50
ENDBRANCH 34 47
ENDBRANCH 33 37
ENDBRANCH 17 33
ENDBRANCH 16 19
ENDBRANCH 1 16
TORSDOF 10
ENDMDL
MODEL 20
REMARK VINA RESULT:      -6.2     14.107     17.245
ROOT
ATOM      1  C1  GCU B   1      16.856  33.646  21.5530  0.00  0.00     0.000 C
ATOM      2  C2  GCU B   1      17.831  34.810  21.4770  0.00  0.00     0.000 C
ATOM      3  C3  GCU B   1      17.342  35.850  20.4810  0.00  0.00     0.000 C
ATOM      4  C4  GCU B   1      17.015  35.190  19.1500  0.00  0.00     0.000 C
ATOM      5  C5  GCU B   1      16.078  33.997  19.3440  0.00  0.00     0.000 C
ATOM      6  O5  GCU B   1      16.684  33.066  20.2500  0.00  0.00     0.000 O
ATOM      7   O  GCU B   1      17.938  35.372  22.7820  0.00  0.00     0.000 O
ATOM      9  HD  GCU B   1      18.672  35.520  23.2160  0.00  0.00     0.000 HD
ATOM      9   O  GCU B   1      18.329  36.866  20.2880  0.00  0.00     0.000 O
ATOM     11  HD  GCU B   1      19.064  37.014  20.7220  0.00  0.00     0.000 HD
ATOM     11   O  GCU B   1      16.400  36.154  18.2960  0.00  0.00     0.000 O
ATOM     13  HD  GCU B   1      17.134  36.302  18.7300  0.00  0.00     0.000 HD
ENDROOT
BRANCH 5 13
ATOM     13   C  GCU B   1      15.760  33.371  18.0070  0.00  0.00     0.000 C
ATOM     14   O  GCU B   1      14.832  33.820  17.3050  0.00  0.00     0.000 OA
ATOM     15   O  GCU B   1      16.475  32.421  17.6340  0.00  0.00     0.000 OA
ENDBRANCH 5 13
BRANCH 1 16
ATOM     16  O3  NAG B   2      17.118  32.386  21.9080  0.00  0.00     0.000 O
BRANCH 16 19
ATOM     17  C1  NAG B   2      16.214  30.063  24.7380  0.00  0.00     0.000 C
ATOM     18  C2  NAG B   2      16.875  31.253  24.0550  0.00  0.00     0.000 C
ATOM     19  C3  NAG B   2      16.373  31.385  22.6180  0.00  0.00     0.000 C
ATOM     20  C4  NAG B   2      16.532  30.059  21.8750  0.00  0.00     0.000 C
ATOM     21  C5  NAG B   2      15.831  28.949  22.6460  0.00  0.00     0.000 C
ATOM     22  O5  NAG B   2      16.400  28.866  23.9650  0.00  0.00     0.000 O
ATOM     23   O  NAG B   2      15.979  30.208  20.5630  0.00  0.00     0.000 O
ATOM     25  HD  NAG B   2      16.837  30.108  20.6210  0.00  0.00     0.000 HD
ATOM     25   C  NAG B   2      15.934  27.592  21.9520  0.00  0.00     0.000 C
ATOM     26   O  NAG B   2      17.255  27.041  22.0600  0.00  0.00     0.000 O
ATOM     28  HD  NAG B   2      18.113  26.941  22.1180  0.00  0.00     0.000 HD
BRANCH 18 30
ATOM     28   N  NAG B   2      16.767  32.053  25.2600  0.00  0.00     0.000 N
ATOM     30  HD  NAG B   2      17.370  32.470  24.8000  0.00  0.00     0.000 HD
ATOM     30   C  NAG B   2      17.568  33.088  25.5430  0.00  0.00     0.000 C
ATOM     31   C  NAG B   2      17.360  33.791  26.8550  0.00  0.00     0.000 C
ATOM     32   O  NAG B   2      18.438  33.453  24.7780  0.00  0.00     0.000 OA
ENDBRANCH 18 30
BRANCH 17 33
ATOM     33  O4  GCU B   3      16.753  29.971  26.0720  0.00  0.00     0.000 O
BRANCH 33 37
ATOM     34  C1  GCU B   3      14.864  28.686  29.5520  0.00  0.00     0.000 C
ATOM     35  C2  GCU B   3      15.884  27.746  28.9100  0.00  0.00     0.000 C
ATOM     36  C3  GCU B   3      16.753  28.524  27.9450  0.00  0.00     0.000 C
ATOM     37  C4  GCU B   3      15.874  29.244  26.9320  0.00  0.00     0.000 C
ATOM     38  C5  GCU B   3      14.891  30.160  27.6640  0.00  0.00     0.000 C
ATOM     39  O5  GCU B   3      14.099  29.363  28.5510  0.00  0.00     0.000 O
ATOM     40   O  GCU B   3      16.688  27.162  29.9380  0.00  0.00     0.000 O
ATOM     42  HD  GCU B   3      17.511  27.015  30.1630  0.00  0.00     0.000 HD
ATOM     42   O  GCU B   3      17.679  27.656  27.2670  0.00  0.00     0.000 O
ATOM     44  HD  GCU B   3      18.502  27.508  27.4910  0.00  0.00     0.000 HD
BRANCH 38 44
ATOM     44   C  GCU B   3      13.966  30.891  26.7240  0.00  0.00     0.000 C
ATOM     45   O  GCU B   3      13.103  30.241  26.1150  0.00  0.00     0.000 OA
ATOM     46   O  GCU B   3      14.081  32.123  26.5780  0.00  0.00     0.000 OA
ENDBRANCH 38 44
BRANCH 34 47
ATOM     47  O3  NAG B   4      13.985  27.963  30.2310  0.00  0.00     0.000 O
BRANCH 47 50
ATOM     48  C1  NAG B   4      11.739  27.292  33.1060  0.00  0.00     0.000 C
ATOM     49  C2  NAG B   4      13.050  27.525  32.3610  0.00  0.00     0.000 C
ATOM     50  C3  NAG B   4      12.816  28.193  31.0160  0.00  0.00     0.000 C
ATOM     51  C4  NAG B   4      11.587  27.661  30.2680  0.00  0.00     0.000 C
ATOM     52  C5  NAG B   4      10.318  27.862  31.0800  0.00  0.00     0.000 C
ATOM     53  O5  NAG B   4      10.465  27.566  32.4860  0.00  0.00     0.000 O
BRANCH 49 56
ATOM     54   N  NAG B   4      13.437  28.667  33.2070  0.00  0.00     0.000 N
ATOM     56  HD  NAG B   4      12.912  29.306  33.4650  0.00  0.00     0.000 HD
ATOM     56   C  NAG B   4      14.852  30.156  34.5000  0.00  0.00     0.000 C
ATOM     57   O  NAG B   4      15.697  28.436  33.1490  0.00  0.00     0.000 OA
ATOM     58   C  NAG B   4      14.695  29.010  33.5490  0.00  0.00     0.000 C
ENDBRANCH 49 56
ATOM     59   O  NAG B   4       7.893  27.423  30.9420  0.00  0.00     0.000 O
ATOM     61  HD  NAG B   4       8.680  27.166  31.1970  0.00  0.00     0.000 HD
ATOM     61   O  NAG B   4       7.893  27.423  30.9420  0.00  0.00     0.000 O
ATOM     63  HD  NAG B   4       8.680  27.166  31.1970  0.00  0.00     0.000 HD
ENDBRANCH 47 50
ENDBRANCH 34 47
ENDBRANCH 33 37
ENDBRANCH 17 33
ENDBRANCH 16 19
ENDBRANCH 1 16
TORSDOF 10
ENDMDL
MODEL 21
REMARK VINA RESULT:      -6.2     10.025     14.542
ROOT
ATOM      1  C1  GCU B   1      20.810  30.623  15.4010  0.00  0.00     0.000 C
ATOM      2  C2  GCU B   1      20.751  29.594  14.2820  0.00  0.00     0.000 C
ATOM      3  C3  GCU B   1      22.154  29.233  13.8180  0.00  0.00     0.000 C
ATOM      4  C4  GCU B   1      22.942  30.494  13.4980  0.00  0.00     0.000 C
ATOM      5  C5  GCU B   1      22.887  31.487  14.6600  0.00  0.00     0.000 C
ATOM      6  O5  GCU B   1      21.517  31.791  14.9530  0.00  0.00     0.000 O
ATOM      7   O  GCU B   1      20.076  28.446  14.7860  0.00  0.00     0.000 O
ATOM      9  HD  GCU B   1      19.398  28.051  14.4200  0.00  0.00     0.000 HD
ATOM      9   O  GCU B   1      22.101  28.390  12.6650  0.00  0.00     0.000 O
ATOM     11  HD  GCU B   1      21.423  27.994  12.2990  0.00  0.00     0.000 HD
ATOM     11   O  GCU B   1      24.298  30.136  13.2320  0.00  0.00     0.000 O
ATOM     13  HD  GCU B   1      23.620  29.740  12.8660  0.00  0.00     0.000 HD
ENDROOT
BRANCH 5 13
ATOM     13   C  GCU B   1      23.688  32.721  14.3200  0.00  0.00     0.000 C
ATOM     14   O  GCU B   1      24.924  32.739  14.4940  0.00  0.00     0.000 OA
ATOM     15   O  GCU B   1      23.071  33.691  13.8390  0.00  0.00     0.000 OA
ENDBRANCH 5 13
BRANCH 1 16
ATOM     16  O3  NAG B   2      19.872  31.512  15.7380  0.00  0.00     0.000 O
BRANCH 16 19
ATOM     17  C1  NAG B   2      18.248  32.031  19.1020  0.00  0.00     0.000 C
ATOM     18  C2  NAG B   2      18.757  31.257  17.8930  0.00  0.00     0.000 C
ATOM     19  C3  NAG B   2      19.543  32.181  16.9650  0.00  0.00     0.000 C
ATOM     20  C4  NAG B   2      18.716  33.420  16.6230  0.00  0.00     0.000 C
ATOM     21  C5  NAG B   2      18.268  34.111  17.9040  0.00  0.00     0.000 C
ATOM     22  O5  NAG B   2      17.497  33.183  18.6870  0.00  0.00     0.000 O
ATOM     23   O  NAG B   2      19.519  34.291  15.8180  0.00  0.00     0.000 O
ATOM     25  HD  NAG B   2      18.840  33.914  15.4360  0.00  0.00     0.000 HD
ATOM     25   C  NAG B   2      17.448  35.371  17.6390  0.00  0.00     0.000 C
ATOM     26   O  NAG B   2      16.129  35.056  17.1670  0.00  0.00     0.000 O
ATOM     28  HD  NAG B   2      15.449  34.679  16.7840  0.00  0.00     0.000 HD
BRANCH 18 30
ATOM     28   N  NAG B   2      19.239  30.126  18.6630  0.00  0.00     0.000 N
ATOM     30  HD  NAG B   2      19.003  29.767  17.9110  0.00  0.00     0.000 HD
ATOM     30   C  NAG B   2      19.153  28.854  18.2540  0.00  0.00     0.000 C
ATOM     31   C  NAG B   2      19.658  27.787  19.1840  0.00  0.00     0.000 C
ATOM     32   O  NAG B   2      18.684  28.559  17.1730  0.00  0.00     0.000 OA
ENDBRANCH 18 30
BRANCH 17 33
ATOM     33  O4  GCU B   3      17.487  31.116  19.9170  0.00  0.00     0.000 O
BRANCH 33 37
ATOM     34  C1  GCU B   3      16.083  31.460  23.8210  0.00  0.00     0.000 C
ATOM     35  C2  GCU B   3      15.266  32.124  22.7120  0.00  0.00     0.000 C
ATOM     36  C3  GCU B   3      15.671  31.549  21.3710  0.00  0.00     0.000 C
ATOM     37  C4  GCU B   3      17.174  31.695  21.1850  0.00  0.00     0.000 C
ATOM     38  C5  GCU B   3      17.905  31.000  22.3350  0.00  0.00     0.000 C
ATOM     39  O5  GCU B   3      17.484  31.595  23.5670  0.00  0.00     0.000 O
ATOM     40   O  GCU B   3      13.878  31.886  22.9530  0.00  0.00     0.000 O
ATOM     42  HD  GCU B   3      13.154  31.609  22.5670  0.00  0.00     0.000 HD
ATOM     42   O  GCU B   3      14.973  32.203  20.2950  0.00  0.00     0.000 O
ATOM     44  HD  GCU B   3      14.249  31.926  19.9100  0.00  0.00     0.000 HD
BRANCH 38 44
ATOM     44   C  GCU B   3      19.405  31.125  22.2320  0.00  0.00     0.000 C
ATOM     45   O  GCU B   3      19.944  32.162  22.6470  0.00  0.00     0.000 OA
ATOM     46   O  GCU B   3      20.070  30.193  21.7400  0.00  0.00     0.000 OA
ENDBRANCH 38 44
BRANCH 34 47
ATOM     47  O3  NAG B   4      15.871  32.111  24.9560  0.00  0.00     0.000 O
BRANCH 47 50
ATOM     48  C1  NAG B   4      13.534  30.245  27.1490  0.00  0.00     0.000 C
ATOM     49  C2  NAG B   4      14.660  30.460  26.1430  0.00  0.00     0.000 C
ATOM     50  C3  NAG B   4      15.177  31.889  26.1820  0.00  0.00     0.000 C
ATOM     51  C4  NAG B   4      14.072  32.941  26.3400  0.00  0.00     0.000 C
ATOM     52  C5  NAG B   4      13.288  32.727  27.6240  0.00  0.00     0.000 C
ATOM     53  O5  NAG B   4      12.983  31.343  27.9050  0.00  0.00     0.000 O
BRANCH 49 56
ATOM     54   N  NAG B   4      15.756  29.855  26.9210  0.00  0.00     0.000 N
ATOM     56  HD  NAG B   4      16.097  30.178  27.6480  0.00  0.00     0.000 HD
ATOM     56   C  NAG B   4      17.527  28.308  27.5210  0.00  0.00     0.000 C
ATOM     57   O  NAG B   4      16.457  28.286  25.4340  0.00  0.00     0.000 OA
ATOM     58   C  NAG B   4      16.532  28.825  26.5280  0.00  0.00     0.000 C
ENDBRANCH 49 56
ATOM     59   O  NAG B   4      11.391  33.702  28.8670  0.00  0.00     0.000 O
ATOM     61  HD  NAG B   4      11.681  33.122  28.2930  0.00  0.00     0.000 HD
ATOM     61   O  NAG B   4      11.391  33.702  28.8670  0.00  0.00     0.000 O
ATOM     63  HD  NAG B   4      11.681  33.122  28.2930  0.00  0.00     0.000 HD
ENDBRANCH 47 50
ENDBRANCH 34 47
ENDBRANCH 33 37
ENDBRANCH 17 33
ENDBRANCH 16 19
ENDBRANCH 1 16
TORSDOF 10
ENDMDL
MODEL 22
REMARK VINA RESULT:      -6.2      2.812     11.736
ROOT
ATOM      1  C1  GCU B   1      16.727  15.693  10.4840  0.00  0.00     0.000 C
ATOM      2  C2  GCU B   1      17.263  14.275  10.6110  0.00  0.00     0.000 C
ATOM      3  C3  GCU B   1      16.322  13.288   9.9390  0.00  0.00     0.000 C
ATOM      4  C4  GCU B   1      14.901  13.491  10.4420  0.00  0.00     0.000 C
ATOM      5  C5  GCU B   1      14.481  14.957  10.3270  0.00  0.00     0.000 C
ATOM      6  O5  GCU B   1      15.411  15.771  11.0550  0.00  0.00     0.000 O
ATOM      7   O  GCU B   1      18.549  14.242  10.0000  0.00  0.00     0.000 O
ATOM      9  HD  GCU B   1      19.279  13.947  10.3610  0.00  0.00     0.000 HD
ATOM      9   O  GCU B   1      16.737  11.943  10.1920  0.00  0.00     0.000 O
ATOM     11  HD  GCU B   1      17.467  11.648  10.5530  0.00  0.00     0.000 HD
ATOM     11   O  GCU B   1      14.018  12.674   9.6730  0.00  0.00     0.000 O
ATOM     13  HD  GCU B   1      14.747  12.378  10.0340  0.00  0.00     0.000 HD
ENDROOT
BRANCH 5 13
ATOM     13   C  GCU B   1      13.064  15.126  10.8190  0.00  0.00     0.000 C
ATOM     14   O  GCU B   1      12.530  14.243  11.5210  0.00  0.00     0.000 OA
ATOM     15   O  GCU B   1      12.474  16.183  10.5200  0.00  0.00     0.000 OA
ENDBRANCH 5 13
BRANCH 1 16
ATOM     16  O3  NAG B   2      16.968  16.729  11.2900  0.00  0.00     0.000 O
BRANCH 16 19
ATOM     17  C1  NAG B   2      18.624  20.093  10.8830  0.00  0.00     0.000 C
ATOM     18  C2  NAG B   2      18.520  18.574  10.9170  0.00  0.00     0.000 C
ATOM     19  C3  NAG B   2      17.062  18.146  11.0750  0.00  0.00     0.000 C
ATOM     20  C4  NAG B   2      16.427  18.852  12.2720  0.00  0.00     0.000 C
ATOM     21  C5  NAG B   2      16.587  20.358  12.1270  0.00  0.00     0.000 C
ATOM     22  O5  NAG B   2      17.988  20.671  12.0360  0.00  0.00     0.000 O
ATOM     23   O  NAG B   2      15.045  18.481  12.3330  0.00  0.00     0.000 O
ATOM     25  HD  NAG B   2      15.560  18.191  12.9660  0.00  0.00     0.000 HD
ATOM     25   C  NAG B   2      15.959  21.133  13.2840  0.00  0.00     0.000 C
ATOM     26   O  NAG B   2      16.735  21.012  14.4860  0.00  0.00     0.000 O
ATOM     28  HD  NAG B   2      17.250  20.723  15.1190  0.00  0.00     0.000 HD
BRANCH 18 30
ATOM     28   N  NAG B   2      19.446  18.394   9.8150  0.00  0.00     0.000 N
ATOM     30  HD  NAG B   2      19.532  17.660  10.2670  0.00  0.00     0.000 HD
ATOM     30   C  NAG B   2      20.287  17.357   9.7080  0.00  0.00     0.000 C
ATOM     31   C  NAG B   2      21.218  17.334   8.5290  0.00  0.00     0.000 C
ATOM     32   O  NAG B   2      20.308  16.462  10.5300  0.00  0.00     0.000 OA
ENDBRANCH 18 30
BRANCH 17 33
ATOM     33  O4  GCU B   3      20.020  20.433  10.7700  0.00  0.00     0.000 O
BRANCH 33 37
ATOM     34  C1  GCU B   3      21.902  24.088  10.1160  0.00  0.00     0.000 C
ATOM     35  C2  GCU B   3      21.330  23.824  11.5090  0.00  0.00     0.000 C
ATOM     36  C3  GCU B   3      21.084  22.340  11.6820  0.00  0.00     0.000 C
ATOM     37  C4  GCU B   3      20.192  21.835  10.5570  0.00  0.00     0.000 C
ATOM     38  C5  GCU B   3      20.845  22.140   9.2070  0.00  0.00     0.000 C
ATOM     39  O5  GCU B   3      21.042  23.554   9.1050  0.00  0.00     0.000 O
ATOM     40   O  GCU B   3      22.262  24.288  12.4880  0.00  0.00     0.000 O
ATOM     42  HD  GCU B   3      22.673  24.046  13.2100  0.00  0.00     0.000 HD
ATOM     42   O  GCU B   3      20.477  22.062  12.9570  0.00  0.00     0.000 O
ATOM     44  HD  GCU B   3      20.888  21.820  13.6800  0.00  0.00     0.000 HD
BRANCH 38 44
ATOM     44   C  GCU B   3      20.005  21.689   8.0390  0.00  0.00     0.000 C
ATOM     45   O  GCU B   3      20.164  20.539   7.6020  0.00  0.00     0.000 OA
ATOM     46   O  GCU B   3      19.171  22.469   7.5400  0.00  0.00     0.000 OA
ENDBRANCH 38 44
BRANCH 34 47
ATOM     47  O3  NAG B   4      21.919  25.396   9.9020  0.00  0.00     0.000 O
BRANCH 47 50
ATOM     48  C1  NAG B   4      20.786  28.682   8.6090  0.00  0.00     0.000 C
ATOM     49  C2  NAG B   4      21.423  27.297   8.5810  0.00  0.00     0.000 C
ATOM     50  C3  NAG B   4      20.969  26.451   9.7600  0.00  0.00     0.000 C
ATOM     51  C4  NAG B   4      20.872  27.229  11.0770  0.00  0.00     0.000 C
ATOM     52  C5  NAG B   4      19.888  28.382  10.9650  0.00  0.00     0.000 C
ATOM     53  O5  NAG B   4      19.977  29.114   9.7230  0.00  0.00     0.000 O
BRANCH 49 56
ATOM     54   N  NAG B   4      20.571  26.599   7.6020  0.00  0.00     0.000 N
ATOM     56  HD  NAG B   4      19.811  26.221   7.7710  0.00  0.00     0.000 HD
ATOM     56   C  NAG B   4      19.862  25.643   5.4870  0.00  0.00     0.000 C
ATOM     57   O  NAG B   4      22.030  26.454   5.8640  0.00  0.00     0.000 OA
ATOM     58   C  NAG B   4      20.921  26.265   6.3440  0.00  0.00     0.000 C
ENDBRANCH 49 56
ATOM     59   O  NAG B   4      18.969  30.226  12.3250  0.00  0.00     0.000 O
ATOM     61  HD  NAG B   4      19.562  29.947  11.7590  0.00  0.00     0.000 HD
ATOM     61   O  NAG B   4      18.969  30.226  12.3250  0.00  0.00     0.000 O
ATOM     63  HD  NAG B   4      19.562  29.947  11.7590  0.00  0.00     0.000 HD
ENDBRANCH 47 50
ENDBRANCH 34 47
ENDBRANCH 33 37
ENDBRANCH 17 33
ENDBRANCH 16 19
ENDBRANCH 1 16
TORSDOF 10
ENDMDL
MODEL 23
REMARK VINA RESULT:      -6.2      4.198     11.843
ROOT
ATOM      1  C1  GCU B   1      15.835  13.603   7.8410  0.00  0.00     0.000 C
ATOM      2  C2  GCU B   1      16.843  12.673   7.1830  0.00  0.00     0.000 C
ATOM      3  C3  GCU B   1      16.216  11.966   5.9910  0.00  0.00     0.000 C
ATOM      4  C4  GCU B   1      14.903  11.316   6.3970  0.00  0.00     0.000 C
ATOM      5  C5  GCU B   1      13.988  12.318   7.1020  0.00  0.00     0.000 C
ATOM      6  O5  GCU B   1      14.672  12.860   8.2400  0.00  0.00     0.000 O
ATOM      7   O  GCU B   1      17.957  13.461   6.7740  0.00  0.00     0.000 O
ATOM      9  HD  GCU B   1      18.788  13.308   6.9630  0.00  0.00     0.000 HD
ATOM      9   O  GCU B   1      17.105  10.976   5.4670  0.00  0.00     0.000 O
ATOM     11  HD  GCU B   1      17.936  10.823   5.6560  0.00  0.00     0.000 HD
ATOM     11   O  GCU B   1      14.257  10.811   5.2270  0.00  0.00     0.000 O
ATOM     13  HD  GCU B   1      15.088  10.658   5.4160  0.00  0.00     0.000 HD
ENDROOT
BRANCH 5 13
ATOM     13   C  GCU B   1      12.688  11.649   7.4810  0.00  0.00     0.000 C
ATOM     14   O  GCU B   1      11.809  11.444   6.6180  0.00  0.00     0.000 OA
ATOM     15   O  GCU B   1      12.550  11.293   8.6670  0.00  0.00     0.000 OA
ENDBRANCH 5 13
BRANCH 1 16
ATOM     16  O3  NAG B   2      15.816  14.014   9.1110  0.00  0.00     0.000 O
BRANCH 16 19
ATOM     17  C1  NAG B   2      16.296  17.093  11.2360  0.00  0.00     0.000 C
ATOM     18  C2  NAG B   2      16.702  15.878  10.4120  0.00  0.00     0.000 C
ATOM     19  C3  NAG B   2      15.478  15.260   9.7400  0.00  0.00     0.000 C
ATOM     20  C4  NAG B   2      14.384  14.989  10.7720  0.00  0.00     0.000 C
ATOM     21  C5  NAG B   2      14.059  16.271  11.5270  0.00  0.00     0.000 C
ATOM     22  O5  NAG B   2      15.256  16.750  12.1660  0.00  0.00     0.000 O
ATOM     23   O  NAG B   2      13.232  14.485  10.0870  0.00  0.00     0.000 O
ATOM     25  HD  NAG B   2      13.653  13.937  10.6080  0.00  0.00     0.000 HD
ATOM     25   C  NAG B   2      12.958  16.080  12.5680  0.00  0.00     0.000 C
ATOM     26   O  NAG B   2      13.429  15.346  13.7090  0.00  0.00     0.000 O
ATOM     28  HD  NAG B   2      13.850  14.797  14.2310  0.00  0.00     0.000 HD
BRANCH 18 30
ATOM     28   N  NAG B   2      17.683  16.040   9.3560  0.00  0.00     0.000 N
ATOM     30  HD  NAG B   2      18.158  15.764  10.0250  0.00  0.00     0.000 HD
ATOM     30   C  NAG B   2      19.003  15.903   9.5360  0.00  0.00     0.000 C
ATOM     31   C  NAG B   2      19.896  16.148   8.3520  0.00  0.00     0.000 C
ATOM     32   O  NAG B   2      19.474  15.596  10.6120  0.00  0.00     0.000 OA
ENDBRANCH 18 30
BRANCH 17 33
ATOM     33  O4  GCU B   3      17.484  17.606  11.8700  0.00  0.00     0.000 O
BRANCH 33 37
ATOM     34  C1  GCU B   3      18.581  21.497  12.8680  0.00  0.00     0.000 C
ATOM     35  C2  GCU B   3      17.626  20.765  13.8110  0.00  0.00     0.000 C
ATOM     36  C3  GCU B   3      17.682  19.277  13.5350  0.00  0.00     0.000 C
ATOM     37  C4  GCU B   3      17.394  19.019  12.0630  0.00  0.00     0.000 C
ATOM     38  C5  GCU B   3      18.397  19.787  11.2000  0.00  0.00     0.000 C
ATOM     39  O5  GCU B   3      18.287  21.181  11.5040  0.00  0.00     0.000 O
ATOM     40   O  GCU B   3      18.013  21.032  15.1610  0.00  0.00     0.000 O
ATOM     42  HD  GCU B   3      18.182  20.640  15.9150  0.00  0.00     0.000 HD
ATOM     42   O  GCU B   3      16.740  18.563  14.3560  0.00  0.00     0.000 O
ATOM     44  HD  GCU B   3      16.910  18.171  15.1100  0.00  0.00     0.000 HD
BRANCH 38 44
ATOM     44   C  GCU B   3      18.158  19.599   9.7230  0.00  0.00     0.000 C
ATOM     45   O  GCU B   3      17.030  19.844   9.2680  0.00  0.00     0.000 OA
ATOM     46   O  GCU B   3      19.088  19.210   8.9910  0.00  0.00     0.000 OA
ENDBRANCH 38 44
BRANCH 34 47
ATOM     47  O3  NAG B   4      18.372  22.801  12.9760  0.00  0.00     0.000 O
BRANCH 47 50
ATOM     48  C1  NAG B   4      19.128  26.328  13.8370  0.00  0.00     0.000 C
ATOM     49  C2  NAG B   4      18.751  24.868  14.0650  0.00  0.00     0.000 C
ATOM     50  C3  NAG B   4      19.138  24.001  12.8790  0.00  0.00     0.000 C
ATOM     51  C4  NAG B   4      18.879  24.661  11.5200  0.00  0.00     0.000 C
ATOM     52  C5  NAG B   4      19.657  25.960  11.3810  0.00  0.00     0.000 C
ATOM     53  O5  NAG B   4      19.653  26.779  12.5710  0.00  0.00     0.000 O
BRANCH 49 56
ATOM     54   N  NAG B   4      19.878  24.570  14.9660  0.00  0.00     0.000 N
ATOM     56  HD  NAG B   4      20.715  24.702  14.7880  0.00  0.00     0.000 HD
ATOM     56   C  NAG B   4      21.067  23.770  16.9240  0.00  0.00     0.000 C
ATOM     57   O  NAG B   4      18.794  23.337  16.5370  0.00  0.00     0.000 OA
ATOM     58   C  NAG B   4      19.810  23.870  16.1150  0.00  0.00     0.000 C
ENDBRANCH 49 56
ATOM     59   O  NAG B   4      20.007  27.794   9.7660  0.00  0.00     0.000 O
ATOM     61  HD  NAG B   4      19.573  27.477  10.4460  0.00  0.00     0.000 HD
ATOM     61   O  NAG B   4      20.007  27.794   9.7660  0.00  0.00     0.000 O
ATOM     63  HD  NAG B   4      19.573  27.477  10.4460  0.00  0.00     0.000 HD
ENDBRANCH 47 50
ENDBRANCH 34 47
ENDBRANCH 33 37
ENDBRANCH 17 33
ENDBRANCH 16 19
ENDBRANCH 1 16
TORSDOF 10
ENDMDL
MODEL 24
REMARK VINA RESULT:      -6.1     12.881     19.001
ROOT
ATOM      1  C1  GCU B   1      14.957  30.815  26.8340  0.00  0.00     0.000 C
ATOM      2  C2  GCU B   1      13.743  31.157  27.6850  0.00  0.00     0.000 C
ATOM      3  C3  GCU B   1      14.087  31.064  29.1640  0.00  0.00     0.000 C
ATOM      4  C4  GCU B   1      14.734  29.722  29.4690  0.00  0.00     0.000 C
ATOM      5  C5  GCU B   1      15.902  29.447  28.5210  0.00  0.00     0.000 C
ATOM      6  O5  GCU B   1      15.431  29.500  27.1670  0.00  0.00     0.000 O
ATOM      7   O  GCU B   1      13.335  32.479  27.3440  0.00  0.00     0.000 O
ATOM      9  HD  GCU B   1      12.537  32.724  27.1140  0.00  0.00     0.000 HD
ATOM      9   O  GCU B   1      12.914  31.229  29.9650  0.00  0.00     0.000 O
ATOM     11  HD  GCU B   1      12.116  31.474  29.7340  0.00  0.00     0.000 HD
ATOM     11   O  GCU B   1      15.199  29.730  30.8190  0.00  0.00     0.000 O
ATOM     13  HD  GCU B   1      14.401  29.975  30.5880  0.00  0.00     0.000 HD
ENDROOT
BRANCH 5 13
ATOM     13   C  GCU B   1      16.533  28.116  28.8560  0.00  0.00     0.000 C
ATOM     14   O  GCU B   1      17.675  27.836  28.4360  0.00  0.00     0.000 OA
ATOM     15   O  GCU B   1      15.883  27.339  29.5810  0.00  0.00     0.000 OA
ENDBRANCH 5 13
BRANCH 1 16
ATOM     16  O3  NAG B   2      14.967  30.333  25.5900  0.00  0.00     0.000 O
BRANCH 16 19
ATOM     17  C1  NAG B   2      16.409  31.861  22.4570  0.00  0.00     0.000 C
ATOM     18  C2  NAG B   2      15.589  31.797  23.7390  0.00  0.00     0.000 C
ATOM     19  C3  NAG B   2      15.864  30.489  24.4790  0.00  0.00     0.000 C
ATOM     20  C4  NAG B   2      15.671  29.297  23.5410  0.00  0.00     0.000 C
ATOM     21  C5  NAG B   2      16.539  29.469  22.3030  0.00  0.00     0.000 C
ATOM     22  O5  NAG B   2      16.177  30.697  21.6480  0.00  0.00     0.000 O
ATOM     23   O  NAG B   2      16.014  28.103  24.2540  0.00  0.00     0.000 O
ATOM     25  HD  NAG B   2      15.180  28.213  24.0450  0.00  0.00     0.000 HD
ATOM     25   C  NAG B   2      16.409  28.303  21.3250  0.00  0.00     0.000 C
ATOM     26   O  NAG B   2      15.151  28.328  20.6330  0.00  0.00     0.000 O
ATOM     28  HD  NAG B   2      14.318  28.438  20.4250  0.00  0.00     0.000 HD
BRANCH 18 30
ATOM     28   N  NAG B   2      15.929  33.076  24.3320  0.00  0.00     0.000 N
ATOM     30  HD  NAG B   2      15.068  33.040  24.4220  0.00  0.00     0.000 HD
ATOM     30   C  NAG B   2      15.023  33.967  24.7540  0.00  0.00     0.000 C
ATOM     31   C  NAG B   2      15.532  35.270  25.3060  0.00  0.00     0.000 C
ATOM     32   O  NAG B   2      13.830  33.745  24.6960  0.00  0.00     0.000 OA
ENDBRANCH 18 30
BRANCH 17 33
ATOM     33  O4  GCU B   3      16.079  33.096  21.7900  0.00  0.00     0.000 O
BRANCH 33 37
ATOM     34  C1  GCU B   3      18.174  35.263  18.9180  0.00  0.00     0.000 C
ATOM     35  C2  GCU B   3      17.213  34.179  18.4280  0.00  0.00     0.000 C
ATOM     36  C3  GCU B   3      16.255  33.811  19.5410  0.00  0.00     0.000 C
ATOM     37  C4  GCU B   3      17.040  33.407  20.7800  0.00  0.00     0.000 C
ATOM     38  C5  GCU B   3      17.969  34.550  21.1960  0.00  0.00     0.000 C
ATOM     39  O5  GCU B   3      18.850  34.840  20.1060  0.00  0.00     0.000 O
ATOM     40   O  GCU B   3      16.492  34.675  17.2990  0.00  0.00     0.000 O
ATOM     42  HD  GCU B   3      15.691  34.759  16.9810  0.00  0.00     0.000 HD
ATOM     42   O  GCU B   3      15.380  32.741  19.1390  0.00  0.00     0.000 O
ATOM     44  HD  GCU B   3      14.579  32.825  18.8210  0.00  0.00     0.000 HD
BRANCH 38 44
ATOM     44   C  GCU B   3      18.802  34.212  22.4070  0.00  0.00     0.000 C
ATOM     45   O  GCU B   3      18.456  34.661  23.5100  0.00  0.00     0.000 OA
ATOM     46   O  GCU B   3      19.811  33.492  22.2810  0.00  0.00     0.000 OA
ENDBRANCH 38 44
BRANCH 34 47
ATOM     47  O3  NAG B   4      19.130  35.426  18.0140  0.00  0.00     0.000 O
BRANCH 47 50
ATOM     48  C1  NAG B   4      20.831  37.499  15.4510  0.00  0.00     0.000 C
ATOM     49  C2  NAG B   4      19.686  36.767  16.1440  0.00  0.00     0.000 C
ATOM     50  C3  NAG B   4      20.017  36.463  17.5960  0.00  0.00     0.000 C
ATOM     51  C4  NAG B   4      21.466  36.014  17.8190  0.00  0.00     0.000 C
ATOM     52  C5  NAG B   4      22.449  37.080  17.3640  0.00  0.00     0.000 C
ATOM     53  O5  NAG B   4      22.095  37.713  16.1140  0.00  0.00     0.000 O
BRANCH 49 56
ATOM     54   N  NAG B   4      18.854  37.973  16.2970  0.00  0.00     0.000 N
ATOM     56  HD  NAG B   4      19.121  38.736  16.6100  0.00  0.00     0.000 HD
ATOM     56   C  NAG B   4      16.882  39.387  16.2700  0.00  0.00     0.000 C
ATOM     57   O  NAG B   4      16.799  37.065  15.9540  0.00  0.00     0.000 OA
ATOM     58   C  NAG B   4      17.514  38.033  16.1670  0.00  0.00     0.000 C
ENDBRANCH 49 56
ATOM     59   O  NAG B   4      24.881  37.469  17.2080  0.00  0.00     0.000 O
ATOM     61  HD  NAG B   4      24.149  37.195  16.8360  0.00  0.00     0.000 HD
ATOM     61   O  NAG B   4      24.881  37.469  17.2080  0.00  0.00     0.000 O
ATOM     63  HD  NAG B   4      24.149  37.195  16.8360  0.00  0.00     0.000 HD
ENDBRANCH 47 50
ENDBRANCH 34 47
ENDBRANCH 33 37
ENDBRANCH 17 33
ENDBRANCH 16 19
ENDBRANCH 1 16
TORSDOF 10
ENDMDL
MODEL 25
REMARK VINA RESULT:      -6.1     17.334     22.952
ROOT
ATOM      1  C1  GCU B   1      19.096  47.082   8.0950  0.00  0.00     0.000 C
ATOM      2  C2  GCU B   1      18.840  48.550   7.7920  0.00  0.00     0.000 C
ATOM      3  C3  GCU B   1      18.326  48.718   6.3700  0.00  0.00     0.000 C
ATOM      4  C4  GCU B   1      19.246  48.004   5.3910  0.00  0.00     0.000 C
ATOM      5  C5  GCU B   1      19.487  46.556   5.8190  0.00  0.00     0.000 C
ATOM      6  O5  GCU B   1      20.030  46.542   7.1470  0.00  0.00     0.000 O
ATOM      7   O  GCU B   1      17.884  49.026   8.7330  0.00  0.00     0.000 O
ATOM      9  HD  GCU B   1      17.966  49.727   9.2350  0.00  0.00     0.000 HD
ATOM      9   O  GCU B   1      18.236  50.103   6.0270  0.00  0.00     0.000 O
ATOM     11  HD  GCU B   1      18.318  50.804   6.5290  0.00  0.00     0.000 HD
ATOM     11   O  GCU B   1      18.651  48.032   4.0940  0.00  0.00     0.000 O
ATOM     13  HD  GCU B   1      18.733  48.733   4.5960  0.00  0.00     0.000 HD
ENDROOT
BRANCH 5 13
ATOM     13   C  GCU B   1      20.391  45.869   4.8230  0.00  0.00     0.000 C
ATOM     14   O  GCU B   1      21.608  45.730   5.0660  0.00  0.00     0.000 OA
ATOM     15   O  GCU B   1      19.868  45.432   3.7810  0.00  0.00     0.000 OA
ENDBRANCH 5 13
BRANCH 1 16
ATOM     16  O3  NAG B   2      19.947  46.572   8.9880  0.00  0.00     0.000 O
BRANCH 16 19
ATOM     17  C1  NAG B   2      19.574  44.565  12.1590  0.00  0.00     0.000 C
ATOM     18  C2  NAG B   2      19.420  45.760  11.2270  0.00  0.00     0.000 C
ATOM     19  C3  NAG B   2      19.918  45.407   9.8270  0.00  0.00     0.000 C
ATOM     20  C4  NAG B   2      21.333  44.833   9.8940  0.00  0.00     0.000 C
ATOM     21  C5  NAG B   2      21.364  43.648  10.8480  0.00  0.00     0.000 C
ATOM     22  O5  NAG B   2      20.928  44.084  12.1470  0.00  0.00     0.000 O
ATOM     23   O  NAG B   2      21.726  44.447   8.5730  0.00  0.00     0.000 O
ATOM     25  HD  NAG B   2      22.141  45.119   8.9270  0.00  0.00     0.000 HD
ATOM     25   C  NAG B   2      22.748  43.011  10.9530  0.00  0.00     0.000 C
ATOM     26   O  NAG B   2      23.654  43.834  11.7040  0.00  0.00     0.000 O
ATOM     28  HD  NAG B   2      24.069  44.506  12.0590  0.00  0.00     0.000 HD
BRANCH 18 30
ATOM     28   N  NAG B   2      18.787  46.760  12.0650  0.00  0.00     0.000 N
ATOM     30  HD  NAG B   2      18.184  46.596  11.4650  0.00  0.00     0.000 HD
ATOM     30   C  NAG B   2      17.604  47.324  11.7900  0.00  0.00     0.000 C
ATOM     31   C  NAG B   2      17.099  48.380  12.7330  0.00  0.00     0.000 C
ATOM     32   O  NAG B   2      16.953  47.005  10.8150  0.00  0.00     0.000 OA
ENDBRANCH 18 30
BRANCH 17 33
ATOM     33  O4  GCU B   3      19.123  44.971  13.4670  0.00  0.00     0.000 O
BRANCH 33 37
ATOM     34  C1  GCU B   3      17.581  42.749  16.6320  0.00  0.00     0.000 C
ATOM     35  C2  GCU B   3      19.100  42.781  16.4610  0.00  0.00     0.000 C
ATOM     36  C3  GCU B   3      19.485  43.940  15.5660  0.00  0.00     0.000 C
ATOM     37  C4  GCU B   3      18.730  43.841  14.2480  0.00  0.00     0.000 C
ATOM     38  C5  GCU B   3      17.224  43.819  14.5190  0.00  0.00     0.000 C
ATOM     39  O5  GCU B   3      16.929  42.699  15.3600  0.00  0.00     0.000 O
ATOM     40   O  GCU B   3      19.708  42.926  17.7460  0.00  0.00     0.000 O
ATOM     42  HD  GCU B   3      20.297  43.393  18.1770  0.00  0.00     0.000 HD
ATOM     42   O  GCU B   3      20.904  43.958  15.3240  0.00  0.00     0.000 O
ATOM     44  HD  GCU B   3      21.492  44.425  15.7540  0.00  0.00     0.000 HD
BRANCH 38 44
ATOM     44   C  GCU B   3      16.408  43.696  13.2560  0.00  0.00     0.000 C
ATOM     45   O  GCU B   3      15.713  44.661  12.9030  0.00  0.00     0.000 OA
ATOM     46   O  GCU B   3      16.448  42.641  12.5950  0.00  0.00     0.000 OA
ENDBRANCH 38 44
BRANCH 34 47
ATOM     47  O3  NAG B   4      17.243  41.621  17.2410  0.00  0.00     0.000 O
BRANCH 47 50
ATOM     48  C1  NAG B   4      14.949  38.836  18.0990  0.00  0.00     0.000 C
ATOM     49  C2  NAG B   4      15.479  40.265  18.0490  0.00  0.00     0.000 C
ATOM     50  C3  NAG B   4      16.498  40.444  16.9350  0.00  0.00     0.000 C
ATOM     51  C4  NAG B   4      17.458  39.259  16.7810  0.00  0.00     0.000 C
ATOM     52  C5  NAG B   4      16.704  37.974  16.4790  0.00  0.00     0.000 C
ATOM     53  O5  NAG B   4      15.498  37.802  17.2550  0.00  0.00     0.000 O
BRANCH 49 56
ATOM     54   N  NAG B   4      14.490  41.115  17.3630  0.00  0.00     0.000 N
ATOM     56  HD  NAG B   4      14.610  41.523  16.6090  0.00  0.00     0.000 HD
ATOM     56   C  NAG B   4      12.425  42.328  16.9710  0.00  0.00     0.000 C
ATOM     57   O  NAG B   4      12.961  41.341  19.0300  0.00  0.00     0.000 OA
ATOM     58   C  NAG B   4      13.326  41.553  17.8830  0.00  0.00     0.000 C
ENDBRANCH 49 56
ATOM     59   O  NAG B   4      17.135  35.577  16.0750  0.00  0.00     0.000 O
ATOM     61  HD  NAG B   4      16.946  36.213  16.6320  0.00  0.00     0.000 HD
ATOM     61   O  NAG B   4      17.135  35.577  16.0750  0.00  0.00     0.000 O
ATOM     63  HD  NAG B   4      16.946  36.213  16.6320  0.00  0.00     0.000 HD
ENDBRANCH 47 50
ENDBRANCH 34 47
ENDBRANCH 33 37
ENDBRANCH 17 33
ENDBRANCH 16 19
ENDBRANCH 1 16
TORSDOF 10
ENDMDL
MODEL 26
REMARK VINA RESULT:      -6.0     13.797     21.192
ROOT
ATOM      1  C1  GCU B   1      18.017  33.692  18.3830  0.00  0.00     0.000 C
ATOM      2  C2  GCU B   1      18.499  32.341  17.8760  0.00  0.00     0.000 C
ATOM      3  C3  GCU B   1      17.572  31.233  18.3500  0.00  0.00     0.000 C
ATOM      4  C4  GCU B   1      17.368  31.325  19.8540  0.00  0.00     0.000 C
ATOM      5  C5  GCU B   1      16.944  32.736  20.2660  0.00  0.00     0.000 C
ATOM      6  O5  GCU B   1      17.931  33.673  19.8170  0.00  0.00     0.000 O
ATOM      7   O  GCU B   1      18.531  32.400  16.4540  0.00  0.00     0.000 O
ATOM      9  HD  GCU B   1      19.205  32.196  15.9490  0.00  0.00     0.000 HD
ATOM      9   O  GCU B   1      18.106  29.950  18.0120  0.00  0.00     0.000 O
ATOM     11  HD  GCU B   1      18.780  29.747  17.5070  0.00  0.00     0.000 HD
ATOM     11   O  GCU B   1      16.365  30.386  20.2420  0.00  0.00     0.000 O
ATOM     13  HD  GCU B   1      17.038  30.182  19.7380  0.00  0.00     0.000 HD
ENDROOT
BRANCH 5 13
ATOM     13   C  GCU B   1      16.735  32.794  21.7600  0.00  0.00     0.000 C
ATOM     14   O  GCU B   1      15.851  33.530  22.2460  0.00  0.00     0.000 OA
ATOM     15   O  GCU B   1      17.455  32.065  22.4690  0.00  0.00     0.000 OA
ENDBRANCH 5 13
BRANCH 1 16
ATOM     16  O3  NAG B   2      18.746  34.789  18.5970  0.00  0.00     0.000 O
BRANCH 16 19
ATOM     17  C1  NAG B   2      17.563  38.369  18.6880  0.00  0.00     0.000 C
ATOM     18  C2  NAG B   2      17.700  36.948  18.1560  0.00  0.00     0.000 C
ATOM     19  C3  NAG B   2      18.452  36.076  19.1600  0.00  0.00     0.000 C
ATOM     20  C4  NAG B   2      19.772  36.737  19.5540  0.00  0.00     0.000 C
ATOM     21  C5  NAG B   2      19.511  38.143  20.0730  0.00  0.00     0.000 C
ATOM     22  O5  NAG B   2      18.848  38.902  19.0460  0.00  0.00     0.000 O
ATOM     23   O  NAG B   2      20.403  35.925  20.5510  0.00  0.00     0.000 O
ATOM     25  HD  NAG B   2      20.785  35.965  19.7750  0.00  0.00     0.000 HD
ATOM     25   C  NAG B   2      20.789  38.861  20.5020  0.00  0.00     0.000 C
ATOM     26   O  NAG B   2      21.579  39.260  19.3710  0.00  0.00     0.000 O
ATOM     28  HD  NAG B   2      21.961  39.301  18.5950  0.00  0.00     0.000 HD
BRANCH 18 30
ATOM     28   N  NAG B   2      16.327  36.621  17.8190  0.00  0.00     0.000 N
ATOM     30  HD  NAG B   2      16.764  36.400  17.1050  0.00  0.00     0.000 HD
ATOM     30   C  NAG B   2      15.933  36.214  16.6060  0.00  0.00     0.000 C
ATOM     31   C  NAG B   2      14.467  35.955  16.4000  0.00  0.00     0.000 C
ATOM     32   O  NAG B   2      16.722  36.059  15.6950  0.00  0.00     0.000 OA
ENDBRANCH 18 30
BRANCH 17 33
ATOM     33  O4  GCU B   3      16.880  39.147  17.6840  0.00  0.00     0.000 O
BRANCH 33 37
ATOM     34  C1  GCU B   3      14.537  42.561  18.1120  0.00  0.00     0.000 C
ATOM     35  C2  GCU B   3      15.996  42.749  17.6950  0.00  0.00     0.000 C
ATOM     36  C3  GCU B   3      16.551  41.436  17.1840  0.00  0.00     0.000 C
ATOM     37  C4  GCU B   3      16.357  40.355  18.2380  0.00  0.00     0.000 C
ATOM     38  C5  GCU B   3      14.873  40.238  18.5890  0.00  0.00     0.000 C
ATOM     39  O5  GCU B   3      14.417  41.506  19.0700  0.00  0.00     0.000 O
ATOM     40   O  GCU B   3      16.060  43.744  16.6710  0.00  0.00     0.000 O
ATOM     42  HD  GCU B   3      16.388  43.897  15.8840  0.00  0.00     0.000 HD
ATOM     42   O  GCU B   3      17.945  41.558  16.8500  0.00  0.00     0.000 O
ATOM     44  HD  GCU B   3      18.272  41.711  16.0630  0.00  0.00     0.000 HD
BRANCH 38 44
ATOM     44   C  GCU B   3      14.606  39.199  19.6490  0.00  0.00     0.000 C
ATOM     45   O  GCU B   3      14.131  38.106  19.3040  0.00  0.00     0.000 OA
ATOM     46   O  GCU B   3      14.867  39.452  20.8410  0.00  0.00     0.000 OA
ENDBRANCH 38 44
BRANCH 34 47
ATOM     47  O3  NAG B   4      14.129  43.652  18.7440  0.00  0.00     0.000 O
BRANCH 47 50
ATOM     48  C1  NAG B   4      10.543  44.432  19.2820  0.00  0.00     0.000 C
ATOM     49  C2  NAG B   4      11.928  43.869  19.5870  0.00  0.00     0.000 C
ATOM     50  C3  NAG B   4      12.996  44.519  18.7220  0.00  0.00     0.000 C
ATOM     51  C4  NAG B   4      12.560  44.751  17.2710  0.00  0.00     0.000 C
ATOM     52  C5  NAG B   4      11.337  45.651  17.2010  0.00  0.00     0.000 C
ATOM     53  O5  NAG B   4      10.332  45.359  18.1970  0.00  0.00     0.000 O
BRANCH 49 56
ATOM     54   N  NAG B   4      12.064  44.620  20.8470  0.00  0.00     0.000 N
ATOM     56  HD  NAG B   4      11.862  45.454  20.9640  0.00  0.00     0.000 HD
ATOM     56   C  NAG B   4      12.635  45.086  23.1600  0.00  0.00     0.000 C
ATOM     57   O  NAG B   4      13.308  43.138  22.0410  0.00  0.00     0.000 OA
ATOM     58   C  NAG B   4      12.703  44.197  21.9560  0.00  0.00     0.000 C
ENDBRANCH 49 56
ATOM     59   O  NAG B   4       9.813  46.647  15.5330  0.00  0.00     0.000 O
ATOM     61  HD  NAG B   4       9.993  45.999  16.0790  0.00  0.00     0.000 HD
ATOM     61   O  NAG B   4       9.813  46.647  15.5330  0.00  0.00     0.000 O
ATOM     63  HD  NAG B   4       9.993  45.999  16.0790  0.00  0.00     0.000 HD
ENDBRANCH 47 50
ENDBRANCH 34 47
ENDBRANCH 33 37
ENDBRANCH 17 33
ENDBRANCH 16 19
ENDBRANCH 1 16
TORSDOF 10
ENDMDL
MODEL 27
REMARK VINA RESULT:      -6.0     21.145     24.650
ROOT
ATOM      1  C1  GCU B   1      14.751  26.602  34.0550  0.00  0.00     0.000 C
ATOM      2  C2  GCU B   1      16.271  26.655  34.0670  0.00  0.00     0.000 C
ATOM      3  C3  GCU B   1      16.853  25.277  33.7920  0.00  0.00     0.000 C
ATOM      4  C4  GCU B   1      16.233  24.248  34.7250  0.00  0.00     0.000 C
ATOM      5  C5  GCU B   1      14.706  24.319  34.6840  0.00  0.00     0.000 C
ATOM      6  O5  GCU B   1      14.287  25.648  35.0240  0.00  0.00     0.000 O
ATOM      7   O  GCU B   1      16.680  27.584  33.0680  0.00  0.00     0.000 O
ATOM      9  HD  GCU B   1      17.219  28.252  33.1820  0.00  0.00     0.000 HD
ATOM      9   O  GCU B   1      18.273  25.287  33.9590  0.00  0.00     0.000 O
ATOM     11  HD  GCU B   1      18.813  25.955  34.0730  0.00  0.00     0.000 HD
ATOM     11   O  GCU B   1      16.668  22.946  34.3320  0.00  0.00     0.000 O
ATOM     13  HD  GCU B   1      17.207  23.614  34.4450  0.00  0.00     0.000 HD
ENDROOT
BRANCH 5 13
ATOM     13   C  GCU B   1      14.118  23.279  35.6080  0.00  0.00     0.000 C
ATOM     14   O  GCU B   1      14.862  22.581  36.3270  0.00  0.00     0.000 OA
ATOM     15   O  GCU B   1      12.877  23.174  35.6380  0.00  0.00     0.000 OA
ENDBRANCH 5 13
BRANCH 1 16
ATOM     16  O3  NAG B   2      13.904  27.419  34.6850  0.00  0.00     0.000 O
BRANCH 16 19
ATOM     17  C1  NAG B   2      10.477  28.542  33.5800  0.00  0.00     0.000 C
ATOM     18  C2  NAG B   2      11.969  28.257  33.4580  0.00  0.00     0.000 C
ATOM     19  C3  NAG B   2      12.473  27.532  34.7050  0.00  0.00     0.000 C
ATOM     20  C4  NAG B   2      12.074  28.299  35.9650  0.00  0.00     0.000 C
ATOM     21  C5  NAG B   2      10.568  28.520  35.9790  0.00  0.00     0.000 C
ATOM     22  O5  NAG B   2      10.194  29.250  34.7970  0.00  0.00     0.000 O
ATOM     23   O  NAG B   2      12.498  27.545  37.1060  0.00  0.00     0.000 O
ATOM     25  HD  NAG B   2      12.903  28.295  36.9560  0.00  0.00     0.000 HD
ATOM     25   C  NAG B   2      10.093  29.270  37.2220  0.00  0.00     0.000 C
ATOM     26   O  NAG B   2      10.450  30.660  37.1720  0.00  0.00     0.000 O
ATOM     28  HD  NAG B   2      10.855  31.411  37.0220  0.00  0.00     0.000 HD
BRANCH 18 30
ATOM     28   N  NAG B   2      11.898  27.753  32.1000  0.00  0.00     0.000 N
ATOM     30  HD  NAG B   2      12.678  28.129  32.1310  0.00  0.00     0.000 HD
ATOM     30   C  NAG B   2      12.823  28.001  31.1640  0.00  0.00     0.000 C
ATOM     31   C  NAG B   2      12.586  27.446  29.7870  0.00  0.00     0.000 C
ATOM     32   O  NAG B   2      13.820  28.651  31.4040  0.00  0.00     0.000 OA
ENDBRANCH 18 30
BRANCH 17 33
ATOM     33  O4  GCU B   3      10.072  29.256  32.3940  0.00  0.00     0.000 O
BRANCH 33 37
ATOM     34  C1  GCU B   3       6.289  29.810  30.7460  0.00  0.00     0.000 C
ATOM     35  C2  GCU B   3       6.796  30.865  31.7310  0.00  0.00     0.000 C
ATOM     36  C3  GCU B   3       8.297  30.735  31.8840  0.00  0.00     0.000 C
ATOM     37  C4  GCU B   3       8.648  29.311  32.2900  0.00  0.00     0.000 C
ATOM     38  C5  GCU B   3       8.105  28.330  31.2490  0.00  0.00     0.000 C
ATOM     39  O5  GCU B   3       6.687  28.500  31.1600  0.00  0.00     0.000 O
ATOM     40   O  GCU B   3       6.460  32.162  31.2330  0.00  0.00     0.000 O
ATOM     42  HD  GCU B   3       6.799  32.942  31.0710  0.00  0.00     0.000 HD
ATOM     42   O  GCU B   3       8.799  31.666  32.8600  0.00  0.00     0.000 O
ATOM     44  HD  GCU B   3       9.139  32.446  32.6970  0.00  0.00     0.000 HD
BRANCH 38 44
ATOM     44   C  GCU B   3       8.394  26.892  31.5980  0.00  0.00     0.000 C
ATOM     45   O  GCU B   3       8.786  26.131  30.7000  0.00  0.00     0.000 OA
ATOM     46   O  GCU B   3       8.240  26.497  32.7690  0.00  0.00     0.000 OA
ENDBRANCH 38 44
BRANCH 34 47
ATOM     47  O3  NAG B   4       4.964  29.797  30.7780  0.00  0.00     0.000 O
BRANCH 47 50
ATOM     48  C1  NAG B   4       1.373  29.881  29.8550  0.00  0.00     0.000 C
ATOM     49  C2  NAG B   4       2.623  30.134  30.6920  0.00  0.00     0.000 C
ATOM     50  C3  NAG B   4       3.888  29.990  29.8620  0.00  0.00     0.000 C
ATOM     51  C4  NAG B   4       3.847  28.820  28.8720  0.00  0.00     0.000 C
ATOM     52  C5  NAG B   4       2.697  28.970  27.8890  0.00  0.00     0.000 C
ATOM     53  O5  NAG B   4       1.464  29.424  28.4890  0.00  0.00     0.000 O
BRANCH 49 56
ATOM     54   N  NAG B   4       2.368  31.585  30.7340  0.00  0.00     0.000 N
ATOM     56  HD  NAG B   4       1.982  32.049  30.1130  0.00  0.00     0.000 HD
ATOM     56   C  NAG B   4       2.395  33.870  31.5510  0.00  0.00     0.000 C
ATOM     57   O  NAG B   4       3.646  32.144  32.5290  0.00  0.00     0.000 OA
ATOM     58   C  NAG B   4       2.864  32.451  31.6410  0.00  0.00     0.000 C
ENDBRANCH 49 56
ATOM     59   O  NAG B   4       1.673  27.788  25.9790  0.00  0.00     0.000 O
ATOM     61  HD  NAG B   4       1.696  27.938  26.8320  0.00  0.00     0.000 HD
ATOM     61   O  NAG B   4       1.673  27.788  25.9790  0.00  0.00     0.000 O
ATOM     63  HD  NAG B   4       1.696  27.938  26.8320  0.00  0.00     0.000 HD
ENDBRANCH 47 50
ENDBRANCH 34 47
ENDBRANCH 33 37
ENDBRANCH 17 33
ENDBRANCH 16 19
ENDBRANCH 1 16
TORSDOF 10
ENDMDL
MODEL 28
REMARK VINA RESULT:      -6.0     15.076     21.785
ROOT
ATOM      1  C1  GCU B   1       9.606  11.886  22.3320  0.00  0.00     0.000 C
ATOM      2  C2  GCU B   1      10.625  11.570  21.2480  0.00  0.00     0.000 C
ATOM      3  C3  GCU B   1      10.525  12.577  20.1140  0.00  0.00     0.000 C
ATOM      4  C4  GCU B   1       9.085  12.689  19.6360  0.00  0.00     0.000 C
ATOM      5  C5  GCU B   1       8.136  12.946  20.8080  0.00  0.00     0.000 C
ATOM      6  O5  GCU B   1       8.283  11.894  21.7710  0.00  0.00     0.000 O
ATOM      7   O  GCU B   1      11.918  11.610  21.8450  0.00  0.00     0.000 O
ATOM      9  HD  GCU B   1      12.520  10.989  21.8030  0.00  0.00     0.000 HD
ATOM      9   O  GCU B   1      11.368  12.195  19.0240  0.00  0.00     0.000 O
ATOM     11  HD  GCU B   1      11.969  11.574  18.9810  0.00  0.00     0.000 HD
ATOM     11   O  GCU B   1       8.992  13.759  18.6950  0.00  0.00     0.000 O
ATOM     13  HD  GCU B   1       9.594  13.138  18.6530  0.00  0.00     0.000 HD
ENDROOT
BRANCH 5 13
ATOM     13   C  GCU B   1       6.718  13.066  20.3030  0.00  0.00     0.000 C
ATOM     14   O  GCU B   1       6.297  14.152  19.8550  0.00  0.00     0.000 OA
ATOM     15   O  GCU B   1       6.011  12.040  20.3280  0.00  0.00     0.000 OA
ENDBRANCH 5 13
BRANCH 1 16
ATOM     16  O3  NAG B   2       9.060  11.038  23.2070  0.00  0.00     0.000 O
BRANCH 16 19
ATOM     17  C1  NAG B   2       8.921  10.946  26.9750  0.00  0.00     0.000 C
ATOM     18  C2  NAG B   2       9.563  10.964  25.5940  0.00  0.00     0.000 C
ATOM     19  C3  NAG B   2       8.502  11.199  24.5200  0.00  0.00     0.000 C
ATOM     20  C4  NAG B   2       7.356  10.199  24.6750  0.00  0.00     0.000 C
ATOM     21  C5  NAG B   2       6.794  10.274  26.0880  0.00  0.00     0.000 C
ATOM     22  O5  NAG B   2       7.849   9.991  27.0240  0.00  0.00     0.000 O
ATOM     23   O  NAG B   2       6.353  10.507  23.7010  0.00  0.00     0.000 O
ATOM     25  HD  NAG B   2       6.790   9.766  23.5980  0.00  0.00     0.000 HD
ATOM     25   C  NAG B   2       5.631   9.310  26.3120  0.00  0.00     0.000 C
ATOM     26   O  NAG B   2       6.080   7.949  26.3990  0.00  0.00     0.000 O
ATOM     28  HD  NAG B   2       6.516   7.208  26.2960  0.00  0.00     0.000 HD
BRANCH 18 30
ATOM     28   N  NAG B   2      10.677  11.790  26.0180  0.00  0.00     0.000 N
ATOM     30  HD  NAG B   2      11.006  11.340  25.3550  0.00  0.00     0.000 HD
ATOM     30   C  NAG B   2      11.915  11.687  25.5180  0.00  0.00     0.000 C
ATOM     31   C  NAG B   2      12.975  12.585  26.0930  0.00  0.00     0.000 C
ATOM     32   O  NAG B   2      12.185  10.899  24.6340  0.00  0.00     0.000 OA
ENDBRANCH 18 30
BRANCH 17 33
ATOM     33  O4  GCU B   3       9.964  10.685  27.9360  0.00  0.00     0.000 O
BRANCH 33 37
ATOM     34  C1  GCU B   3      10.117  11.541  32.0080  0.00  0.00     0.000 C
ATOM     35  C2  GCU B   3       9.664  10.141  31.5940  0.00  0.00     0.000 C
ATOM     36  C3  GCU B   3      10.072   9.879  30.1590  0.00  0.00     0.000 C
ATOM     37  C4  GCU B   3       9.525  10.981  29.2630  0.00  0.00     0.000 C
ATOM     38  C5  GCU B   3      10.031  12.340  29.7510  0.00  0.00     0.000 C
ATOM     39  O5  GCU B   3       9.605  12.526  31.1050  0.00  0.00     0.000 O
ATOM     40   O  GCU B   3      10.271   9.182  32.4620  0.00  0.00     0.000 O
ATOM     42  HD  GCU B   3      10.721   8.442  32.4580  0.00  0.00     0.000 HD
ATOM     42   O  GCU B   3       9.599   8.597  29.7120  0.00  0.00     0.000 O
ATOM     44  HD  GCU B   3      10.048   7.857  29.7070  0.00  0.00     0.000 HD
BRANCH 38 44
ATOM     44   C  GCU B   3       9.507  13.488  28.9240  0.00  0.00     0.000 C
ATOM     45   O  GCU B   3       8.347  13.879  29.1190  0.00  0.00     0.000 OA
ATOM     46   O  GCU B   3      10.242  14.019  28.0700  0.00  0.00     0.000 OA
ENDBRANCH 38 44
BRANCH 34 47
ATOM     47  O3  NAG B   4       9.578  11.834  33.1830  0.00  0.00     0.000 O
BRANCH 47 50
ATOM     48  C1  NAG B   4       9.568  13.052  36.6860  0.00  0.00     0.000 C
ATOM     49  C2  NAG B   4       9.874  12.127  35.5130  0.00  0.00     0.000 C
ATOM     50  C3  NAG B   4       9.718  12.843  34.1820  0.00  0.00     0.000 C
ATOM     51  C4  NAG B   4       8.510  13.786  34.1260  0.00  0.00     0.000 C
ATOM     52  C5  NAG B   4       8.603  14.865  35.1920  0.00  0.00     0.000 C
ATOM     53  O5  NAG B   4       9.060  14.387  36.4760  0.00  0.00     0.000 O
BRANCH 49 56
ATOM     54   N  NAG B   4      11.327  12.178  35.7520  0.00  0.00     0.000 N
ATOM     56  HD  NAG B   4      11.774  12.878  35.9990  0.00  0.00     0.000 HD
ATOM     56   C  NAG B   4      13.636  11.439  35.8600  0.00  0.00     0.000 C
ATOM     57   O  NAG B   4      11.932  10.179  34.8550  0.00  0.00     0.000 OA
ATOM     58   C  NAG B   4      12.216  11.215  35.4380  0.00  0.00     0.000 C
ENDBRANCH 49 56
ATOM     59   O  NAG B   4       7.332  16.804  36.0380  0.00  0.00     0.000 O
ATOM     61  HD  NAG B   4       7.515  15.959  36.0880  0.00  0.00     0.000 HD
ATOM     61   O  NAG B   4       7.332  16.804  36.0380  0.00  0.00     0.000 O
ATOM     63  HD  NAG B   4       7.515  15.959  36.0880  0.00  0.00     0.000 HD
ENDBRANCH 47 50
ENDBRANCH 34 47
ENDBRANCH 33 37
ENDBRANCH 17 33
ENDBRANCH 16 19
ENDBRANCH 1 16
TORSDOF 10
ENDMDL
MODEL 29
REMARK VINA RESULT:      -6.0     13.265     18.780
ROOT
ATOM      1  C1  GCU B   1      15.427  29.526  28.1210  0.00  0.00     0.000 C
ATOM      2  C2  GCU B   1      14.089  29.310  28.8110  0.00  0.00     0.000 C
ATOM      3  C3  GCU B   1      14.244  29.423  30.3200  0.00  0.00     0.000 C
ATOM      4  C4  GCU B   1      15.374  28.526  30.8010  0.00  0.00     0.000 C
ATOM      5  C5  GCU B   1      16.655  28.779  30.0040  0.00  0.00     0.000 C
ATOM      6  O5  GCU B   1      16.388  28.577  28.6100  0.00  0.00     0.000 O
ATOM      7   O  GCU B   1      13.185  30.295  28.3210  0.00  0.00     0.000 O
ATOM      9  HD  GCU B   1      12.399  30.148  27.9900  0.00  0.00     0.000 HD
ATOM      9   O  GCU B   1      13.027  29.065  30.9800  0.00  0.00     0.000 O
ATOM     11  HD  GCU B   1      12.241  28.917  30.6490  0.00  0.00     0.000 HD
ATOM     11   O  GCU B   1      15.608  28.781  32.1860  0.00  0.00     0.000 O
ATOM     13  HD  GCU B   1      14.822  28.634  31.8550  0.00  0.00     0.000 HD
ENDROOT
BRANCH 5 13
ATOM     13   C  GCU B   1      17.761  27.886  30.5120  0.00  0.00     0.000 C
ATOM     14   O  GCU B   1      18.953  28.245  30.4220  0.00  0.00     0.000 OA
ATOM     15   O  GCU B   1      17.430  26.807  31.0400  0.00  0.00     0.000 OA
ENDBRANCH 5 13
BRANCH 1 16
ATOM     16  O3  NAG B   2      15.811  29.065  26.9290  0.00  0.00     0.000 O
BRANCH 16 19
ATOM     17  C1  NAG B   2      16.933  30.821  23.7840  0.00  0.00     0.000 C
ATOM     18  C2  NAG B   2      16.008  30.469  24.9430  0.00  0.00     0.000 C
ATOM     19  C3  NAG B   2      16.723  29.549  25.9310  0.00  0.00     0.000 C
ATOM     20  C4  NAG B   2      17.314  28.343  25.2020  0.00  0.00     0.000 C
ATOM     21  C5  NAG B   2      18.220  28.815  24.0730  0.00  0.00     0.000 C
ATOM     22  O5  NAG B   2      17.452  29.630  23.1700  0.00  0.00     0.000 O
ATOM     23   O  NAG B   2      18.038  27.553  26.1520  0.00  0.00     0.000 O
ATOM     25  HD  NAG B   2      17.314  27.210  25.8230  0.00  0.00     0.000 HD
ATOM     25   C  NAG B   2      18.861  27.659  23.3080  0.00  0.00     0.000 C
ATOM     26   O  NAG B   2      17.910  26.986  22.4690  0.00  0.00     0.000 O
ATOM     28  HD  NAG B   2      17.186  26.643  22.1400  0.00  0.00     0.000 HD
BRANCH 18 30
ATOM     28   N  NAG B   2      15.542  31.828  25.1460  0.00  0.00     0.000 N
ATOM     30  HD  NAG B   2      14.859  31.348  25.3780  0.00  0.00     0.000 HD
ATOM     30   C  NAG B   2      14.284  32.143  25.4780  0.00  0.00     0.000 C
ATOM     31   C  NAG B   2      13.943  33.601  25.6100  0.00  0.00     0.000 C
ATOM     32   O  NAG B   2      13.439  31.292  25.6660  0.00  0.00     0.000 OA
ENDBRANCH 18 30
BRANCH 17 33
ATOM     33  O4  GCU B   3      16.191  31.657  22.8730  0.00  0.00     0.000 O
BRANCH 33 37
ATOM     34  C1  GCU B   3      17.446  33.883  19.5860  0.00  0.00     0.000 C
ATOM     35  C2  GCU B   3      17.160  32.397  19.3700  0.00  0.00     0.000 C
ATOM     36  C3  GCU B   3      16.330  31.867  20.5200  0.00  0.00     0.000 C
ATOM     37  C4  GCU B   3      17.035  32.161  21.8370  0.00  0.00     0.000 C
ATOM     38  C5  GCU B   3      17.276  33.667  21.9660  0.00  0.00     0.000 C
ATOM     39  O5  GCU B   3      18.070  34.098  20.8560  0.00  0.00     0.000 O
ATOM     40   O  GCU B   3      16.455  32.236  18.1370  0.00  0.00     0.000 O
ATOM     42  HD  GCU B   3      15.755  31.859  17.7920  0.00  0.00     0.000 HD
ATOM     42   O  GCU B   3      16.102  30.453  20.3860  0.00  0.00     0.000 O
ATOM     44  HD  GCU B   3      15.403  30.076  20.0420  0.00  0.00     0.000 HD
BRANCH 38 44
ATOM     44   C  GCU B   3      17.997  34.033  23.2390  0.00  0.00     0.000 C
ATOM     45   O  GCU B   3      19.237  34.002  23.2500  0.00  0.00     0.000 OA
ATOM     46   O  GCU B   3      17.342  34.361  24.2470  0.00  0.00     0.000 OA
ENDBRANCH 38 44
BRANCH 34 47
ATOM     47  O3  NAG B   4      18.337  34.281  18.6890  0.00  0.00     0.000 O
BRANCH 47 50
ATOM     48  C1  NAG B   4      18.753  36.521  15.7630  0.00  0.00     0.000 C
ATOM     49  C2  NAG B   4      18.067  35.529  16.6960  0.00  0.00     0.000 C
ATOM     50  C3  NAG B   4      18.727  35.503  18.0650  0.00  0.00     0.000 C
ATOM     51  C4  NAG B   4      20.258  35.584  18.0150  0.00  0.00     0.000 C
ATOM     52  C5  NAG B   4      20.720  36.861  17.3330  0.00  0.00     0.000 C
ATOM     53  O5  NAG B   4      19.960  37.208  16.1540  0.00  0.00     0.000 O
BRANCH 49 56
ATOM     54   N  NAG B   4      16.908  36.407  16.9360  0.00  0.00     0.000 N
ATOM     56  HD  NAG B   4      16.942  37.258  17.0930  0.00  0.00     0.000 HD
ATOM     56   C  NAG B   4      14.599  37.075  17.2720  0.00  0.00     0.000 C
ATOM     57   O  NAG B   4      15.291  34.835  17.2180  0.00  0.00     0.000 OA
ATOM     58   C  NAG B   4      15.639  36.004  17.1450  0.00  0.00     0.000 C
ENDBRANCH 49 56
ATOM     59   O  NAG B   4      22.805  38.013  16.6860  0.00  0.00     0.000 O
ATOM     61  HD  NAG B   4      22.159  37.475  16.4760  0.00  0.00     0.000 HD
ATOM     61   O  NAG B   4      22.805  38.013  16.6860  0.00  0.00     0.000 O
ATOM     63  HD  NAG B   4      22.159  37.475  16.4760  0.00  0.00     0.000 HD
ENDBRANCH 47 50
ENDBRANCH 34 47
ENDBRANCH 33 37
ENDBRANCH 17 33
ENDBRANCH 16 19
ENDBRANCH 1 16
TORSDOF 10
ENDMDL
MODEL 30
REMARK VINA RESULT:      -5.9      7.094     10.902
ROOT
ATOM      1  C1  GCU B   1      22.044  29.570   8.2110  0.00  0.00     0.000 C
ATOM      2  C2  GCU B   1      23.345  30.113   7.6400  0.00  0.00     0.000 C
ATOM      3  C3  GCU B   1      23.077  30.921   6.3800  0.00  0.00     0.000 C
ATOM      4  C4  GCU B   1      22.230  30.114   5.4080  0.00  0.00     0.000 C
ATOM      5  C5  GCU B   1      20.979  29.563   6.0950  0.00  0.00     0.000 C
ATOM      6  O5  GCU B   1      21.373  28.770   7.2230  0.00  0.00     0.000 O
ATOM      7   O  GCU B   1      23.950  30.925   8.6410  0.00  0.00     0.000 O
ATOM      9  HD  GCU B   1      24.764  30.857   8.9310  0.00  0.00     0.000 HD
ATOM      9   O  GCU B   1      24.305  31.299   5.7530  0.00  0.00     0.000 O
ATOM     11  HD  GCU B   1      25.118  31.231   6.0430  0.00  0.00     0.000 HD
ATOM     11   O  GCU B   1      21.852  30.954   4.3170  0.00  0.00     0.000 O
ATOM     13  HD  GCU B   1      22.666  30.886   4.6070  0.00  0.00     0.000 HD
ENDROOT
BRANCH 5 13
ATOM     13   C  GCU B   1      20.152  28.779   5.1040  0.00  0.00     0.000 C
ATOM     14   O  GCU B   1      20.565  28.600   3.9400  0.00  0.00     0.000 OA
ATOM     15   O  GCU B   1      19.073  28.304   5.5060  0.00  0.00     0.000 OA
ENDBRANCH 5 13
BRANCH 1 16
ATOM     16  O3  NAG B   2      21.879  28.486   8.9730  0.00  0.00     0.000 O
BRANCH 16 19
ATOM     17  C1  NAG B   2      20.615  28.028  12.4970  0.00  0.00     0.000 C
ATOM     18  C2  NAG B   2      21.506  28.562  11.3830  0.00  0.00     0.000 C
ATOM     19  C3  NAG B   2      20.957  28.146  10.0190  0.00  0.00     0.000 C
ATOM     20  C4  NAG B   2      20.725  26.636   9.9770  0.00  0.00     0.000 C
ATOM     21  C5  NAG B   2      19.822  26.220  11.1300  0.00  0.00     0.000 C
ATOM     22  O5  NAG B   2      20.441  26.607  12.3690  0.00  0.00     0.000 O
ATOM     23   O  NAG B   2      20.139  26.305   8.7130  0.00  0.00     0.000 O
ATOM     25  HD  NAG B   2      20.947  26.027   8.8590  0.00  0.00     0.000 HD
ATOM     25   C  NAG B   2      19.533  24.721  11.1420  0.00  0.00     0.000 C
ATOM     26   O  NAG B   2      20.678  23.963  11.5650  0.00  0.00     0.000 O
ATOM     28  HD  NAG B   2      21.485  23.686  11.7110  0.00  0.00     0.000 HD
BRANCH 18 30
ATOM     28   N  NAG B   2      22.536  29.317  12.0710  0.00  0.00     0.000 N
ATOM     30  HD  NAG B   2      22.091  29.929  11.6500  0.00  0.00     0.000 HD
ATOM     30   C  NAG B   2      22.739  30.630  11.9010  0.00  0.00     0.000 C
ATOM     31   C  NAG B   2      23.877  31.262  12.6520  0.00  0.00     0.000 C
ATOM     32   O  NAG B   2      22.036  31.297  11.1680  0.00  0.00     0.000 OA
ENDBRANCH 18 30
BRANCH 17 33
ATOM     33  O4  GCU B   3      21.204  28.421  13.7530  0.00  0.00     0.000 O
BRANCH 33 37
ATOM     34  C1  GCU B   3      19.449  29.430  17.3910  0.00  0.00     0.000 C
ATOM     35  C2  GCU B   3      19.291  27.990  16.9010  0.00  0.00     0.000 C
ATOM     36  C3  GCU B   3      20.318  27.704  15.8260  0.00  0.00     0.000 C
ATOM     37  C4  GCU B   3      20.197  28.737  14.7150  0.00  0.00     0.000 C
ATOM     38  C5  GCU B   3      20.372  30.141  15.2970  0.00  0.00     0.000 C
ATOM     39  O5  GCU B   3      19.368  30.348  16.2970  0.00  0.00     0.000 O
ATOM     40   O  GCU B   3      19.471  27.103  18.0070  0.00  0.00     0.000 O
ATOM     42  HD  GCU B   3      19.902  26.392  18.2510  0.00  0.00     0.000 HD
ATOM     42   O  GCU B   3      20.151  26.379  15.2910  0.00  0.00     0.000 O
ATOM     44  HD  GCU B   3      20.582  25.669  15.5350  0.00  0.00     0.000 HD
BRANCH 38 44
ATOM     44   C  GCU B   3      20.239  31.224  14.2550  0.00  0.00     0.000 C
ATOM     45   O  GCU B   3      20.931  32.246  14.3700  0.00  0.00     0.000 OA
ATOM     46   O  GCU B   3      19.447  31.073  13.3050  0.00  0.00     0.000 OA
ENDBRANCH 38 44
BRANCH 34 47
ATOM     47  O3  NAG B   4      18.423  29.731  18.1730  0.00  0.00     0.000 O
BRANCH 47 50
ATOM     48  C1  NAG B   4      16.759  30.250  21.4470  0.00  0.00     0.000 C
ATOM     49  C2  NAG B   4      17.455  29.493  20.3200  0.00  0.00     0.000 C
ATOM     50  C3  NAG B   4      18.201  30.438  19.3920  0.00  0.00     0.000 C
ATOM     51  C4  NAG B   4      17.446  31.739  19.0970  0.00  0.00     0.000 C
ATOM     52  C5  NAG B   4      17.165  32.515  20.3730  0.00  0.00     0.000 C
ATOM     53  O5  NAG B   4      16.738  31.692  21.4810  0.00  0.00     0.000 O
BRANCH 49 56
ATOM     54   N  NAG B   4      18.689  28.988  20.9470  0.00  0.00     0.000 N
ATOM     56  HD  NAG B   4      19.457  29.387  20.9450  0.00  0.00     0.000 HD
ATOM     56   C  NAG B   4      20.181  27.481  22.1280  0.00  0.00     0.000 C
ATOM     57   O  NAG B   4      18.044  26.855  21.3940  0.00  0.00     0.000 OA
ATOM     58   C  NAG B   4      18.874  27.750  21.4470  0.00  0.00     0.000 C
ENDBRANCH 49 56
ATOM     59   O  NAG B   4      16.073  34.599  21.1190  0.00  0.00     0.000 O
ATOM     61  HD  NAG B   4      16.019  33.749  20.9650  0.00  0.00     0.000 HD
ATOM     61   O  NAG B   4      16.073  34.599  21.1190  0.00  0.00     0.000 O
ATOM     63  HD  NAG B   4      16.019  33.749  20.9650  0.00  0.00     0.000 HD
ENDBRANCH 47 50
ENDBRANCH 34 47
ENDBRANCH 33 37
ENDBRANCH 17 33
ENDBRANCH 16 19
ENDBRANCH 1 16
TORSDOF 10
ENDMDL
MODEL 31
REMARK VINA RESULT:      -5.9      7.596     11.418
ROOT
ATOM      1  C1  GCU B   1      21.896  29.542   8.5300  0.00  0.00     0.000 C
ATOM      2  C2  GCU B   1      23.131  29.883   7.7120  0.00  0.00     0.000 C
ATOM      3  C3  GCU B   1      22.734  30.402   6.3390  0.00  0.00     0.000 C
ATOM      4  C4  GCU B   1      21.762  29.439   5.6740  0.00  0.00     0.000 C
ATOM      5  C5  GCU B   1      20.590  29.114   6.6010  0.00  0.00     0.000 C
ATOM      6  O5  GCU B   1      21.097  28.575   7.8290  0.00  0.00     0.000 O
ATOM      7   O  GCU B   1      23.867  30.869   8.4300  0.00  0.00     0.000 O
ATOM      9  HD  GCU B   1      24.707  30.829   8.6360  0.00  0.00     0.000 HD
ATOM      9   O  GCU B   1      23.887  30.574   5.5110  0.00  0.00     0.000 O
ATOM     11  HD  GCU B   1      24.727  30.534   5.7180  0.00  0.00     0.000 HD
ATOM     11   O  GCU B   1      21.276  30.032   4.4700  0.00  0.00     0.000 O
ATOM     13  HD  GCU B   1      22.116  29.993   4.6760  0.00  0.00     0.000 HD
ENDROOT
BRANCH 5 13
ATOM     13   C  GCU B   1      19.636  28.168   5.9110  0.00  0.00     0.000 C
ATOM     14   O  GCU B   1      19.084  28.498   4.8410  0.00  0.00     0.000 OA
ATOM     15   O  GCU B   1      19.452  27.054   6.4370  0.00  0.00     0.000 OA
ENDBRANCH 5 13
BRANCH 1 16
ATOM     16  O3  NAG B   2      21.800  28.664   9.5310  0.00  0.00     0.000 O
BRANCH 16 19
ATOM     17  C1  NAG B   2      21.161  28.958  13.2370  0.00  0.00     0.000 C
ATOM     18  C2  NAG B   2      21.893  29.166  11.9170  0.00  0.00     0.000 C
ATOM     19  C3  NAG B   2      21.050  28.641  10.7560  0.00  0.00     0.000 C
ATOM     20  C4  NAG B   2      20.617  27.200  11.0210  0.00  0.00     0.000 C
ATOM     21  C5  NAG B   2      19.895  27.117  12.3590  0.00  0.00     0.000 C
ATOM     22  O5  NAG B   2      20.779  27.582  13.3940  0.00  0.00     0.000 O
ATOM     23   O  NAG B   2      19.768  26.779   9.9470  0.00  0.00     0.000 O
ATOM     25  HD  NAG B   2      20.544  26.401  10.0090  0.00  0.00     0.000 HD
ATOM     25   C  NAG B   2      19.417  25.703  12.6840  0.00  0.00     0.000 C
ATOM     26   O  NAG B   2      20.509  24.844  13.0460  0.00  0.00     0.000 O
ATOM     28  HD  NAG B   2      21.285  24.465  13.1080  0.00  0.00     0.000 HD
BRANCH 18 30
ATOM     28   N  NAG B   2      22.270  30.544  12.1700  0.00  0.00     0.000 N
ATOM     30  HD  NAG B   2      22.941  30.235  11.7180  0.00  0.00     0.000 HD
ATOM     30   C  NAG B   2      23.464  31.060  11.8540  0.00  0.00     0.000 C
ATOM     31   C  NAG B   2      23.721  32.495  12.2210  0.00  0.00     0.000 C
ATOM     32   O  NAG B   2      24.319  30.403  11.2950  0.00  0.00     0.000 OA
ENDBRANCH 18 30
BRANCH 17 33
ATOM     33  O4  GCU B   3      22.019  29.438  14.2910  0.00  0.00     0.000 O
BRANCH 33 37
ATOM     34  C1  GCU B   3      21.232  30.256  18.2970  0.00  0.00     0.000 C
ATOM     35  C2  GCU B   3      21.407  28.792  17.8920  0.00  0.00     0.000 C
ATOM     36  C3  GCU B   3      22.091  28.716  16.5440  0.00  0.00     0.000 C
ATOM     37  C4  GCU B   3      21.309  29.535  15.5270  0.00  0.00     0.000 C
ATOM     38  C5  GCU B   3      21.188  30.981  16.0130  0.00  0.00     0.000 C
ATOM     39  O5  GCU B   3      20.527  30.980  17.2830  0.00  0.00     0.000 O
ATOM     40   O  GCU B   3      22.194  28.129  18.8840  0.00  0.00     0.000 O
ATOM     42  HD  GCU B   3      22.884  27.615  18.9790  0.00  0.00     0.000 HD
ATOM     42   O  GCU B   3      22.208  27.353  16.0980  0.00  0.00     0.000 O
ATOM     44  HD  GCU B   3      22.898  26.839  16.1930  0.00  0.00     0.000 HD
BRANCH 38 44
ATOM     44   C  GCU B   3      20.400  31.849  15.0650  0.00  0.00     0.000 C
ATOM     45   O  GCU B   3      21.019  32.583  14.2800  0.00  0.00     0.000 OA
ATOM     46   O  GCU B   3      19.155  31.813  15.0840  0.00  0.00     0.000 OA
ENDBRANCH 38 44
BRANCH 34 47
ATOM     47  O3  NAG B   4      20.454  30.314  19.3680  0.00  0.00     0.000 O
BRANCH 47 50
ATOM     48  C1  NAG B   4      17.356  31.250  21.1800  0.00  0.00     0.000 C
ATOM     49  C2  NAG B   4      18.656  31.449  20.4080  0.00  0.00     0.000 C
ATOM     50  C3  NAG B   4      19.065  30.186  19.6690  0.00  0.00     0.000 C
ATOM     51  C4  NAG B   4      18.834  28.899  20.4690  0.00  0.00     0.000 C
ATOM     52  C5  NAG B   4      17.367  28.734  20.8340  0.00  0.00     0.000 C
ATOM     53  O5  NAG B   4      16.727  29.954  21.2670  0.00  0.00     0.000 O
BRANCH 49 56
ATOM     54   N  NAG B   4      18.404  32.639  19.5760  0.00  0.00     0.000 N
ATOM     56  HD  NAG B   4      18.525  33.461  19.8190  0.00  0.00     0.000 HD
ATOM     56   C  NAG B   4      17.705  33.966  17.6680  0.00  0.00     0.000 C
ATOM     57   O  NAG B   4      17.257  31.673  17.8680  0.00  0.00     0.000 OA
ATOM     58   C  NAG B   4      17.765  32.655  18.3890  0.00  0.00     0.000 C
ENDBRANCH 49 56
ATOM     59   O  NAG B   4      15.882  27.179  22.0470  0.00  0.00     0.000 O
ATOM     61  HD  NAG B   4      16.379  27.889  22.0560  0.00  0.00     0.000 HD
ATOM     61   O  NAG B   4      15.882  27.179  22.0470  0.00  0.00     0.000 O
ATOM     63  HD  NAG B   4      16.379  27.889  22.0560  0.00  0.00     0.000 HD
ENDBRANCH 47 50
ENDBRANCH 34 47
ENDBRANCH 33 37
ENDBRANCH 17 33
ENDBRANCH 16 19
ENDBRANCH 1 16
TORSDOF 10
ENDMDL
MODEL 32
REMARK VINA RESULT:      -5.9     23.138     26.875
ROOT
ATOM      1  C1  GCU B   1      15.526  20.653  36.6450  0.00  0.00     0.000 C
ATOM      2  C2  GCU B   1      16.746  21.548  36.7950  0.00  0.00     0.000 C
ATOM      3  C3  GCU B   1      17.024  22.291  35.4970  0.00  0.00     0.000 C
ATOM      4  C4  GCU B   1      17.075  21.313  34.3330  0.00  0.00     0.000 C
ATOM      5  C5  GCU B   1      15.833  20.421  34.3080  0.00  0.00     0.000 C
ATOM      6  O5  GCU B   1      15.725  19.732  35.5610  0.00  0.00     0.000 O
ATOM      7   O  GCU B   1      16.485  22.464  37.8540  0.00  0.00     0.000 O
ATOM      9  HD  GCU B   1      16.994  22.612  38.5380  0.00  0.00     0.000 HD
ATOM      9   O  GCU B   1      18.258  23.008  35.5800  0.00  0.00     0.000 O
ATOM     11  HD  GCU B   1      18.766  23.156  36.2650  0.00  0.00     0.000 HD
ATOM     11   O  GCU B   1      17.165  22.051  33.1140  0.00  0.00     0.000 O
ATOM     13  HD  GCU B   1      17.674  22.199  33.7980  0.00  0.00     0.000 HD
ENDROOT
BRANCH 5 13
ATOM     13   C  GCU B   1      15.905  19.471  33.1360  0.00  0.00     0.000 C
ATOM     14   O  GCU B   1      16.970  19.335  32.5000  0.00  0.00     0.000 OA
ATOM     15   O  GCU B   1      14.878  18.823  32.8600  0.00  0.00     0.000 OA
ENDBRANCH 5 13
BRANCH 1 16
ATOM     16  O3  NAG B   2      15.242  19.543  37.3300  0.00  0.00     0.000 O
BRANCH 16 19
ATOM     17  C1  NAG B   2      11.879  17.966  37.9860  0.00  0.00     0.000 C
ATOM     18  C2  NAG B   2      12.921  19.075  37.9180  0.00  0.00     0.000 C
ATOM     19  C3  NAG B   2      14.192  18.569  37.2390  0.00  0.00     0.000 C
ATOM     20  C4  NAG B   2      14.676  17.283  37.9090  0.00  0.00     0.000 C
ATOM     21  C5  NAG B   2      13.558  16.251  37.9140  0.00  0.00     0.000 C
ATOM     22  O5  NAG B   2      12.426  16.795  38.6150  0.00  0.00     0.000 O
ATOM     23   O  NAG B   2      15.820  16.805  37.1920  0.00  0.00     0.000 O
ATOM     25  HD  NAG B   2      15.952  17.098  37.9960  0.00  0.00     0.000 HD
ATOM     25   C  NAG B   2      13.977  14.930  38.5560  0.00  0.00     0.000 C
ATOM     26   O  NAG B   2      14.085  15.044  39.9830  0.00  0.00     0.000 O
ATOM     28  HD  NAG B   2      14.217  15.338  40.7870  0.00  0.00     0.000 HD
BRANCH 18 30
ATOM     28   N  NAG B   2      12.267  20.229  38.5060  0.00  0.00     0.000 N
ATOM     30  HD  NAG B   2      12.351  20.453  37.6740  0.00  0.00     0.000 HD
ATOM     30   C  NAG B   2      12.032  21.370  37.8470  0.00  0.00     0.000 C
ATOM     31   C  NAG B   2      11.385  22.494  38.6070  0.00  0.00     0.000 C
ATOM     32   O  NAG B   2      12.327  21.506  36.6760  0.00  0.00     0.000 OA
ENDBRANCH 18 30
BRANCH 17 33
ATOM     33  O4  GCU B   3      10.723  18.494  38.6670  0.00  0.00     0.000 O
BRANCH 33 37
ATOM     34  C1  GCU B   3       6.757  17.227  38.6780  0.00  0.00     0.000 C
ATOM     35  C2  GCU B   3       7.725  16.540  39.6430  0.00  0.00     0.000 C
ATOM     36  C3  GCU B   3       8.967  17.390  39.8060  0.00  0.00     0.000 C
ATOM     37  C4  GCU B   3       9.575  17.675  38.4400  0.00  0.00     0.000 C
ATOM     38  C5  GCU B   3       8.539  18.362  37.5490  0.00  0.00     0.000 C
ATOM     39  O5  GCU B   3       7.399  17.505  37.4300  0.00  0.00     0.000 O
ATOM     40   O  GCU B   3       7.076  16.366  40.9040  0.00  0.00     0.000 O
ATOM     42  HD  GCU B   3       7.184  16.495  41.7530  0.00  0.00     0.000 HD
ATOM     42   O  GCU B   3       9.932  16.739  40.6520  0.00  0.00     0.000 O
ATOM     44  HD  GCU B   3      10.041  16.868  41.5010  0.00  0.00     0.000 HD
BRANCH 38 44
ATOM     44   C  GCU B   3       9.064  18.653  36.1650  0.00  0.00     0.000 C
ATOM     45   O  GCU B   3       9.557  19.769  35.9400  0.00  0.00     0.000 OA
ATOM     46   O  GCU B   3       8.996  17.778  35.2810  0.00  0.00     0.000 OA
ENDBRANCH 38 44
BRANCH 34 47
ATOM     47  O3  NAG B   4       5.777  16.385  38.3850  0.00  0.00     0.000 O
BRANCH 47 50
ATOM     48  C1  NAG B   4       2.469  14.897  37.6110  0.00  0.00     0.000 C
ATOM     49  C2  NAG B   4       3.782  15.111  38.3570  0.00  0.00     0.000 C
ATOM     50  C3  NAG B   4       4.399  16.460  38.0240  0.00  0.00     0.000 C
ATOM     51  C4  NAG B   4       4.280  16.846  36.5450  0.00  0.00     0.000 C
ATOM     52  C5  NAG B   4       2.825  16.913  36.1090  0.00  0.00     0.000 C
ATOM     53  O5  NAG B   4       2.006  15.840  36.6210  0.00  0.00     0.000 O
BRANCH 49 56
ATOM     54   N  NAG B   4       3.109  15.375  39.6410  0.00  0.00     0.000 N
ATOM     56  HD  NAG B   4       2.390  15.846  39.7470  0.00  0.00     0.000 HD
ATOM     56   C  NAG B   4       2.705  15.367  42.0340  0.00  0.00     0.000 C
ATOM     57   O  NAG B   4       4.716  14.640  41.0710  0.00  0.00     0.000 OA
ATOM     58   C  NAG B   4       3.603  15.102  40.8650  0.00  0.00     0.000 C
ENDBRANCH 49 56
ATOM     59   O  NAG B   4       1.472  17.377  34.0970  0.00  0.00     0.000 O
ATOM     61  HD  NAG B   4       1.872  16.800  34.6040  0.00  0.00     0.000 HD
ATOM     61   O  NAG B   4       1.472  17.377  34.0970  0.00  0.00     0.000 O
ATOM     63  HD  NAG B   4       1.872  16.800  34.6040  0.00  0.00     0.000 HD
ENDBRANCH 47 50
ENDBRANCH 34 47
ENDBRANCH 33 37
ENDBRANCH 17 33
ENDBRANCH 16 19
ENDBRANCH 1 16
TORSDOF 10
ENDMDL
MODEL 33
REMARK VINA RESULT:      -5.9     23.511     27.522
ROOT
ATOM      1  C1  GCU B   1       8.323  21.555  38.5520  0.00  0.00     0.000 C
ATOM      2  C2  GCU B   1       8.580  21.181  40.0040  0.00  0.00     0.000 C
ATOM      3  C3  GCU B   1       9.999  20.665  40.1770  0.00  0.00     0.000 C
ATOM      4  C4  GCU B   1      10.286  19.566  39.1650  0.00  0.00     0.000 C
ATOM      5  C5  GCU B   1       9.938  20.021  37.7460  0.00  0.00     0.000 C
ATOM      6  O5  GCU B   1       8.561  20.419  37.7050  0.00  0.00     0.000 O
ATOM      7   O  GCU B   1       8.367  22.347  40.7940  0.00  0.00     0.000 O
ATOM      9  HD  GCU B   1       7.854  22.405  41.4900  0.00  0.00     0.000 HD
ATOM      9   O  GCU B   1      10.196  20.164  41.5020  0.00  0.00     0.000 O
ATOM     11  HD  GCU B   1       9.683  20.223  42.1970  0.00  0.00     0.000 HD
ATOM     11   O  GCU B   1      11.670  19.223  39.2360  0.00  0.00     0.000 O
ATOM     13  HD  GCU B   1      11.158  19.282  39.9310  0.00  0.00     0.000 HD
ENDROOT
BRANCH 5 13
ATOM     13   C  GCU B   1      10.245  18.918  36.7630  0.00  0.00     0.000 C
ATOM     14   O  GCU B   1      11.415  18.730  36.3700  0.00  0.00     0.000 OA
ATOM     15   O  GCU B   1       9.297  18.199  36.3920  0.00  0.00     0.000 OA
ENDBRANCH 5 13
BRANCH 1 16
ATOM     16  O3  NAG B   2       7.150  21.587  37.9150  0.00  0.00     0.000 O
BRANCH 16 19
ATOM     17  C1  NAG B   2       5.736  24.326  35.7410  0.00  0.00     0.000 C
ATOM     18  C2  NAG B   2       6.397  23.704  36.9650  0.00  0.00     0.000 C
ATOM     19  C3  NAG B   2       6.697  22.228  36.7130  0.00  0.00     0.000 C
ATOM     20  C4  NAG B   2       5.440  21.503  36.2330  0.00  0.00     0.000 C
ATOM     21  C5  NAG B   2       4.874  22.208  35.0090  0.00  0.00     0.000 C
ATOM     22  O5  NAG B   2       4.576  23.573  35.3530  0.00  0.00     0.000 O
ATOM     23   O  NAG B   2       5.786  20.146  35.9360  0.00  0.00     0.000 O
ATOM     25  HD  NAG B   2       5.269  20.281  36.6170  0.00  0.00     0.000 HD
ATOM     25   C  NAG B   2       3.620  21.528  34.4620  0.00  0.00     0.000 C
ATOM     26   O  NAG B   2       2.482  21.755  35.3080  0.00  0.00     0.000 O
ATOM     28  HD  NAG B   2       1.965  21.890  35.9890  0.00  0.00     0.000 HD
BRANCH 18 30
ATOM     28   N  NAG B   2       7.356  24.773  37.1710  0.00  0.00     0.000 N
ATOM     30  HD  NAG B   2       7.177  24.510  37.9770  0.00  0.00     0.000 HD
ATOM     30   C  NAG B   2       7.696  25.248  38.3760  0.00  0.00     0.000 C
ATOM     31   C  NAG B   2       8.672  26.390  38.4240  0.00  0.00     0.000 C
ATOM     32   O  NAG B   2       7.238  24.783  39.4010  0.00  0.00     0.000 OA
ENDBRANCH 18 30
BRANCH 17 33
ATOM     33  O4  GCU B   3       5.447  25.703  36.0540  0.00  0.00     0.000 O
BRANCH 33 37
ATOM     34  C1  GCU B   3       4.653  28.957  33.5820  0.00  0.00     0.000 C
ATOM     35  C2  GCU B   3       3.514  27.972  33.8460  0.00  0.00     0.000 C
ATOM     36  C3  GCU B   3       3.842  27.132  35.0620  0.00  0.00     0.000 C
ATOM     37  C4  GCU B   3       5.192  26.457  34.8670  0.00  0.00     0.000 C
ATOM     38  C5  GCU B   3       6.266  27.516  34.6120  0.00  0.00     0.000 C
ATOM     39  O5  GCU B   3       5.898  28.266  33.4500  0.00  0.00     0.000 O
ATOM     40   O  GCU B   3       2.307  28.707  34.0640  0.00  0.00     0.000 O
ATOM     42  HD  GCU B   3       1.639  28.779  34.6100  0.00  0.00     0.000 HD
ATOM     42   O  GCU B   3       2.824  26.143  35.2980  0.00  0.00     0.000 O
ATOM     44  HD  GCU B   3       2.155  26.215  35.8440  0.00  0.00     0.000 HD
BRANCH 38 44
ATOM     44   C  GCU B   3       7.631  26.918  34.3840  0.00  0.00     0.000 C
ATOM     45   O  GCU B   3       8.530  27.159  35.2050  0.00  0.00     0.000 OA
ATOM     46   O  GCU B   3       7.831  26.197  33.3880  0.00  0.00     0.000 OA
ENDBRANCH 38 44
BRANCH 34 47
ATOM     47  O3  NAG B   4       4.451  29.538  32.4070  0.00  0.00     0.000 O
BRANCH 47 50
ATOM     48  C1  NAG B   4       4.755  28.631  28.8240  0.00  0.00     0.000 C
ATOM     49  C2  NAG B   4       5.070  28.617  30.3160  0.00  0.00     0.000 C
ATOM     50  C3  NAG B   4       3.918  29.178  31.1340  0.00  0.00     0.000 C
ATOM     51  C4  NAG B   4       3.248  30.402  30.4980  0.00  0.00     0.000 C
ATOM     52  C5  NAG B   4       2.686  30.072  29.1260  0.00  0.00     0.000 C
ATOM     53  O5  NAG B   4       3.554  29.248  28.3160  0.00  0.00     0.000 O
BRANCH 49 56
ATOM     54   N  NAG B   4       4.822  27.242  30.7850  0.00  0.00     0.000 N
ATOM     56  HD  NAG B   4       4.144  26.984  31.2580  0.00  0.00     0.000 HD
ATOM     56   C  NAG B   4       5.198  24.877  31.1790  0.00  0.00     0.000 C
ATOM     57   O  NAG B   4       6.844  26.312  30.3250  0.00  0.00     0.000 OA
ATOM     58   C  NAG B   4       5.695  26.217  30.7310  0.00  0.00     0.000 C
ENDBRANCH 49 56
ATOM     59   O  NAG B   4       1.489  31.157  27.2590  0.00  0.00     0.000 O
ATOM     61  HD  NAG B   4       2.240  30.922  27.6210  0.00  0.00     0.000 HD
ATOM     61   O  NAG B   4       1.489  31.157  27.2590  0.00  0.00     0.000 O
ATOM     63  HD  NAG B   4       2.240  30.922  27.6210  0.00  0.00     0.000 HD
ENDBRANCH 47 50
ENDBRANCH 34 47
ENDBRANCH 33 37
ENDBRANCH 17 33
ENDBRANCH 16 19
ENDBRANCH 1 16
TORSDOF 10
ENDMDL
MODEL 34
REMARK VINA RESULT:      -5.9     13.517     15.643
ROOT
ATOM      1  C1  GCU B   1      22.236  35.663  15.7230  0.00  0.00     0.000 C
ATOM      2  C2  GCU B   1      23.207  34.821  14.9090  0.00  0.00     0.000 C
ATOM      3  C3  GCU B   1      24.465  35.615  14.5930  0.00  0.00     0.000 C
ATOM      4  C4  GCU B   1      24.099  36.957  13.9790  0.00  0.00     0.000 C
ATOM      5  C5  GCU B   1      23.073  37.696  14.8410  0.00  0.00     0.000 C
ATOM      6  O5  GCU B   1      21.915  36.867  15.0080  0.00  0.00     0.000 O
ATOM      7   O  GCU B   1      23.521  33.662  15.6750  0.00  0.00     0.000 O
ATOM      9  HD  GCU B   1      23.465  32.841  15.4050  0.00  0.00     0.000 HD
ATOM      9   O  GCU B   1      25.309  34.887  13.6980  0.00  0.00     0.000 O
ATOM     11  HD  GCU B   1      25.253  34.066  13.4280  0.00  0.00     0.000 HD
ATOM     11   O  GCU B   1      25.282  37.746  13.8530  0.00  0.00     0.000 O
ATOM     13  HD  GCU B   1      25.226  36.925  13.5830  0.00  0.00     0.000 HD
ENDROOT
BRANCH 5 13
ATOM     13   C  GCU B   1      22.740  39.028  14.2150  0.00  0.00     0.000 C
ATOM     14   O  GCU B   1      22.427  40.002  14.9310  0.00  0.00     0.000 OA
ATOM     15   O  GCU B   1      22.818  39.115  12.9740  0.00  0.00     0.000 OA
ENDBRANCH 5 13
BRANCH 1 16
ATOM     16  O3  NAG B   2      20.909  35.536  15.7920  0.00  0.00     0.000 O
BRANCH 16 19
ATOM     17  C1  NAG B   2      18.646  34.613  18.6640  0.00  0.00     0.000 C
ATOM     18  C2  NAG B   2      19.796  34.460  17.6780  0.00  0.00     0.000 C
ATOM     19  C3  NAG B   2      19.953  35.731  16.8450  0.00  0.00     0.000 C
ATOM     20  C4  NAG B   2      18.618  36.118  16.2080  0.00  0.00     0.000 C
ATOM     21  C5  NAG B   2      17.551  36.245  17.2860  0.00  0.00     0.000 C
ATOM     22  O5  NAG B   2      17.440  34.991  17.9820  0.00  0.00     0.000 O
ATOM     23   O  NAG B   2      18.794  37.352  15.5040  0.00  0.00     0.000 O
ATOM     25  HD  NAG B   2      18.647  36.643  15.0280  0.00  0.00     0.000 HD
ATOM     25   C  NAG B   2      16.189  36.647  16.7230  0.00  0.00     0.000 C
ATOM     26   O  NAG B   2      15.565  35.561  16.0190  0.00  0.00     0.000 O
ATOM     28  HD  NAG B   2      15.418  34.853  15.5430  0.00  0.00     0.000 HD
BRANCH 18 30
ATOM     28   N  NAG B   2      20.782  33.957  18.6160  0.00  0.00     0.000 N
ATOM     30  HD  NAG B   2      20.939  33.498  17.8990  0.00  0.00     0.000 HD
ATOM     30   C  NAG B   2      21.593  32.923  18.3630  0.00  0.00     0.000 C
ATOM     31   C  NAG B   2      22.532  32.491  19.4550  0.00  0.00     0.000 C
ATOM     32   O  NAG B   2      21.580  32.345  17.2950  0.00  0.00     0.000 OA
ENDBRANCH 18 30
BRANCH 17 33
ATOM     33  O4  GCU B   3      18.528  33.374  19.3910  0.00  0.00     0.000 O
BRANCH 33 37
ATOM     34  C1  GCU B   3      16.185  32.360  22.6800  0.00  0.00     0.000 C
ATOM     35  C2  GCU B   3      15.538  32.283  21.2970  0.00  0.00     0.000 C
ATOM     36  C3  GCU B   3      16.615  32.263  20.2340  0.00  0.00     0.000 C
ATOM     37  C4  GCU B   3      17.528  33.468  20.4080  0.00  0.00     0.000 C
ATOM     38  C5  GCU B   3      18.129  33.460  21.8150  0.00  0.00     0.000 C
ATOM     39  O5  GCU B   3      17.061  33.488  22.7670  0.00  0.00     0.000 O
ATOM     40   O  GCU B   3      14.747  31.095  21.2220  0.00  0.00     0.000 O
ATOM     42  HD  GCU B   3      14.600  30.401  20.7260  0.00  0.00     0.000 HD
ATOM     42   O  GCU B   3      16.041  32.263  18.9140  0.00  0.00     0.000 O
ATOM     44  HD  GCU B   3      15.894  31.569  18.4180  0.00  0.00     0.000 HD
BRANCH 38 44
ATOM     44   C  GCU B   3      19.029  34.643  22.0700  0.00  0.00     0.000 C
ATOM     45   O  GCU B   3      18.549  35.784  21.9830  0.00  0.00     0.000 OA
ATOM     46   O  GCU B   3      20.225  34.458  22.3650  0.00  0.00     0.000 OA
ENDBRANCH 38 44
BRANCH 34 47
ATOM     47  O3  NAG B   4      15.240  32.585  23.5820  0.00  0.00     0.000 O
BRANCH 47 50
ATOM     48  C1  NAG B   4      13.518  30.600  26.2000  0.00  0.00     0.000 C
ATOM     49  C2  NAG B   4      14.264  30.877  24.8980  0.00  0.00     0.000 C
ATOM     50  C3  NAG B   4      14.969  32.222  24.9350  0.00  0.00     0.000 C
ATOM     51  C4  NAG B   4      14.150  33.331  25.6060  0.00  0.00     0.000 C
ATOM     52  C5  NAG B   4      13.816  32.976  27.0450  0.00  0.00     0.000 C
ATOM     53  O5  NAG B   4      13.421  31.600  27.2360  0.00  0.00     0.000 O
BRANCH 49 56
ATOM     54   N  NAG B   4      15.423  30.013  25.1850  0.00  0.00     0.000 N
ATOM     56  HD  NAG B   4      15.960  30.095  25.8590  0.00  0.00     0.000 HD
ATOM     56   C  NAG B   4      17.073  28.258  24.8890  0.00  0.00     0.000 C
ATOM     57   O  NAG B   4      15.560  28.892  23.2130  0.00  0.00     0.000 OA
ATOM     58   C  NAG B   4      15.951  29.093  24.3530  0.00  0.00     0.000 C
ENDBRANCH 49 56
ATOM     59   O  NAG B   4      12.609  33.898  28.9910  0.00  0.00     0.000 O
ATOM     61  HD  NAG B   4      12.602  33.401  28.2820  0.00  0.00     0.000 HD
ATOM     61   O  NAG B   4      12.609  33.898  28.9910  0.00  0.00     0.000 O
ATOM     63  HD  NAG B   4      12.602  33.401  28.2820  0.00  0.00     0.000 HD
ENDBRANCH 47 50
ENDBRANCH 34 47
ENDBRANCH 33 37
ENDBRANCH 17 33
ENDBRANCH 16 19
ENDBRANCH 1 16
TORSDOF 10
ENDMDL
MODEL 35
REMARK VINA RESULT:      -5.8      4.472      9.090
ROOT
ATOM      1  C1  GCU B   1      16.539  18.464  11.1330  0.00  0.00     0.000 C
ATOM      2  C2  GCU B   1      17.161  19.360  10.0740  0.00  0.00     0.000 C
ATOM      3  C3  GCU B   1      18.274  20.203  10.6760  0.00  0.00     0.000 C
ATOM      4  C4  GCU B   1      17.775  20.921  11.9210  0.00  0.00     0.000 C
ATOM      5  C5  GCU B   1      17.114  19.942  12.8920  0.00  0.00     0.000 C
ATOM      6  O5  GCU B   1      16.045  19.263  12.2200  0.00  0.00     0.000 O
ATOM      7   O  GCU B   1      17.666  18.521   9.0400  0.00  0.00     0.000 O
ATOM      9  HD  GCU B   1      17.496  18.594   8.1940  0.00  0.00     0.000 HD
ATOM      9   O  GCU B   1      18.754  21.158   9.7270  0.00  0.00     0.000 O
ATOM     11  HD  GCU B   1      18.584  21.231   8.8810  0.00  0.00     0.000 HD
ATOM     11   O  GCU B   1      18.880  21.563  12.5580  0.00  0.00     0.000 O
ATOM     13  HD  GCU B   1      18.710  21.635  11.7120  0.00  0.00     0.000 HD
ENDROOT
BRANCH 5 13
ATOM     13   C  GCU B   1      16.641  20.679  14.1220  0.00  0.00     0.000 C
ATOM     14   O  GCU B   1      16.754  20.160  15.2520  0.00  0.00     0.000 OA
ATOM     15   O  GCU B   1      16.168  21.820  13.9610  0.00  0.00     0.000 OA
ENDBRANCH 5 13
BRANCH 1 16
ATOM     16  O3  NAG B   2      15.303  17.959  11.1480  0.00  0.00     0.000 O
BRANCH 16 19
ATOM     17  C1  NAG B   2      13.893  15.162  13.2500  0.00  0.00     0.000 C
ATOM     18  C2  NAG B   2      14.871  15.859  12.3120  0.00  0.00     0.000 C
ATOM     19  C3  NAG B   2      14.505  17.334  12.1650  0.00  0.00     0.000 C
ATOM     20  C4  NAG B   2      13.035  17.481  11.7730  0.00  0.00     0.000 C
ATOM     21  C5  NAG B   2      12.157  16.753  12.7800  0.00  0.00     0.000 C
ATOM     22  O5  NAG B   2      12.539  15.366  12.8130  0.00  0.00     0.000 O
ATOM     23   O  NAG B   2      12.719  18.877  11.7230  0.00  0.00     0.000 O
ATOM     25  HD  NAG B   2      12.723  18.446  10.9720  0.00  0.00     0.000 HD
ATOM     25   C  NAG B   2      10.668  16.870  12.4590  0.00  0.00     0.000 C
ATOM     26   O  NAG B   2      10.304  16.064  11.3280  0.00  0.00     0.000 O
ATOM     28  HD  NAG B   2      10.308  15.634  10.5770  0.00  0.00     0.000 HD
BRANCH 18 30
ATOM     28   N  NAG B   2      16.162  15.526  12.8840  0.00  0.00     0.000 N
ATOM     30  HD  NAG B   2      16.250  15.300  12.0530  0.00  0.00     0.000 HD
ATOM     30   C  NAG B   2      17.132  14.889  12.2170  0.00  0.00     0.000 C
ATOM     31   C  NAG B   2      18.399  14.575  12.9620  0.00  0.00     0.000 C
ATOM     32   O  NAG B   2      17.005  14.569  11.0520  0.00  0.00     0.000 OA
ENDBRANCH 18 30
BRANCH 17 33
ATOM     33  O4  GCU B   3      14.269  13.772  13.3170  0.00  0.00     0.000 O
BRANCH 33 37
ATOM     34  C1  GCU B   3      13.033  10.727  15.8730  0.00  0.00     0.000 C
ATOM     35  C2  GCU B   3      12.082  11.140  14.7500  0.00  0.00     0.000 C
ATOM     36  C3  GCU B   3      12.845  11.921  13.7010  0.00  0.00     0.000 C
ATOM     37  C4  GCU B   3      13.555  13.097  14.3550  0.00  0.00     0.000 C
ATOM     38  C5  GCU B   3      14.483  12.588  15.4600  0.00  0.00     0.000 C
ATOM     39  O5  GCU B   3      13.699  11.869  16.4180  0.00  0.00     0.000 O
ATOM     40   O  GCU B   3      11.509   9.965  14.1720  0.00  0.00     0.000 O
ATOM     42  HD  GCU B   3      11.361   9.578  13.4110  0.00  0.00     0.000 HD
ATOM     42   O  GCU B   3      11.966  12.389  12.6620  0.00  0.00     0.000 O
ATOM     44  HD  GCU B   3      11.819  12.002  11.9010  0.00  0.00     0.000 HD
BRANCH 38 44
ATOM     44   C  GCU B   3      15.205  13.704  16.1730  0.00  0.00     0.000 C
ATOM     45   O  GCU B   3      16.221  14.184  15.6490  0.00  0.00     0.000 OA
ATOM     46   O  GCU B   3      14.772  14.122  17.2640  0.00  0.00     0.000 OA
ENDBRANCH 38 44
BRANCH 34 47
ATOM     47  O3  NAG B   4      12.320  10.230  16.8740  0.00  0.00     0.000 O
BRANCH 47 50
ATOM     48  C1  NAG B   4      11.378  10.069  20.4580  0.00  0.00     0.000 C
ATOM     49  C2  NAG B   4      12.279   9.995  19.2300  0.00  0.00     0.000 C
ATOM     50  C3  NAG B   4      11.664  10.719  18.0430  0.00  0.00     0.000 C
ATOM     51  C4  NAG B   4      10.152  10.506  17.9050  0.00  0.00     0.000 C
ATOM     52  C5  NAG B   4       9.412  10.990  19.1410  0.00  0.00     0.000 C
ATOM     53  O5  NAG B   4      10.058  10.647  20.3870  0.00  0.00     0.000 O
BRANCH 49 56
ATOM     54   N  NAG B   4      13.223  11.022  19.7020  0.00  0.00     0.000 N
ATOM     56  HD  NAG B   4      13.010  11.812  19.9880  0.00  0.00     0.000 HD
ATOM     56   C  NAG B   4      15.339  12.092  20.2220  0.00  0.00     0.000 C
ATOM     57   O  NAG B   4      15.177  10.093  19.0070  0.00  0.00     0.000 OA
ATOM     58   C  NAG B   4      14.565  10.981  19.5820  0.00  0.00     0.000 C
ENDBRANCH 49 56
ATOM     59   O  NAG B   4       7.116  11.141  20.0340  0.00  0.00     0.000 O
ATOM     61  HD  NAG B   4       7.859  10.701  19.9710  0.00  0.00     0.000 HD
ATOM     61   O  NAG B   4       7.116  11.141  20.0340  0.00  0.00     0.000 O
ATOM     63  HD  NAG B   4       7.859  10.701  19.9710  0.00  0.00     0.000 HD
ENDBRANCH 47 50
ENDBRANCH 34 47
ENDBRANCH 33 37
ENDBRANCH 17 33
ENDBRANCH 16 19
ENDBRANCH 1 16
TORSDOF 10
ENDMDL
MODEL 36
REMARK VINA RESULT:      -5.8     20.507     23.997
ROOT
ATOM      1  C1  GCU B   1      15.511  26.261  33.5290  0.00  0.00     0.000 C
ATOM      2  C2  GCU B   1      16.981  25.881  33.4430  0.00  0.00     0.000 C
ATOM      3  C3  GCU B   1      17.134  24.373  33.3230  0.00  0.00     0.000 C
ATOM      4  C4  GCU B   1      16.347  23.676  34.4230  0.00  0.00     0.000 C
ATOM      5  C5  GCU B   1      14.901  24.172  34.4630  0.00  0.00     0.000 C
ATOM      6  O5  GCU B   1      14.897  25.595  34.6440  0.00  0.00     0.000 O
ATOM      7   O  GCU B   1      17.531  26.536  32.3050  0.00  0.00     0.000 O
ATOM      9  HD  GCU B   1      18.241  27.032  32.2940  0.00  0.00     0.000 HD
ATOM      9   O  GCU B   1      18.512  23.998  33.4020  0.00  0.00     0.000 O
ATOM     11  HD  GCU B   1      19.221  24.494  33.3920  0.00  0.00     0.000 HD
ATOM     11   O  GCU B   1      16.368  22.268  34.1840  0.00  0.00     0.000 O
ATOM     13  HD  GCU B   1      17.078  22.764  34.1740  0.00  0.00     0.000 HD
ENDROOT
BRANCH 5 13
ATOM     13   C  GCU B   1      14.142  23.454  35.5530  0.00  0.00     0.000 C
ATOM     14   O  GCU B   1      12.896  23.388  35.5160  0.00  0.00     0.000 OA
ATOM     15   O  GCU B   1      14.808  22.917  36.4580  0.00  0.00     0.000 OA
ENDBRANCH 5 13
BRANCH 1 16
ATOM     16  O3  NAG B   2      14.984  27.351  34.0910  0.00  0.00     0.000 O
BRANCH 16 19
ATOM     17  C1  NAG B   2      11.716  29.108  33.4130  0.00  0.00     0.000 C
ATOM     18  C2  NAG B   2      13.067  28.482  33.0920  0.00  0.00     0.000 C
ATOM     19  C3  NAG B   2      13.636  27.787  34.3270  0.00  0.00     0.000 C
ATOM     20  C4  NAG B   2      13.647  28.744  35.5190  0.00  0.00     0.000 C
ATOM     21  C5  NAG B   2      12.249  29.301  35.7460  0.00  0.00     0.000 C
ATOM     22  O5  NAG B   2      11.818  29.978  34.5520  0.00  0.00     0.000 O
ATOM     23   O  NAG B   2      14.114  28.029  36.6680  0.00  0.00     0.000 O
ATOM     25  HD  NAG B   2      14.629  28.650  36.3530  0.00  0.00     0.000 HD
ATOM     25   C  NAG B   2      12.181  30.257  36.9350  0.00  0.00     0.000 C
ATOM     26   O  NAG B   2      12.800  31.518  36.6390  0.00  0.00     0.000 O
ATOM     28  HD  NAG B   2      13.316  32.139  36.3240  0.00  0.00     0.000 HD
BRANCH 18 30
ATOM     28   N  NAG B   2      12.690  27.783  31.8780  0.00  0.00     0.000 N
ATOM     30  HD  NAG B   2      13.472  28.102  31.6870  0.00  0.00     0.000 HD
ATOM     30   C  NAG B   2      13.403  27.816  30.7450  0.00  0.00     0.000 C
ATOM     31   C  NAG B   2      12.859  27.075  29.5570  0.00  0.00     0.000 C
ATOM     32   O  NAG B   2      14.453  28.423  30.6670  0.00  0.00     0.000 OA
ENDBRANCH 18 30
BRANCH 17 33
ATOM     33  O4  GCU B   3      11.251  29.776  32.2230  0.00  0.00     0.000 O
BRANCH 33 37
ATOM     34  C1  GCU B   3       7.310  30.111  30.9210  0.00  0.00     0.000 C
ATOM     35  C2  GCU B   3       8.038  31.396  31.3180  0.00  0.00     0.000 C
ATOM     36  C3  GCU B   3       9.531  31.145  31.3450  0.00  0.00     0.000 C
ATOM     37  C4  GCU B   3       9.836  29.969  32.2620  0.00  0.00     0.000 C
ATOM     38  C5  GCU B   3       9.068  28.734  31.7880  0.00  0.00     0.000 C
ATOM     39  O5  GCU B   3       7.669  29.036  31.7940  0.00  0.00     0.000 O
ATOM     40   O  GCU B   3       7.726  32.417  30.3680  0.00  0.00     0.000 O
ATOM     42  HD  GCU B   3       8.093  33.016  29.8610  0.00  0.00     0.000 HD
ATOM     42   O  GCU B   3      10.245  32.314  31.7850  0.00  0.00     0.000 O
ATOM     44  HD  GCU B   3      10.611  32.913  31.2780  0.00  0.00     0.000 HD
BRANCH 38 44
ATOM     44   C  GCU B   3       9.302  27.531  32.6670  0.00  0.00     0.000 C
ATOM     45   O  GCU B   3       8.826  27.532  33.8130  0.00  0.00     0.000 OA
ATOM     46   O  GCU B   3       9.958  26.565  32.2320  0.00  0.00     0.000 OA
ENDBRANCH 38 44
BRANCH 34 47
ATOM     47  O3  NAG B   4       6.009  30.284  31.1010  0.00  0.00     0.000 O
BRANCH 47 50
ATOM     48  C1  NAG B   4       4.065  28.413  28.5560  0.00  0.00     0.000 C
ATOM     49  C2  NAG B   4       5.156  28.675  29.5890  0.00  0.00     0.000 C
ATOM     50  C3  NAG B   4       4.795  29.837  30.5000  0.00  0.00     0.000 C
ATOM     51  C4  NAG B   4       4.126  31.008  29.7710  0.00  0.00     0.000 C
ATOM     52  C5  NAG B   4       2.838  30.571  29.0920  0.00  0.00     0.000 C
ATOM     53  O5  NAG B   4       2.926  29.291  28.4290  0.00  0.00     0.000 O
BRANCH 49 56
ATOM     54   N  NAG B   4       4.856  27.635  30.5890  0.00  0.00     0.000 N
ATOM     56  HD  NAG B   4       4.252  27.687  31.2070  0.00  0.00     0.000 HD
ATOM     56   C  NAG B   4       5.049  25.558  31.8300  0.00  0.00     0.000 C
ATOM     57   O  NAG B   4       6.654  26.279  30.2790  0.00  0.00     0.000 OA
ATOM     58   C  NAG B   4       5.594  26.533  30.8320  0.00  0.00     0.000 C
ENDBRANCH 49 56
ATOM     59   O  NAG B   4       1.025  31.498  27.6960  0.00  0.00     0.000 O
ATOM     61  HD  NAG B   4       1.790  31.094  27.7460  0.00  0.00     0.000 HD
ATOM     61   O  NAG B   4       1.025  31.498  27.6960  0.00  0.00     0.000 O
ATOM     63  HD  NAG B   4       1.790  31.094  27.7460  0.00  0.00     0.000 HD
ENDBRANCH 47 50
ENDBRANCH 34 47
ENDBRANCH 33 37
ENDBRANCH 17 33
ENDBRANCH 16 19
ENDBRANCH 1 16
TORSDOF 10
ENDMDL
MODEL 37
REMARK VINA RESULT:      -5.7     18.766     23.946
ROOT
ATOM      1  C1  GCU B   1      23.827  42.011  10.0040  0.00  0.00     0.000 C
ATOM      2  C2  GCU B   1      25.158  42.093   9.2720  0.00  0.00     0.000 C
ATOM      3  C3  GCU B   1      25.267  40.982   8.2400  0.00  0.00     0.000 C
ATOM      4  C4  GCU B   1      24.962  39.637   8.8820  0.00  0.00     0.000 C
ATOM      5  C5  GCU B   1      23.635  39.679   9.6410  0.00  0.00     0.000 C
ATOM      6  O5  GCU B   1      23.688  40.722  10.6230  0.00  0.00     0.000 O
ATOM      7   O  GCU B   1      25.230  43.371   8.6480  0.00  0.00     0.000 O
ATOM      9  HD  GCU B   1      25.879  43.940   8.7220  0.00  0.00     0.000 HD
ATOM      9   O  GCU B   1      26.575  40.956   7.6630  0.00  0.00     0.000 O
ATOM     11  HD  GCU B   1      27.224  41.525   7.7370  0.00  0.00     0.000 HD
ATOM     11   O  GCU B   1      24.903  38.641   7.8600  0.00  0.00     0.000 O
ATOM     13  HD  GCU B   1      25.551  39.210   7.9340  0.00  0.00     0.000 HD
ENDROOT
BRANCH 5 13
ATOM     13   C  GCU B   1      23.351  38.328  10.2550  0.00  0.00     0.000 C
ATOM     14   O  GCU B   1      22.185  38.006  10.5600  0.00  0.00     0.000 OA
ATOM     15   O  GCU B   1      24.316  37.556  10.4120  0.00  0.00     0.000 OA
ENDBRANCH 5 13
BRANCH 1 16
ATOM     16  O3  NAG B   2      23.544  42.457  11.2300  0.00  0.00     0.000 O
BRANCH 16 19
ATOM     17  C1  NAG B   2      20.401  44.128  12.4770  0.00  0.00     0.000 C
ATOM     18  C2  NAG B   2      21.590  43.881  11.5580  0.00  0.00     0.000 C
ATOM     19  C3  NAG B   2      22.321  42.604  11.9690  0.00  0.00     0.000 C
ATOM     20  C4  NAG B   2      22.667  42.644  13.4570  0.00  0.00     0.000 C
ATOM     21  C5  NAG B   2      21.406  42.891  14.2730  0.00  0.00     0.000 C
ATOM     22  O5  NAG B   2      20.816  44.134  13.8530  0.00  0.00     0.000 O
ATOM     23   O  NAG B   2      23.279  41.399  13.8110  0.00  0.00     0.000 O
ATOM     25  HD  NAG B   2      23.781  42.105  13.8270  0.00  0.00     0.000 HD
ATOM     25   C  NAG B   2      21.673  42.928  15.7760  0.00  0.00     0.000 C
ATOM     26   O  NAG B   2      22.346  44.135  16.1660  0.00  0.00     0.000 O
ATOM     28  HD  NAG B   2      22.848  44.841  16.1820  0.00  0.00     0.000 HD
BRANCH 18 30
ATOM     28   N  NAG B   2      20.837  44.238  10.3710  0.00  0.00     0.000 N
ATOM     30  HD  NAG B   2      21.658  44.382  10.1350  0.00  0.00     0.000 HD
ATOM     30   C  NAG B   2      21.382  44.787   9.2780  0.00  0.00     0.000 C
ATOM     31   C  NAG B   2      20.462  45.142   8.1440  0.00  0.00     0.000 C
ATOM     32   O  NAG B   2      22.576  44.998   9.1950  0.00  0.00     0.000 OA
ENDBRANCH 18 30
BRANCH 17 33
ATOM     33  O4  GCU B   3      19.777  45.360  12.0620  0.00  0.00     0.000 O
BRANCH 33 37
ATOM     34  C1  GCU B   3      16.035  46.936  12.9790  0.00  0.00     0.000 C
ATOM     35  C2  GCU B   3      17.200  47.290  13.9040  0.00  0.00     0.000 C
ATOM     36  C3  GCU B   3      18.510  47.002  13.2020  0.00  0.00     0.000 C
ATOM     37  C4  GCU B   3      18.530  45.555  12.7310  0.00  0.00     0.000 C
ATOM     38  C5  GCU B   3      17.334  45.296  11.8130  0.00  0.00     0.000 C
ATOM     39  O5  GCU B   3      16.133  45.579  12.5380  0.00  0.00     0.000 O
ATOM     40   O  GCU B   3      17.116  48.675  14.2450  0.00  0.00     0.000 O
ATOM     42  HD  GCU B   3      17.586  49.402  14.2770  0.00  0.00     0.000 HD
ATOM     42   O  GCU B   3      19.629  47.255  14.0700  0.00  0.00     0.000 O
ATOM     44  HD  GCU B   3      20.099  47.982  14.1030  0.00  0.00     0.000 HD
BRANCH 38 44
ATOM     44   C  GCU B   3      17.273  43.870  11.3250  0.00  0.00     0.000 C
ATOM     45   O  GCU B   3      17.700  43.612  10.1890  0.00  0.00     0.000 OA
ATOM     46   O  GCU B   3      16.802  42.984  12.0630  0.00  0.00     0.000 OA
ENDBRANCH 38 44
BRANCH 34 47
ATOM     47  O3  NAG B   4      14.906  46.996  13.6720  0.00  0.00     0.000 O
BRANCH 47 50
ATOM     48  C1  NAG B   4      12.599  45.704  16.2720  0.00  0.00     0.000 C
ATOM     49  C2  NAG B   4      13.447  45.693  15.0050  0.00  0.00     0.000 C
ATOM     50  C3  NAG B   4      14.489  46.800  15.0220  0.00  0.00     0.000 C
ATOM     51  C4  NAG B   4      13.972  48.126  15.5920  0.00  0.00     0.000 C
ATOM     52  C5  NAG B   4      13.492  47.959  17.0250  0.00  0.00     0.000 C
ATOM     53  O5  NAG B   4      12.731  46.753  17.2550  0.00  0.00     0.000 O
BRANCH 49 56
ATOM     54   N  NAG B   4      14.414  44.621  15.3000  0.00  0.00     0.000 N
ATOM     56  HD  NAG B   4      15.150  44.713  15.7470  0.00  0.00     0.000 HD
ATOM     56   C  NAG B   4      15.439  42.421  15.2780  0.00  0.00     0.000 C
ATOM     57   O  NAG B   4      13.633  43.008  13.9020  0.00  0.00     0.000 OA
ATOM     58   C  NAG B   4      14.417  43.386  14.7600  0.00  0.00     0.000 C
ENDBRANCH 49 56
ATOM     59   O  NAG B   4      12.496  49.285  18.8530  0.00  0.00     0.000 O
ATOM     61  HD  NAG B   4      12.385  48.767  18.1680  0.00  0.00     0.000 HD
ATOM     61   O  NAG B   4      12.496  49.285  18.8530  0.00  0.00     0.000 O
ATOM     63  HD  NAG B   4      12.385  48.767  18.1680  0.00  0.00     0.000 HD
ENDBRANCH 47 50
ENDBRANCH 34 47
ENDBRANCH 33 37
ENDBRANCH 17 33
ENDBRANCH 16 19
ENDBRANCH 1 16
TORSDOF 10
ENDMDL
MODEL 38
REMARK VINA RESULT:      -5.7     14.516     16.747
ROOT
ATOM      1  C1  GCU B   1      20.849  37.690  16.3760  0.00  0.00     0.000 C
ATOM      2  C2  GCU B   1      21.903  37.629  15.2810  0.00  0.00     0.000 C
ATOM      3  C3  GCU B   1      22.952  38.709  15.4920  0.00  0.00     0.000 C
ATOM      4  C4  GCU B   1      22.284  40.063  15.6730  0.00  0.00     0.000 C
ATOM      5  C5  GCU B   1      21.201  40.002  16.7520  0.00  0.00     0.000 C
ATOM      6  O5  GCU B   1      20.245  38.993  16.4010  0.00  0.00     0.000 O
ATOM      7   O  GCU B   1      22.495  36.334  15.3220  0.00  0.00     0.000 O
ATOM      9  HD  GCU B   1      22.581  35.790  14.6540  0.00  0.00     0.000 HD
ATOM      9   O  GCU B   1      23.854  38.759  14.3830  0.00  0.00     0.000 O
ATOM     11  HD  GCU B   1      23.940  38.215  13.7150  0.00  0.00     0.000 HD
ATOM     11   O  GCU B   1      23.276  41.022  16.0380  0.00  0.00     0.000 O
ATOM     13  HD  GCU B   1      23.363  40.478  15.3700  0.00  0.00     0.000 HD
ENDROOT
BRANCH 5 13
ATOM     13   C  GCU B   1      20.566  41.361  16.9200  0.00  0.00     0.000 C
ATOM     14   O  GCU B   1      20.797  42.272  16.0980  0.00  0.00     0.000 OA
ATOM     15   O  GCU B   1      19.792  41.517  17.8840  0.00  0.00     0.000 OA
ENDBRANCH 5 13
BRANCH 1 16
ATOM     16  O3  NAG B   2      19.582  37.275  16.3100  0.00  0.00     0.000 O
BRANCH 16 19
ATOM     17  C1  NAG B   2      17.608  35.404  18.9230  0.00  0.00     0.000 C
ATOM     18  C2  NAG B   2      18.792  35.724  18.0190  0.00  0.00     0.000 C
ATOM     19  C3  NAG B   2      18.564  37.051  17.2970  0.00  0.00     0.000 C
ATOM     20  C4  NAG B   2      17.209  37.046  16.5910  0.00  0.00     0.000 C
ATOM     21  C5  NAG B   2      16.108  36.720  17.5900  0.00  0.00     0.000 C
ATOM     22  O5  NAG B   2      16.379  35.437  18.1800  0.00  0.00     0.000 O
ATOM     23   O  NAG B   2      17.006  38.333  15.9960  0.00  0.00     0.000 O
ATOM     25  HD  NAG B   2      17.122  37.663  15.4590  0.00  0.00     0.000 HD
ATOM     25   C  NAG B   2      14.718  36.714  16.9550  0.00  0.00     0.000 C
ATOM     26   O  NAG B   2      14.519  35.558  16.1270  0.00  0.00     0.000 O
ATOM     28  HD  NAG B   2      14.635  34.889  15.5900  0.00  0.00     0.000 HD
BRANCH 18 30
ATOM     28   N  NAG B   2      19.780  35.356  19.0150  0.00  0.00     0.000 N
ATOM     30  HD  NAG B   2      20.188  35.203  18.2670  0.00  0.00     0.000 HD
ATOM     30   C  NAG B   2      20.957  34.788  18.7250  0.00  0.00     0.000 C
ATOM     31   C  NAG B   2      21.857  34.423  19.8720  0.00  0.00     0.000 C
ATOM     32   O  NAG B   2      21.297  34.568  17.5790  0.00  0.00     0.000 OA
ENDBRANCH 18 30
BRANCH 17 33
ATOM     33  O4  GCU B   3      17.867  34.129  19.5450  0.00  0.00     0.000 O
BRANCH 33 37
ATOM     34  C1  GCU B   3      16.033  32.254  22.7780  0.00  0.00     0.000 C
ATOM     35  C2  GCU B   3      15.372  32.112  21.4070  0.00  0.00     0.000 C
ATOM     36  C3  GCU B   3      16.367  32.472  20.3240  0.00  0.00     0.000 C
ATOM     37  C4  GCU B   3      16.925  33.864  20.5850  0.00  0.00     0.000 C
ATOM     38  C5  GCU B   3      17.566  33.910  21.9740  0.00  0.00     0.000 C
ATOM     39  O5  GCU B   3      16.573  33.568  22.9460  0.00  0.00     0.000 O
ATOM     40   O  GCU B   3      14.931  30.762  21.2430  0.00  0.00     0.000 O
ATOM     42  HD  GCU B   3      14.957  30.096  20.6910  0.00  0.00     0.000 HD
ATOM     42   O  GCU B   3      15.757  32.419  19.0220  0.00  0.00     0.000 O
ATOM     44  HD  GCU B   3      15.783  31.753  18.4700  0.00  0.00     0.000 HD
BRANCH 38 44
ATOM     44   C  GCU B   3      18.120  35.270  22.3140  0.00  0.00     0.000 C
ATOM     45   O  GCU B   3      17.362  36.110  22.8220  0.00  0.00     0.000 OA
ATOM     46   O  GCU B   3      19.318  35.525  22.0850  0.00  0.00     0.000 OA
ENDBRANCH 38 44
BRANCH 34 47
ATOM     47  O3  NAG B   4      15.103  32.138  23.7150  0.00  0.00     0.000 O
BRANCH 47 50
ATOM     48  C1  NAG B   4      15.658  31.921  27.3760  0.00  0.00     0.000 C
ATOM     49  C2  NAG B   4      15.315  32.561  26.0350  0.00  0.00     0.000 C
ATOM     50  C3  NAG B   4      14.966  31.513  24.9900  0.00  0.00     0.000 C
ATOM     51  C4  NAG B   4      15.857  30.266  25.0440  0.00  0.00     0.000 C
ATOM     52  C5  NAG B   4      15.762  29.580  26.3970  0.00  0.00     0.000 C
ATOM     53  O5  NAG B   4      15.758  30.489  27.5200  0.00  0.00     0.000 O
BRANCH 49 56
ATOM     54   N  NAG B   4      13.916  32.999  26.1840  0.00  0.00     0.000 N
ATOM     56  HD  NAG B   4      13.217  32.556  25.9270  0.00  0.00     0.000 HD
ATOM     56   C  NAG B   4      12.032  34.426  26.7350  0.00  0.00     0.000 C
ATOM     57   O  NAG B   4      14.256  35.169  26.7680  0.00  0.00     0.000 OA
ATOM     58   C  NAG B   4      13.505  34.228  26.5550  0.00  0.00     0.000 C
ENDBRANCH 49 56
ATOM     59   O  NAG B   4      16.687  27.633  27.6000  0.00  0.00     0.000 O
ATOM     61  HD  NAG B   4      16.733  28.476  27.4090  0.00  0.00     0.000 HD
ATOM     61   O  NAG B   4      16.687  27.633  27.6000  0.00  0.00     0.000 O
ATOM     63  HD  NAG B   4      16.733  28.476  27.4090  0.00  0.00     0.000 HD
ENDBRANCH 47 50
ENDBRANCH 34 47
ENDBRANCH 33 37
ENDBRANCH 17 33
ENDBRANCH 16 19
ENDBRANCH 1 16
TORSDOF 10
ENDMDL
MODEL 39
REMARK VINA RESULT:      -5.7     15.316     22.156
ROOT
ATOM      1  C1  GCU B   1      11.594  10.913  23.3590  0.00  0.00     0.000 C
ATOM      2  C2  GCU B   1      12.604  10.747  22.2340  0.00  0.00     0.000 C
ATOM      3  C3  GCU B   1      12.389  11.806  21.1640  0.00  0.00     0.000 C
ATOM      4  C4  GCU B   1      10.932  11.824  20.7290  0.00  0.00     0.000 C
ATOM      5  C5  GCU B   1       9.998  11.933  21.9360  0.00  0.00     0.000 C
ATOM      6  O5  GCU B   1      10.259  10.843  22.8310  0.00  0.00     0.000 O
ATOM      7   O  GCU B   1      13.905  10.860  22.8020  0.00  0.00     0.000 O
ATOM      9  HD  GCU B   1      14.555  10.295  22.7080  0.00  0.00     0.000 HD
ATOM      9   O  GCU B   1      13.228  11.558  20.0340  0.00  0.00     0.000 O
ATOM     11  HD  GCU B   1      13.878  10.993  19.9400  0.00  0.00     0.000 HD
ATOM     11   O  GCU B   1      10.724  12.935  19.8560  0.00  0.00     0.000 O
ATOM     13  HD  GCU B   1      11.374  12.370  19.7620  0.00  0.00     0.000 HD
ENDROOT
BRANCH 5 13
ATOM     13   C  GCU B   1       8.561  11.962  21.4730  0.00  0.00     0.000 C
ATOM     14   O  GCU B   1       7.718  12.657  22.0770  0.00  0.00     0.000 OA
ATOM     15   O  GCU B   1       8.270  11.296  20.4610  0.00  0.00     0.000 OA
ENDBRANCH 5 13
BRANCH 1 16
ATOM     16  O3  NAG B   2      11.144   9.974  24.1940  0.00  0.00     0.000 O
BRANCH 16 19
ATOM     17  C1  NAG B   2      10.646  10.372  27.9120  0.00  0.00     0.000 C
ATOM     18  C2  NAG B   2      11.346  10.510  26.5660  0.00  0.00     0.000 C
ATOM     19  C3  NAG B   2      10.435  10.020  25.4420  0.00  0.00     0.000 C
ATOM     20  C4  NAG B   2       9.920   8.615  25.7480  0.00  0.00     0.000 C
ATOM     21  C5  NAG B   2       9.238   8.600  27.1090  0.00  0.00     0.000 C
ATOM     22  O5  NAG B   2      10.183   9.026  28.1070  0.00  0.00     0.000 O
ATOM     23   O  NAG B   2       9.012   8.230  24.7100  0.00  0.00     0.000 O
ATOM     25  HD  NAG B   2       9.764   7.804  24.7540  0.00  0.00     0.000 HD
ATOM     25   C  NAG B   2       8.683   7.226  27.4770  0.00  0.00     0.000 C
ATOM     26   O  NAG B   2       9.729   6.305  27.8210  0.00  0.00     0.000 O
ATOM     28  HD  NAG B   2      10.482   5.879  27.8660  0.00  0.00     0.000 HD
BRANCH 18 30
ATOM     28   N  NAG B   2      11.830  11.855  26.8100  0.00  0.00     0.000 N
ATOM     30  HD  NAG B   2      12.446  11.512  26.3070  0.00  0.00     0.000 HD
ATOM     30   C  NAG B   2      13.031  12.299  26.4180  0.00  0.00     0.000 C
ATOM     31   C  NAG B   2      13.407  13.707  26.7850  0.00  0.00     0.000 C
ATOM     32   O  NAG B   2      13.799  11.599  25.7890  0.00  0.00     0.000 OA
ENDBRANCH 18 30
BRANCH 17 33
ATOM     33  O4  GCU B   3      11.566  10.814  28.9290  0.00  0.00     0.000 O
BRANCH 33 37
ATOM     34  C1  GCU B   3      10.790  12.226  32.7680  0.00  0.00     0.000 C
ATOM     35  C2  GCU B   3      11.212  10.764  32.6220  0.00  0.00     0.000 C
ATOM     36  C3  GCU B   3      11.850  10.554  31.2650  0.00  0.00     0.000 C
ATOM     37  C4  GCU B   3      10.896  11.020  30.1740  0.00  0.00     0.000 C
ATOM     38  C5  GCU B   3      10.532  12.488  30.4010  0.00  0.00     0.000 C
ATOM     39  O5  GCU B   3       9.930  12.614  31.6930  0.00  0.00     0.000 O
ATOM     40   O  GCU B   3      12.142  10.444  33.6590  0.00  0.00     0.000 O
ATOM     42  HD  GCU B   3      12.917  10.083  33.7960  0.00  0.00     0.000 HD
ATOM     42   O  GCU B   3      12.195   9.171  31.0630  0.00  0.00     0.000 O
ATOM     44  HD  GCU B   3      12.970   8.811  31.2000  0.00  0.00     0.000 HD
BRANCH 38 44
ATOM     44   C  GCU B   3       9.566  13.015  29.3700  0.00  0.00     0.000 C
ATOM     45   O  GCU B   3       8.359  12.762  29.5030  0.00  0.00     0.000 OA
ATOM     46   O  GCU B   3       9.991  13.691  28.4140  0.00  0.00     0.000 OA
ENDBRANCH 38 44
BRANCH 34 47
ATOM     47  O3  NAG B   4      10.054  12.350  33.8640  0.00  0.00     0.000 O
BRANCH 47 50
ATOM     48  C1  NAG B   4       9.115  13.371  37.3040  0.00  0.00     0.000 C
ATOM     49  C2  NAG B   4       9.768  12.537  36.2060  0.00  0.00     0.000 C
ATOM     50  C3  NAG B   4       9.867  13.311  34.9020  0.00  0.00     0.000 C
ATOM     51  C4  NAG B   4       8.628  14.160  34.5920  0.00  0.00     0.000 C
ATOM     52  C5  NAG B   4       8.374  15.183  35.6860  0.00  0.00     0.000 C
ATOM     53  O5  NAG B   4       8.556  14.673  37.0250  0.00  0.00     0.000 O
BRANCH 49 56
ATOM     54   N  NAG B   4      11.151  12.711  36.6830  0.00  0.00     0.000 N
ATOM     56  HD  NAG B   4      11.554  13.468  36.8000  0.00  0.00     0.000 HD
ATOM     56   C  NAG B   4      13.389  12.122  37.4160  0.00  0.00     0.000 C
ATOM     57   O  NAG B   4      11.885  10.566  36.5130  0.00  0.00     0.000 OA
ATOM     58   C  NAG B   4      12.070  11.734  36.8220  0.00  0.00     0.000 C
ENDBRANCH 49 56
ATOM     59   O  NAG B   4       6.775  16.971  36.2720  0.00  0.00     0.000 O
ATOM     61  HD  NAG B   4       7.014  16.141  36.3340  0.00  0.00     0.000 HD
ATOM     61   O  NAG B   4       6.775  16.971  36.2720  0.00  0.00     0.000 O
ATOM     63  HD  NAG B   4       7.014  16.141  36.3340  0.00  0.00     0.000 HD
ENDBRANCH 47 50
ENDBRANCH 34 47
ENDBRANCH 33 37
ENDBRANCH 17 33
ENDBRANCH 16 19
ENDBRANCH 1 16
TORSDOF 10
ENDMDL
MODEL 40
REMARK VINA RESULT:      -5.6     16.671     19.772
ROOT
ATOM      1  C1  GCU B   1      15.728  30.495  24.8530  0.00  0.00     0.000 C
ATOM      2  C2  GCU B   1      15.908  31.810  24.1090  0.00  0.00     0.000 C
ATOM      3  C3  GCU B   1      14.981  31.871  22.9050  0.00  0.00     0.000 C
ATOM      4  C4  GCU B   1      15.139  30.619  22.0560  0.00  0.00     0.000 C
ATOM      5  C5  GCU B   1      15.001  29.356  22.9080  0.00  0.00     0.000 C
ATOM      6  O5  GCU B   1      15.970  29.393  23.9630  0.00  0.00     0.000 O
ATOM      7   O  GCU B   1      15.622  32.865  25.0210  0.00  0.00     0.000 O
ATOM      9  HD  GCU B   1      16.132  33.544  25.1930  0.00  0.00     0.000 HD
ATOM      9   O  GCU B   1      15.258  33.030  22.1140  0.00  0.00     0.000 O
ATOM     11  HD  GCU B   1      15.768  33.709  22.2860  0.00  0.00     0.000 HD
ATOM     11   O  GCU B   1      14.140  30.625  21.0350  0.00  0.00     0.000 O
ATOM     13  HD  GCU B   1      14.650  31.304  21.2070  0.00  0.00     0.000 HD
ENDROOT
BRANCH 5 13
ATOM     13   C  GCU B   1      15.147  28.131  22.0370  0.00  0.00     0.000 C
ATOM     14   O  GCU B   1      16.266  27.601  21.8770  0.00  0.00     0.000 OA
ATOM     15   O  GCU B   1      14.113  27.667  21.5200  0.00  0.00     0.000 OA
ENDBRANCH 5 13
BRANCH 1 16
ATOM     16  O3  NAG B   2      16.619  29.867  25.6220  0.00  0.00     0.000 O
BRANCH 16 19
ATOM     17  C1  NAG B   2      16.117  28.640  29.1530  0.00  0.00     0.000 C
ATOM     18  C2  NAG B   2      16.051  29.610  27.9810  0.00  0.00     0.000 C
ATOM     19  C3  NAG B   2      16.503  28.920  26.6960  0.00  0.00     0.000 C
ATOM     20  C4  NAG B   2      17.868  28.261  26.8970  0.00  0.00     0.000 C
ATOM     21  C5  NAG B   2      17.812  27.314  28.0880  0.00  0.00     0.000 C
ATOM     22  O5  NAG B   2      17.427  28.059  29.2570  0.00  0.00     0.000 O
ATOM     23   O  NAG B   2      18.214  27.564  25.6960  0.00  0.00     0.000 O
ATOM     25  HD  NAG B   2      18.686  28.261  25.8980  0.00  0.00     0.000 HD
ATOM     25   C  NAG B   2      19.141  26.605  28.3410  0.00  0.00     0.000 C
ATOM     26   O  NAG B   2      20.119  27.495  28.9000  0.00  0.00     0.000 O
ATOM     28  HD  NAG B   2      20.591  28.192  29.1020  0.00  0.00     0.000 HD
BRANCH 18 30
ATOM     28   N  NAG B   2      14.712  30.109  28.2320  0.00  0.00     0.000 N
ATOM     30  HD  NAG B   2      15.139  30.815  27.9690  0.00  0.00     0.000 HD
ATOM     30   C  NAG B   2      14.375  31.404  28.1740  0.00  0.00     0.000 C
ATOM     31   C  NAG B   2      12.955  31.769  28.5050  0.00  0.00     0.000 C
ATOM     32   O  NAG B   2      15.179  32.262  27.8690  0.00  0.00     0.000 OA
ENDBRANCH 18 30
BRANCH 17 33
ATOM     33  O4  GCU B   3      15.714  29.358  30.3370  0.00  0.00     0.000 O
BRANCH 33 37
ATOM     34  C1  GCU B   3      13.935  27.996  33.8460  0.00  0.00     0.000 C
ATOM     35  C2  GCU B   3      15.463  28.023  33.7890  0.00  0.00     0.000 C
ATOM     36  C3  GCU B   3      15.912  28.919  32.6540  0.00  0.00     0.000 C
ATOM     37  C4  GCU B   3      15.267  28.460  31.3540  0.00  0.00     0.000 C
ATOM     38  C5  GCU B   3      13.744  28.468  31.5050  0.00  0.00     0.000 C
ATOM     39  O5  GCU B   3      13.389  27.598  32.5850  0.00  0.00     0.000 O
ATOM     40   O  GCU B   3      15.965  28.514  35.0340  0.00  0.00     0.000 O
ATOM     42  HD  GCU B   3      16.514  29.093  35.3710  0.00  0.00     0.000 HD
ATOM     42   O  GCU B   3      17.345  28.911  32.5240  0.00  0.00     0.000 O
ATOM     44  HD  GCU B   3      17.894  29.490  32.8610  0.00  0.00     0.000 HD
BRANCH 38 44
ATOM     44   C  GCU B   3      13.034  27.999  30.2600  0.00  0.00     0.000 C
ATOM     45   O  GCU B   3      12.271  28.786  29.6800  0.00  0.00     0.000 OA
ATOM     46   O  GCU B   3      13.225  26.842  29.8380  0.00  0.00     0.000 OA
ENDBRANCH 38 44
BRANCH 34 47
ATOM     47  O3  NAG B   4      13.557  27.056  34.7010  0.00  0.00     0.000 O
BRANCH 47 50
ATOM     48  C1  NAG B   4      15.181  24.318  36.6030  0.00  0.00     0.000 C
ATOM     49  C2  NAG B   4      14.405  25.610  36.3720  0.00  0.00     0.000 C
ATOM     50  C3  NAG B   4      13.855  25.685  34.9570  0.00  0.00     0.000 C
ATOM     51  C4  NAG B   4      14.825  25.167  33.8890  0.00  0.00     0.000 C
ATOM     52  C5  NAG B   4      15.192  23.713  34.1370  0.00  0.00     0.000 C
ATOM     53  O5  NAG B   4      15.442  23.396  35.5240  0.00  0.00     0.000 O
BRANCH 49 56
ATOM     54   N  NAG B   4      13.363  25.718  37.4090  0.00  0.00     0.000 N
ATOM     56  HD  NAG B   4      13.383  26.249  38.0920  0.00  0.00     0.000 HD
ATOM     56   C  NAG B   4      11.327  25.235  38.6380  0.00  0.00     0.000 C
ATOM     57   O  NAG B   4      12.132  23.875  36.9050  0.00  0.00     0.000 OA
ATOM     58   C  NAG B   4      12.320  24.880  37.5740  0.00  0.00     0.000 C
ENDBRANCH 49 56
ATOM     59   O  NAG B   4      16.592  21.923  33.1730  0.00  0.00     0.000 O
ATOM     61  HD  NAG B   4      16.508  22.577  33.7350  0.00  0.00     0.000 HD
ATOM     61   O  NAG B   4      16.592  21.923  33.1730  0.00  0.00     0.000 O
ATOM     63  HD  NAG B   4      16.508  22.577  33.7350  0.00  0.00     0.000 HD
ENDBRANCH 47 50
ENDBRANCH 34 47
ENDBRANCH 33 37
ENDBRANCH 17 33
ENDBRANCH 16 19
ENDBRANCH 1 16
TORSDOF 10
ENDMDL
MODEL 41
REMARK VINA RESULT:      -5.6     10.717     16.467
ROOT
ATOM      1  C1  GCU B   1      22.510  32.137  13.0850  0.00  0.00     0.000 C
ATOM      2  C2  GCU B   1      23.948  31.907  12.6460  0.00  0.00     0.000 C
ATOM      3  C3  GCU B   1      24.022  31.730  11.1370  0.00  0.00     0.000 C
ATOM      4  C4  GCU B   1      23.029  30.672  10.6830  0.00  0.00     0.000 C
ATOM      5  C5  GCU B   1      21.629  30.962  11.2270  0.00  0.00     0.000 C
ATOM      6  O5  GCU B   1      21.687  31.040  12.6570  0.00  0.00     0.000 O
ATOM      7   O  GCU B   1      24.712  33.035  13.0600  0.00  0.00     0.000 O
ATOM      9  HD  GCU B   1      25.445  33.014  13.5210  0.00  0.00     0.000 HD
ATOM      9   O  GCU B   1      25.343  31.356  10.7380  0.00  0.00     0.000 O
ATOM     11  HD  GCU B   1      26.076  31.336  11.1990  0.00  0.00     0.000 HD
ATOM     11   O  GCU B   1      22.998  30.650   9.2550  0.00  0.00     0.000 O
ATOM     13  HD  GCU B   1      23.731  30.629   9.7170  0.00  0.00     0.000 HD
ENDROOT
BRANCH 5 13
ATOM     13   C  GCU B   1      20.663  29.905  10.7490  0.00  0.00     0.000 C
ATOM     14   O  GCU B   1      20.298  29.876   9.5550  0.00  0.00     0.000 OA
ATOM     15   O  GCU B   1      20.277  29.061  11.5810  0.00  0.00     0.000 OA
ENDBRANCH 5 13
BRANCH 1 16
ATOM     16  O3  NAG B   2      21.971  31.873  14.2770  0.00  0.00     0.000 O
BRANCH 16 19
ATOM     17  C1  NAG B   2      20.123  34.004  16.7810  0.00  0.00     0.000 C
ATOM     18  C2  NAG B   2      21.277  33.570  15.8860  0.00  0.00     0.000 C
ATOM     19  C3  NAG B   2      20.847  32.408  14.9930  0.00  0.00     0.000 C
ATOM     20  C4  NAG B   2      20.241  31.286  15.8340  0.00  0.00     0.000 C
ATOM     21  C5  NAG B   2      19.101  31.834  16.6800  0.00  0.00     0.000 C
ATOM     22  O5  NAG B   2      19.608  32.885  17.5210  0.00  0.00     0.000 O
ATOM     23   O  NAG B   2      19.783  30.256  14.9510  0.00  0.00     0.000 O
ATOM     25  HD  NAG B   2      20.460  30.070  15.4580  0.00  0.00     0.000 HD
ATOM     25   C  NAG B   2      18.434  30.761  17.5390  0.00  0.00     0.000 C
ATOM     26   O  NAG B   2      19.267  30.371  18.6420  0.00  0.00     0.000 O
ATOM     28  HD  NAG B   2      19.944  30.184  19.1480  0.00  0.00     0.000 HD
BRANCH 18 30
ATOM     28   N  NAG B   2      21.653  34.933  15.5590  0.00  0.00     0.000 N
ATOM     30  HD  NAG B   2      22.396  34.496  15.4690  0.00  0.00     0.000 HD
ATOM     30   C  NAG B   2      22.913  35.324  15.3290  0.00  0.00     0.000 C
ATOM     31   C  NAG B   2      23.149  36.781  15.0460  0.00  0.00     0.000 C
ATOM     32   O  NAG B   2      23.841  34.541  15.3490  0.00  0.00     0.000 OA
ENDBRANCH 18 30
BRANCH 17 33
ATOM     33  O4  GCU B   3      20.601  35.074  17.6210  0.00  0.00     0.000 O
BRANCH 33 37
ATOM     34  C1  GCU B   3      18.527  38.009  19.7220  0.00  0.00     0.000 C
ATOM     35  C2  GCU B   3      18.737  36.659  20.4090  0.00  0.00     0.000 C
ATOM     36  C3  GCU B   3      19.841  35.898  19.7050  0.00  0.00     0.000 C
ATOM     37  C4  GCU B   3      19.514  35.778  18.2230  0.00  0.00     0.000 C
ATOM     38  C5  GCU B   3      19.325  37.173  17.6240  0.00  0.00     0.000 C
ATOM     39  O5  GCU B   3      18.266  37.831  18.3270  0.00  0.00     0.000 O
ATOM     40   O  GCU B   3      19.087  36.884  21.7760  0.00  0.00     0.000 O
ATOM     42  HD  GCU B   3      19.667  36.663  22.3800  0.00  0.00     0.000 HD
ATOM     42   O  GCU B   3      20.017  34.591  20.2800  0.00  0.00     0.000 O
ATOM     44  HD  GCU B   3      20.597  34.370  20.8840  0.00  0.00     0.000 HD
BRANCH 38 44
ATOM     44   C  GCU B   3      18.973  37.133  16.1580  0.00  0.00     0.000 C
ATOM     45   O  GCU B   3      17.840  36.748  15.8290  0.00  0.00     0.000 OA
ATOM     46   O  GCU B   3      19.814  37.488  15.3100  0.00  0.00     0.000 OA
ENDBRANCH 38 44
BRANCH 34 47
ATOM     47  O3  NAG B   4      17.431  38.571  20.2120  0.00  0.00     0.000 O
BRANCH 47 50
ATOM     48  C1  NAG B   4      13.749  38.839  20.5640  0.00  0.00     0.000 C
ATOM     49  C2  NAG B   4      15.104  38.829  19.8640  0.00  0.00     0.000 C
ATOM     50  C3  NAG B   4      16.165  38.147  20.7130  0.00  0.00     0.000 C
ATOM     51  C4  NAG B   4      16.070  38.481  22.2060  0.00  0.00     0.000 C
ATOM     52  C5  NAG B   4      14.724  38.068  22.7790  0.00  0.00     0.000 C
ATOM     53  O5  NAG B   4      13.601  38.369  21.9200  0.00  0.00     0.000 O
BRANCH 49 56
ATOM     54   N  NAG B   4      14.852  37.704  18.9470  0.00  0.00     0.000 N
ATOM     56  HD  NAG B   4      14.737  36.878  19.1800  0.00  0.00     0.000 HD
ATOM     56   C  NAG B   4      14.557  36.501  16.8600  0.00  0.00     0.000 C
ATOM     57   O  NAG B   4      15.329  38.713  16.9670  0.00  0.00     0.000 OA
ATOM     58   C  NAG B   4      14.955  37.739  17.6030  0.00  0.00     0.000 C
ENDBRANCH 49 56
ATOM     59   O  NAG B   4      13.480  38.110  24.9100  0.00  0.00     0.000 O
ATOM     61  HD  NAG B   4      13.668  38.489  24.1540  0.00  0.00     0.000 HD
ATOM     61   O  NAG B   4      13.480  38.110  24.9100  0.00  0.00     0.000 O
ATOM     63  HD  NAG B   4      13.668  38.489  24.1540  0.00  0.00     0.000 HD
ENDBRANCH 47 50
ENDBRANCH 34 47
ENDBRANCH 33 37
ENDBRANCH 17 33
ENDBRANCH 16 19
ENDBRANCH 1 16
TORSDOF 10
ENDMDL
MODEL 42
REMARK VINA RESULT:      -5.6     10.536     15.985
ROOT
ATOM      1  C1  GCU B   1      18.219  13.565  18.3740  0.00  0.00     0.000 C
ATOM      2  C2  GCU B   1      18.950  13.972  17.1030  0.00  0.00     0.000 C
ATOM      3  C3  GCU B   1      18.914  12.843  16.0850  0.00  0.00     0.000 C
ATOM      4  C4  GCU B   1      19.392  11.547  16.7200  0.00  0.00     0.000 C
ATOM      5  C5  GCU B   1      18.638  11.261  18.0200  0.00  0.00     0.000 C
ATOM      6  O5  GCU B   1      18.806  12.370  18.9140  0.00  0.00     0.000 O
ATOM      7   O  GCU B   1      18.310  15.136  16.5900  0.00  0.00     0.000 O
ATOM      9  HD  GCU B   1      18.697  15.880  16.3770  0.00  0.00     0.000 HD
ATOM      9   O  GCU B   1      19.732  13.158  14.9550  0.00  0.00     0.000 O
ATOM     11  HD  GCU B   1      20.120  13.903  14.7420  0.00  0.00     0.000 HD
ATOM     11   O  GCU B   1      19.186  10.477  15.7970  0.00  0.00     0.000 O
ATOM     13  HD  GCU B   1      19.574  11.222  15.5850  0.00  0.00     0.000 HD
ENDROOT
BRANCH 5 13
ATOM     13   C  GCU B   1      19.123   9.963  18.6210  0.00  0.00     0.000 C
ATOM     14   O  GCU B   1      20.003   9.967  19.5050  0.00  0.00     0.000 OA
ATOM     15   O  GCU B   1      18.591   8.911  18.2180  0.00  0.00     0.000 OA
ENDBRANCH 5 13
BRANCH 1 16
ATOM     16  O3  NAG B   2      18.415  14.032  19.6090  0.00  0.00     0.000 O
BRANCH 16 19
ATOM     17  C1  NAG B   2      16.419  13.458  22.7580  0.00  0.00     0.000 C
ATOM     18  C2  NAG B   2      16.670  13.832  21.3030  0.00  0.00     0.000 C
ATOM     19  C3  NAG B   2      18.114  13.519  20.9170  0.00  0.00     0.000 C
ATOM     20  C4  NAG B   2      19.082  14.159  21.9120  0.00  0.00     0.000 C
ATOM     21  C5  NAG B   2      18.738  13.712  23.3250  0.00  0.00     0.000 C
ATOM     22  O5  NAG B   2      17.382  14.091  23.6170  0.00  0.00     0.000 O
ATOM     23   O  NAG B   2      20.414  13.776  21.5550  0.00  0.00     0.000 O
ATOM     25  HD  NAG B   2      20.202  14.609  21.4520  0.00  0.00     0.000 HD
ATOM     25   C  NAG B   2      19.677  14.302  24.3760  0.00  0.00     0.000 C
ATOM     26   O  NAG B   2      19.421  15.698  24.5920  0.00  0.00     0.000 O
ATOM     28  HD  NAG B   2      19.209  16.531  24.4890  0.00  0.00     0.000 HD
BRANCH 18 30
ATOM     28   N  NAG B   2      15.692  13.135  20.4880  0.00  0.00     0.000 N
ATOM     30  HD  NAG B   2      15.512  13.970  20.3430  0.00  0.00     0.000 HD
ATOM     30   C  NAG B   2      14.702  13.746  19.8250  0.00  0.00     0.000 C
ATOM     31   C  NAG B   2      13.740  12.882  19.0590  0.00  0.00     0.000 C
ATOM     32   O  NAG B   2      14.574  14.954  19.8360  0.00  0.00     0.000 OA
ENDBRANCH 18 30
BRANCH 17 33
ATOM     33  O4  GCU B   3      15.056  13.809  23.0700  0.00  0.00     0.000 O
BRANCH 33 37
ATOM     34  C1  GCU B   3      12.453  12.303  25.9500  0.00  0.00     0.000 C
ATOM     35  C2  GCU B   3      13.739  12.974  26.4360  0.00  0.00     0.000 C
ATOM     36  C3  GCU B   3      14.326  13.814  25.3210  0.00  0.00     0.000 C
ATOM     37  C4  GCU B   3      14.524  12.952  24.0820  0.00  0.00     0.000 C
ATOM     38  C5  GCU B   3      13.189  12.328  23.6700  0.00  0.00     0.000 C
ATOM     39  O5  GCU B   3      12.697  11.544  24.7620  0.00  0.00     0.000 O
ATOM     40   O  GCU B   3      13.435  13.795  27.5660  0.00  0.00     0.000 O
ATOM     42  HD  GCU B   3      13.548  14.592  27.8830  0.00  0.00     0.000 HD
ATOM     42   O  GCU B   3      15.576  14.403  25.7200  0.00  0.00     0.000 O
ATOM     44  HD  GCU B   3      15.690  15.201  26.0370  0.00  0.00     0.000 HD
BRANCH 38 44
ATOM     44   C  GCU B   3      13.313  11.437  22.4600  0.00  0.00     0.000 C
ATOM     45   O  GCU B   3      12.336  11.325  21.7030  0.00  0.00     0.000 OA
ATOM     46   O  GCU B   3      14.383  10.838  22.2400  0.00  0.00     0.000 OA
ENDBRANCH 38 44
BRANCH 34 47
ATOM     47  O3  NAG B   4      12.065  11.417  26.8550  0.00  0.00     0.000 O
BRANCH 47 50
ATOM     48  C1  NAG B   4      10.629   9.782  29.8590  0.00  0.00     0.000 C
ATOM     49  C2  NAG B   4      11.684  10.159  28.8240  0.00  0.00     0.000 C
ATOM     50  C3  NAG B   4      11.286  11.405  28.0500  0.00  0.00     0.000 C
ATOM     51  C4  NAG B   4       9.797  11.458  27.6880  0.00  0.00     0.000 C
ATOM     52  C5  NAG B   4       8.926  11.423  28.9320  0.00  0.00     0.000 C
ATOM     53  O5  NAG B   4       9.370  10.484  29.9370  0.00  0.00     0.000 O
BRANCH 49 56
ATOM     54   N  NAG B   4      12.610  10.690  29.8410  0.00  0.00     0.000 N
ATOM     56  HD  NAG B   4      12.385  11.157  30.5350  0.00  0.00     0.000 HD
ATOM     56   C  NAG B   4      14.704  11.209  30.9520  0.00  0.00     0.000 C
ATOM     57   O  NAG B   4      14.588  10.328  28.7810  0.00  0.00     0.000 OA
ATOM     58   C  NAG B   4      13.955  10.708  29.7550  0.00  0.00     0.000 C
ENDBRANCH 49 56
ATOM     59   O  NAG B   4       6.542  11.430  29.5750  0.00  0.00     0.000 O
ATOM     61  HD  NAG B   4       7.258  10.980  29.3870  0.00  0.00     0.000 HD
ATOM     61   O  NAG B   4       6.542  11.430  29.5750  0.00  0.00     0.000 O
ATOM     63  HD  NAG B   4       7.258  10.980  29.3870  0.00  0.00     0.000 HD
ENDBRANCH 47 50
ENDBRANCH 34 47
ENDBRANCH 33 37
ENDBRANCH 17 33
ENDBRANCH 16 19
ENDBRANCH 1 16
TORSDOF 10
ENDMDL
MODEL 43
REMARK VINA RESULT:      -5.6     13.836     16.983
ROOT
ATOM      1  C1  GCU B   1      18.523  33.730  19.8560  0.00  0.00     0.000 C
ATOM      2  C2  GCU B   1      19.842  33.622  19.1060  0.00  0.00     0.000 C
ATOM      3  C3  GCU B   1      20.159  34.929  18.3960  0.00  0.00     0.000 C
ATOM      4  C4  GCU B   1      18.971  35.374  17.5570  0.00  0.00     0.000 C
ATOM      5  C5  GCU B   1      17.687  35.390  18.3880  0.00  0.00     0.000 C
ATOM      6  O5  GCU B   1      17.471  34.086  18.9450  0.00  0.00     0.000 O
ATOM      7   O  GCU B   1      20.855  33.305  20.0550  0.00  0.00     0.000 O
ATOM      9  HD  GCU B   1      21.419  32.650  20.0010  0.00  0.00     0.000 HD
ATOM      9   O  GCU B   1      21.312  34.784  17.5640  0.00  0.00     0.000 O
ATOM     11  HD  GCU B   1      21.877  34.130  17.5090  0.00  0.00     0.000 HD
ATOM     11   O  GCU B   1      19.231  36.681  17.0440  0.00  0.00     0.000 O
ATOM     13  HD  GCU B   1      19.796  36.026  16.9890  0.00  0.00     0.000 HD
ENDROOT
BRANCH 5 13
ATOM     13   C  GCU B   1      16.528  35.847  17.5340  0.00  0.00     0.000 C
ATOM     14   O  GCU B   1      15.450  36.186  18.0620  0.00  0.00     0.000 OA
ATOM     15   O  GCU B   1      16.708  35.897  16.3020  0.00  0.00     0.000 OA
ENDBRANCH 5 13
BRANCH 1 16
ATOM     16  O3  NAG B   2      17.691  32.740  20.1840  0.00  0.00     0.000 O
BRANCH 16 19
ATOM     17  C1  NAG B   2      16.646  31.345  23.5290  0.00  0.00     0.000 C
ATOM     18  C2  NAG B   2      17.601  31.764  22.4190  0.00  0.00     0.000 C
ATOM     19  C3  NAG B   2      16.841  32.499  21.3160  0.00  0.00     0.000 C
ATOM     20  C4  NAG B   2      15.648  31.667  20.8470  0.00  0.00     0.000 C
ATOM     21  C5  NAG B   2      14.767  31.312  22.0360  0.00  0.00     0.000 C
ATOM     22  O5  NAG B   2      15.551  30.583  22.9950  0.00  0.00     0.000 O
ATOM     23   O  NAG B   2      14.924  32.427  19.8730  0.00  0.00     0.000 O
ATOM     25  HD  NAG B   2      15.338  31.719  19.5930  0.00  0.00     0.000 HD
ATOM     25   C  NAG B   2      13.542  30.492  21.6380  0.00  0.00     0.000 C
ATOM     26   O  NAG B   2      13.894  29.141  21.3020  0.00  0.00     0.000 O
ATOM     28  HD  NAG B   2      14.308  28.433  21.0230  0.00  0.00     0.000 HD
BRANCH 18 30
ATOM     28   N  NAG B   2      18.895  31.331  22.9110  0.00  0.00     0.000 N
ATOM     30  HD  NAG B   2      18.972  32.193  22.8860  0.00  0.00     0.000 HD
ATOM     30   C  NAG B   2      19.932  32.154  23.1070  0.00  0.00     0.000 C
ATOM     31   C  NAG B   2      21.224  31.547  23.5790  0.00  0.00     0.000 C
ATOM     32   O  NAG B   2      19.847  33.350  22.9110  0.00  0.00     0.000 OA
ENDBRANCH 18 30
BRANCH 17 33
ATOM     33  O4  GCU B   3      17.414  30.628  24.5170  0.00  0.00     0.000 O
BRANCH 33 37
ATOM     34  C1  GCU B   3      16.431  29.615  28.4330  0.00  0.00     0.000 C
ATOM     35  C2  GCU B   3      16.221  28.554  27.3510  0.00  0.00     0.000 C
ATOM     36  C3  GCU B   3      17.008  28.930  26.1140  0.00  0.00     0.000 C
ATOM     37  C4  GCU B   3      16.622  30.333  25.6680  0.00  0.00     0.000 C
ATOM     38  C5  GCU B   3      16.868  31.321  26.8100  0.00  0.00     0.000 C
ATOM     39  O5  GCU B   3      16.091  30.914  27.9410  0.00  0.00     0.000 O
ATOM     40   O  GCU B   3      16.659  27.289  27.8520  0.00  0.00     0.000 O
ATOM     42  HD  GCU B   3      17.155  26.608  27.6510  0.00  0.00     0.000 HD
ATOM     42   O  GCU B   3      16.776  27.991  25.0490  0.00  0.00     0.000 O
ATOM     44  HD  GCU B   3      17.272  27.310  24.8480  0.00  0.00     0.000 HD
BRANCH 38 44
ATOM     44   C  GCU B   3      16.484  32.734  26.4490  0.00  0.00     0.000 C
ATOM     45   O  GCU B   3      15.280  33.029  26.4070  0.00  0.00     0.000 OA
ATOM     46   O  GCU B   3      17.372  33.573  26.2060  0.00  0.00     0.000 OA
ENDBRANCH 38 44
BRANCH 34 47
ATOM     47  O3  NAG B   4      15.582  29.386  29.4260  0.00  0.00     0.000 O
BRANCH 47 50
ATOM     48  C1  NAG B   4      12.908  30.567  31.7090  0.00  0.00     0.000 C
ATOM     49  C2  NAG B   4      14.263  30.552  31.0080  0.00  0.00     0.000 C
ATOM     50  C3  NAG B   4      14.229  29.704  29.7470  0.00  0.00     0.000 C
ATOM     51  C4  NAG B   4      13.423  28.408  29.8950  0.00  0.00     0.000 C
ATOM     52  C5  NAG B   4      11.977  28.698  30.2630  0.00  0.00     0.000 C
ATOM     53  O5  NAG B   4      11.818  29.740  31.2510  0.00  0.00     0.000 O
BRANCH 49 56
ATOM     54   N  NAG B   4      14.150  31.874  30.3680  0.00  0.00     0.000 N
ATOM     56  HD  NAG B   4      13.555  32.103  29.7810  0.00  0.00     0.000 HD
ATOM     56   C  NAG B   4      14.692  34.168  29.7870  0.00  0.00     0.000 C
ATOM     57   O  NAG B   4      16.135  32.779  31.0070  0.00  0.00     0.000 OA
ATOM     58   C  NAG B   4      15.057  32.869  30.4370  0.00  0.00     0.000 C
ENDBRANCH 49 56
ATOM     59   O  NAG B   4       9.874  27.504  30.7570  0.00  0.00     0.000 O
ATOM     61  HD  NAG B   4      10.604  27.871  31.0460  0.00  0.00     0.000 HD
ATOM     61   O  NAG B   4       9.874  27.504  30.7570  0.00  0.00     0.000 O
ATOM     63  HD  NAG B   4      10.604  27.871  31.0460  0.00  0.00     0.000 HD
ENDBRANCH 47 50
ENDBRANCH 34 47
ENDBRANCH 33 37
ENDBRANCH 17 33
ENDBRANCH 16 19
ENDBRANCH 1 16
TORSDOF 10
ENDMDL
MODEL 44
REMARK VINA RESULT:      -5.6     17.506     23.815
ROOT
ATOM      1  C1  GCU B   1      11.160  10.901  25.5620  0.00  0.00     0.000 C
ATOM      2  C2  GCU B   1      11.569  10.781  24.1020  0.00  0.00     0.000 C
ATOM      3  C3  GCU B   1      10.527  11.427  23.2030  0.00  0.00     0.000 C
ATOM      4  C4  GCU B   1       9.143  10.891  23.5330  0.00  0.00     0.000 C
ATOM      5  C5  GCU B   1       8.854  11.002  25.0310  0.00  0.00     0.000 C
ATOM      6  O5  GCU B   1       9.870  10.300  25.7590  0.00  0.00     0.000 O
ATOM      7   O  GCU B   1      12.832  11.422  23.9530  0.00  0.00     0.000 O
ATOM      9  HD  GCU B   1      13.541  11.078  23.5940  0.00  0.00     0.000 HD
ATOM      9   O  GCU B   1      10.826  11.178  21.8270  0.00  0.00     0.000 O
ATOM     11  HD  GCU B   1      11.535  10.833  21.4670  0.00  0.00     0.000 HD
ATOM     11   O  GCU B   1       8.172  11.635  22.7970  0.00  0.00     0.000 O
ATOM     13  HD  GCU B   1       8.880  11.291  22.4380  0.00  0.00     0.000 HD
ENDROOT
BRANCH 5 13
ATOM     13   C  GCU B   1       7.470  10.476  25.3280  0.00  0.00     0.000 C
ATOM     14   O  GCU B   1       7.303   9.281  25.6460  0.00  0.00     0.000 OA
ATOM     15   O  GCU B   1       6.524  11.285  25.2690  0.00  0.00     0.000 OA
ENDBRANCH 5 13
BRANCH 1 16
ATOM     16  O3  NAG B   2      11.512  10.105  26.5740  0.00  0.00     0.000 O
BRANCH 16 19
ATOM     17  C1  NAG B   2      10.822  10.898  30.1970  0.00  0.00     0.000 C
ATOM     18  C2  NAG B   2      11.187  11.174  28.7440  0.00  0.00     0.000 C
ATOM     19  C3  NAG B   2      11.001   9.912  27.9020  0.00  0.00     0.000 C
ATOM     20  C4  NAG B   2      11.747   8.737  28.5330  0.00  0.00     0.000 C
ATOM     21  C5  NAG B   2      11.299   8.555  29.9760  0.00  0.00     0.000 C
ATOM     22  O5  NAG B   2      11.558   9.771  30.7000  0.00  0.00     0.000 O
ATOM     23   O  NAG B   2      11.480   7.564  27.7550  0.00  0.00     0.000 O
ATOM     25  HD  NAG B   2      12.289   7.875  27.7360  0.00  0.00     0.000 HD
ATOM     25   C  NAG B   2      11.993   7.384  30.6670  0.00  0.00     0.000 C
ATOM     26   O  NAG B   2      13.364   7.685  30.9700  0.00  0.00     0.000 O
ATOM     28  HD  NAG B   2      14.172   7.996  30.9520  0.00  0.00     0.000 HD
BRANCH 18 30
ATOM     28   N  NAG B   2      11.597  12.561  28.6360  0.00  0.00     0.000 N
ATOM     30  HD  NAG B   2      10.806  12.560  28.2830  0.00  0.00     0.000 HD
ATOM     30   C  NAG B   2      10.891  13.499  27.9910  0.00  0.00     0.000 C
ATOM     31   C  NAG B   2      11.470  14.885  27.9280  0.00  0.00     0.000 C
ATOM     32   O  NAG B   2       9.822  13.251  27.4700  0.00  0.00     0.000 OA
ENDBRANCH 18 30
BRANCH 17 33
ATOM     33  O4  GCU B   3      11.053  12.111  30.9420  0.00  0.00     0.000 O
BRANCH 33 37
ATOM     34  C1  GCU B   3       9.194  13.542  34.3810  0.00  0.00     0.000 C
ATOM     35  C2  GCU B   3      10.473  12.722  34.5540  0.00  0.00     0.000 C
ATOM     36  C3  GCU B   3      11.218  12.661  33.2380  0.00  0.00     0.000 C
ATOM     37  C4  GCU B   3      10.296  12.121  32.1530  0.00  0.00     0.000 C
ATOM     38  C5  GCU B   3       9.050  13.002  32.0510  0.00  0.00     0.000 C
ATOM     39  O5  GCU B   3       8.392  13.010  33.3220  0.00  0.00     0.000 O
ATOM     40   O  GCU B   3      11.287  13.340  35.5540  0.00  0.00     0.000 O
ATOM     42  HD  GCU B   3      12.094  13.614  35.7070  0.00  0.00     0.000 HD
ATOM     42   O  GCU B   3      12.392  11.836  33.3450  0.00  0.00     0.000 O
ATOM     44  HD  GCU B   3      13.199  12.110  33.4980  0.00  0.00     0.000 HD
BRANCH 38 44
ATOM     44   C  GCU B   3       8.074  12.512  31.0110  0.00  0.00     0.000 C
ATOM     45   O  GCU B   3       7.593  11.376  31.1370  0.00  0.00     0.000 OA
ATOM     46   O  GCU B   3       7.768  13.250  30.0550  0.00  0.00     0.000 OA
ENDBRANCH 38 44
BRANCH 34 47
ATOM     47  O3  NAG B   4       8.454  13.416  35.4740  0.00  0.00     0.000 O
BRANCH 47 50
ATOM     48  C1  NAG B   4       5.041  14.605  36.3040  0.00  0.00     0.000 C
ATOM     49  C2  NAG B   4       6.148  13.611  35.9690  0.00  0.00     0.000 C
ATOM     50  C3  NAG B   4       7.525  14.207  36.2120  0.00  0.00     0.000 C
ATOM     51  C4  NAG B   4       7.648  15.673  35.7810  0.00  0.00     0.000 C
ATOM     52  C5  NAG B   4       6.656  16.551  36.5250  0.00  0.00     0.000 C
ATOM     53  O5  NAG B   4       5.341  15.969  36.6630  0.00  0.00     0.000 O
BRANCH 49 56
ATOM     54   N  NAG B   4       6.188  12.760  37.1710  0.00  0.00     0.000 N
ATOM     56  HD  NAG B   4       6.655  12.914  37.8840  0.00  0.00     0.000 HD
ATOM     56   C  NAG B   4       5.743  10.873  38.6320  0.00  0.00     0.000 C
ATOM     57   O  NAG B   4       5.140  10.911  36.3660  0.00  0.00     0.000 OA
ATOM     58   C  NAG B   4       5.672  11.520  37.2820  0.00  0.00     0.000 C
ENDBRANCH 49 56
ATOM     59   O  NAG B   4       5.946  18.912  36.6570  0.00  0.00     0.000 O
ATOM     61  HD  NAG B   4       5.839  18.124  36.3140  0.00  0.00     0.000 HD
ATOM     61   O  NAG B   4       5.946  18.912  36.6570  0.00  0.00     0.000 O
ATOM     63  HD  NAG B   4       5.839  18.124  36.3140  0.00  0.00     0.000 HD
ENDBRANCH 47 50
ENDBRANCH 34 47
ENDBRANCH 33 37
ENDBRANCH 17 33
ENDBRANCH 16 19
ENDBRANCH 1 16
TORSDOF 10
ENDMDL
MODEL 45
REMARK VINA RESULT:      -5.6     13.573     15.867
ROOT
ATOM      1  C1  GCU B   1      22.040  35.435  16.0280  0.00  0.00     0.000 C
ATOM      2  C2  GCU B   1      23.075  34.599  15.2920  0.00  0.00     0.000 C
ATOM      3  C3  GCU B   1      24.324  35.421  15.0150  0.00  0.00     0.000 C
ATOM      4  C4  GCU B   1      23.951  36.733  14.3410  0.00  0.00     0.000 C
ATOM      5  C5  GCU B   1      22.862  37.465  15.1270  0.00  0.00     0.000 C
ATOM      6  O5  GCU B   1      21.721  36.607  15.2600  0.00  0.00     0.000 O
ATOM      7   O  GCU B   1      23.383  33.474  16.1080  0.00  0.00     0.000 O
ATOM      9  HD  GCU B   1      23.364  32.643  15.8620  0.00  0.00     0.000 HD
ATOM      9   O  GCU B   1      25.234  34.693  14.1870  0.00  0.00     0.000 O
ATOM     11  HD  GCU B   1      25.215  33.863  13.9410  0.00  0.00     0.000 HD
ATOM     11   O  GCU B   1      25.117  37.553  14.2500  0.00  0.00     0.000 O
ATOM     13  HD  GCU B   1      25.098  36.723  14.0040  0.00  0.00     0.000 HD
ENDROOT
BRANCH 5 13
ATOM     13   C  GCU B   1      22.523  38.767  14.4420  0.00  0.00     0.000 C
ATOM     14   O  GCU B   1      22.556  38.854  13.1980  0.00  0.00     0.000 OA
ATOM     15   O  GCU B   1      22.187  39.725  15.1650  0.00  0.00     0.000 OA
ENDBRANCH 5 13
BRANCH 1 16
ATOM     16  O3  NAG B   2      20.715  35.270  16.0340  0.00  0.00     0.000 O
BRANCH 16 19
ATOM     17  C1  NAG B   2      18.240  34.221  18.6790  0.00  0.00     0.000 C
ATOM     18  C2  NAG B   2      19.440  34.094  17.7500  0.00  0.00     0.000 C
ATOM     19  C3  NAG B   2      19.706  35.423  17.0430  0.00  0.00     0.000 C
ATOM     20  C4  NAG B   2      18.432  35.931  16.3690  0.00  0.00     0.000 C
ATOM     21  C5  NAG B   2      17.308  36.020  17.3910  0.00  0.00     0.000 C
ATOM     22  O5  NAG B   2      17.096  34.718  17.9660  0.00  0.00     0.000 O
ATOM     23   O  NAG B   2      18.708  37.210  15.7880  0.00  0.00     0.000 O
ATOM     25  HD  NAG B   2      18.558  36.554  15.2440  0.00  0.00     0.000 HD
ATOM     25   C  NAG B   2      16.003  36.538  16.7890  0.00  0.00     0.000 C
ATOM     26   O  NAG B   2      15.374  35.551  15.9580  0.00  0.00     0.000 O
ATOM     28  HD  NAG B   2      15.223  34.895  15.4130  0.00  0.00     0.000 HD
BRANCH 18 30
ATOM     28   N  NAG B   2      19.896  32.733  17.9540  0.00  0.00     0.000 N
ATOM     30  HD  NAG B   2      20.548  33.208  18.2670  0.00  0.00     0.000 HD
ATOM     30   C  NAG B   2      21.118  32.414  18.3980  0.00  0.00     0.000 C
ATOM     31   C  NAG B   2      21.458  30.954  18.5150  0.00  0.00     0.000 C
ATOM     32   O  NAG B   2      21.934  33.263  18.6960  0.00  0.00     0.000 OA
ENDBRANCH 18 30
BRANCH 17 33
ATOM     33  O4  GCU B   3      18.020  32.932  19.2850  0.00  0.00     0.000 O
BRANCH 33 37
ATOM     34  C1  GCU B   3      16.263  31.881  22.9110  0.00  0.00     0.000 C
ATOM     35  C2  GCU B   3      15.335  32.246  21.7510  0.00  0.00     0.000 C
ATOM     36  C3  GCU B   3      16.101  32.177  20.4480  0.00  0.00     0.000 C
ATOM     37  C4  GCU B   3      17.337  33.061  20.5340  0.00  0.00     0.000 C
ATOM     38  C5  GCU B   3      18.203  32.622  21.7160  0.00  0.00     0.000 C
ATOM     39  O5  GCU B   3      17.423  32.718  22.9120  0.00  0.00     0.000 O
ATOM     40   O  GCU B   3      14.239  31.329  21.7290  0.00  0.00     0.000 O
ATOM     42  HD  GCU B   3      13.794  30.806  21.2010  0.00  0.00     0.000 HD
ATOM     42   O  GCU B   3      15.277  32.585  19.3410  0.00  0.00     0.000 O
ATOM     44  HD  GCU B   3      14.832  32.063  18.8120  0.00  0.00     0.000 HD
BRANCH 38 44
ATOM     44   C  GCU B   3      19.438  33.471  21.8810  0.00  0.00     0.000 C
ATOM     45   O  GCU B   3      19.300  34.666  22.1850  0.00  0.00     0.000 OA
ATOM     46   O  GCU B   3      20.563  32.964  21.7130  0.00  0.00     0.000 OA
ENDBRANCH 38 44
BRANCH 34 47
ATOM     47  O3  NAG B   4      15.643  32.143  24.0530  0.00  0.00     0.000 O
BRANCH 47 50
ATOM     48  C1  NAG B   4      16.026  31.793  27.7250  0.00  0.00     0.000 C
ATOM     49  C2  NAG B   4      15.776  32.488  26.3910  0.00  0.00     0.000 C
ATOM     50  C3  NAG B   4      15.418  31.491  25.3010  0.00  0.00     0.000 C
ATOM     51  C4  NAG B   4      16.237  30.196  25.3540  0.00  0.00     0.000 C
ATOM     52  C5  NAG B   4      16.046  29.478  26.6800  0.00  0.00     0.000 C
ATOM     53  O5  NAG B   4      16.043  30.353  27.8300  0.00  0.00     0.000 O
BRANCH 49 56
ATOM     54   N  NAG B   4      14.396  32.979  26.5450  0.00  0.00     0.000 N
ATOM     56  HD  NAG B   4      13.677  32.530  26.3670  0.00  0.00     0.000 HD
ATOM     56   C  NAG B   4      12.571  34.510  27.0100  0.00  0.00     0.000 C
ATOM     57   O  NAG B   4      14.811  35.189  26.8720  0.00  0.00     0.000 OA
ATOM     58   C  NAG B   4      14.031  34.252  26.7940  0.00  0.00     0.000 C
ENDBRANCH 49 56
ATOM     59   O  NAG B   4      16.812  27.450  27.8620  0.00  0.00     0.000 O
ATOM     61  HD  NAG B   4      16.911  28.294  27.6980  0.00  0.00     0.000 HD
ATOM     61   O  NAG B   4      16.812  27.450  27.8620  0.00  0.00     0.000 O
ATOM     63  HD  NAG B   4      16.911  28.294  27.6980  0.00  0.00     0.000 HD
ENDBRANCH 47 50
ENDBRANCH 34 47
ENDBRANCH 33 37
ENDBRANCH 17 33
ENDBRANCH 16 19
ENDBRANCH 1 16
TORSDOF 10
ENDMDL
MODEL 46
REMARK VINA RESULT:      -5.6     16.763     24.072
ROOT
ATOM      1  C1  GCU B   1      22.771  38.890  14.8360  0.00  0.00     0.000 C
ATOM      2  C2  GCU B   1      23.744  37.879  15.4250  0.00  0.00     0.000 C
ATOM      3  C3  GCU B   1      23.155  36.479  15.3680  0.00  0.00     0.000 C
ATOM      4  C4  GCU B   1      21.762  36.469  15.9790  0.00  0.00     0.000 C
ATOM      5  C5  GCU B   1      20.884  37.560  15.3630  0.00  0.00     0.000 C
ATOM      6  O5  GCU B   1      21.521  38.832  15.5400  0.00  0.00     0.000 O
ATOM      7   O  GCU B   1      24.950  37.950  14.6710  0.00  0.00     0.000 O
ATOM      9  HD  GCU B   1      25.748  38.057  14.9910  0.00  0.00     0.000 HD
ATOM      9   O  GCU B   1      23.993  35.551  16.0620  0.00  0.00     0.000 O
ATOM     11  HD  GCU B   1      24.791  35.658  16.3830  0.00  0.00     0.000 HD
ATOM     11   O  GCU B   1      21.169  35.189  15.7590  0.00  0.00     0.000 O
ATOM     13  HD  GCU B   1      21.967  35.296  16.0790  0.00  0.00     0.000 HD
ENDROOT
BRANCH 5 13
ATOM     13   C  GCU B   1      19.505  37.518  15.9770  0.00  0.00     0.000 C
ATOM     14   O  GCU B   1      19.312  37.968  17.1250  0.00  0.00     0.000 OA
ATOM     15   O  GCU B   1      18.582  37.047  15.2850  0.00  0.00     0.000 OA
ENDBRANCH 5 13
BRANCH 1 16
ATOM     16  O3  NAG B   2      22.687  40.193  15.1110  0.00  0.00     0.000 O
BRANCH 16 19
ATOM     17  C1  NAG B   2      22.491  43.045  12.6500  0.00  0.00     0.000 C
ATOM     18  C2  NAG B   2      23.005  41.745  13.2550  0.00  0.00     0.000 C
ATOM     19  C3  NAG B   2      22.114  41.313  14.4180  0.00  0.00     0.000 C
ATOM     20  C4  NAG B   2      21.951  42.457  15.4170  0.00  0.00     0.000 C
ATOM     21  C5  NAG B   2      21.430  43.696  14.7030  0.00  0.00     0.000 C
ATOM     22  O5  NAG B   2      22.354  44.056  13.6610  0.00  0.00     0.000 O
ATOM     23   O  NAG B   2      21.049  42.034  16.4450  0.00  0.00     0.000 O
ATOM     25  HD  NAG B   2      21.877  42.152  16.6700  0.00  0.00     0.000 HD
ATOM     25   C  NAG B   2      21.226  44.880  15.6450  0.00  0.00     0.000 C
ATOM     26   O  NAG B   2      22.477  45.455  16.0530  0.00  0.00     0.000 O
ATOM     28  HD  NAG B   2      23.305  45.573  16.2780  0.00  0.00     0.000 HD
BRANCH 18 30
ATOM     28   N  NAG B   2      23.177  41.034  12.0020  0.00  0.00     0.000 N
ATOM     30  HD  NAG B   2      23.843  40.756  12.4800  0.00  0.00     0.000 HD
ATOM     30   C  NAG B   2      24.236  40.266  11.7190  0.00  0.00     0.000 C
ATOM     31   C  NAG B   2      24.291  39.630  10.3580  0.00  0.00     0.000 C
ATOM     32   O  NAG B   2      25.129  40.084  12.5220  0.00  0.00     0.000 OA
ENDBRANCH 18 30
BRANCH 17 33
ATOM     33  O4  GCU B   3      23.391  43.417  11.5860  0.00  0.00     0.000 O
BRANCH 33 37
ATOM     34  C1  GCU B   3      22.744  45.782   8.2220  0.00  0.00     0.000 C
ATOM     35  C2  GCU B   3      23.284  46.467   9.4770  0.00  0.00     0.000 C
ATOM     36  C3  GCU B   3      23.848  45.425  10.4200  0.00  0.00     0.000 C
ATOM     37  C4  GCU B   3      22.787  44.374  10.7140  0.00  0.00     0.000 C
ATOM     38  C5  GCU B   3      22.310  43.744   9.4040  0.00  0.00     0.000 C
ATOM     39  O5  GCU B   3      21.784  44.778   8.5660  0.00  0.00     0.000 O
ATOM     40   O  GCU B   3      24.304  47.393   9.0970  0.00  0.00     0.000 O
ATOM     42  HD  GCU B   3      25.115  47.632   9.2830  0.00  0.00     0.000 HD
ATOM     42   O  GCU B   3      24.300  46.027  11.6460  0.00  0.00     0.000 O
ATOM     44  HD  GCU B   3      25.112  46.266  11.8320  0.00  0.00     0.000 HD
BRANCH 38 44
ATOM     44   C  GCU B   3      21.236  42.706   9.6140  0.00  0.00     0.000 C
ATOM     45   O  GCU B   3      20.075  43.088   9.8270  0.00  0.00     0.000 OA
ATOM     46   O  GCU B   3      21.528  41.496   9.5670  0.00  0.00     0.000 OA
ENDBRANCH 38 44
BRANCH 34 47
ATOM     47  O3  NAG B   4      22.073  46.672   7.5040  0.00  0.00     0.000 O
BRANCH 47 50
ATOM     48  C1  NAG B   4      19.523  45.771   4.9670  0.00  0.00     0.000 C
ATOM     49  C2  NAG B   4      20.080  46.174   6.3280  0.00  0.00     0.000 C
ATOM     50  C3  NAG B   4      21.482  46.749   6.2080  0.00  0.00     0.000 C
ATOM     51  C4  NAG B   4      22.369  46.010   5.2000  0.00  0.00     0.000 C
ATOM     52  C5  NAG B   4      21.765  46.044   3.8050  0.00  0.00     0.000 C
ATOM     53  O5  NAG B   4      20.337  45.825   3.7770  0.00  0.00     0.000 O
BRANCH 49 56
ATOM     54   N  NAG B   4      19.325  47.434   6.4400  0.00  0.00     0.000 N
ATOM     56  HD  NAG B   4      19.352  48.091   5.8760  0.00  0.00     0.000 HD
ATOM     56   C  NAG B   4      17.859  49.125   7.3790  0.00  0.00     0.000 C
ATOM     57   O  NAG B   4      18.590  47.249   8.5820  0.00  0.00     0.000 OA
ATOM     58   C  NAG B   4      18.635  47.851   7.5200  0.00  0.00     0.000 C
ENDBRANCH 49 56
ATOM     59   O  NAG B   4      22.230  45.235   1.5200  0.00  0.00     0.000 O
ATOM     61  HD  NAG B   4      21.847  45.111   2.2870  0.00  0.00     0.000 HD
ATOM     61   O  NAG B   4      22.230  45.235   1.5200  0.00  0.00     0.000 O
ATOM     63  HD  NAG B   4      21.847  45.111   2.2870  0.00  0.00     0.000 HD
ENDBRANCH 47 50
ENDBRANCH 34 47
ENDBRANCH 33 37
ENDBRANCH 17 33
ENDBRANCH 16 19
ENDBRANCH 1 16
TORSDOF 10
ENDMDL
MODEL 47
REMARK VINA RESULT:      -5.5     21.889     24.754
ROOT
ATOM      1  C1  GCU B   1      14.387  25.309  35.9680  0.00  0.00     0.000 C
ATOM      2  C2  GCU B   1      14.801  26.507  36.8090  0.00  0.00     0.000 C
ATOM      3  C3  GCU B   1      13.983  27.731  36.4300  0.00  0.00     0.000 C
ATOM      4  C4  GCU B   1      14.030  27.949  34.9260  0.00  0.00     0.000 C
ATOM      5  C5  GCU B   1      13.657  26.671  34.1730  0.00  0.00     0.000 C
ATOM      6  O5  GCU B   1      14.541  25.616  34.5720  0.00  0.00     0.000 O
ATOM      7   O  GCU B   1      14.595  26.166  38.1770  0.00  0.00     0.000 O
ATOM      9  HD  GCU B   1      15.179  26.232  38.8130  0.00  0.00     0.000 HD
ATOM      9   O  GCU B   1      14.474  28.894  37.1030  0.00  0.00     0.000 O
ATOM     11  HD  GCU B   1      15.058  28.959  37.7390  0.00  0.00     0.000 HD
ATOM     11   O  GCU B   1      13.120  28.996  34.5820  0.00  0.00     0.000 O
ATOM     13  HD  GCU B   1      13.704  29.061  35.2180  0.00  0.00     0.000 HD
ENDROOT
BRANCH 5 13
ATOM     13   C  GCU B   1      13.698  26.921  32.6840  0.00  0.00     0.000 C
ATOM     14   O  GCU B   1      12.740  27.479  32.1110  0.00  0.00     0.000 OA
ATOM     15   O  GCU B   1      14.728  26.576  32.0730  0.00  0.00     0.000 OA
ENDBRANCH 5 13
BRANCH 1 16
ATOM     16  O3  NAG B   2      15.124  24.242  35.6540  0.00  0.00     0.000 O
BRANCH 16 19
ATOM     17  C1  NAG B   2      14.342  20.617  36.3450  0.00  0.00     0.000 C
ATOM     18  C2  NAG B   2      14.489  22.103  36.6430  0.00  0.00     0.000 C
ATOM     19  C3  NAG B   2      14.804  22.872  35.3620  0.00  0.00     0.000 C
ATOM     20  C4  NAG B   2      16.001  22.247  34.6460  0.00  0.00     0.000 C
ATOM     21  C5  NAG B   2      15.739  20.768  34.3980  0.00  0.00     0.000 C
ATOM     22  O5  NAG B   2      15.503  20.120  35.6600  0.00  0.00     0.000 O
ATOM     23   O  NAG B   2      16.210  22.950  33.4160  0.00  0.00     0.000 O
ATOM     25  HD  NAG B   2      16.813  23.042  34.0310  0.00  0.00     0.000 HD
ATOM     25   C  NAG B   2      16.890  20.079  33.6700  0.00  0.00     0.000 C
ATOM     26   O  NAG B   2      18.025  19.890  34.5300  0.00  0.00     0.000 O
ATOM     28  HD  NAG B   2      18.628  19.981  35.1440  0.00  0.00     0.000 HD
BRANCH 18 30
ATOM     28   N  NAG B   2      13.275  22.270  37.4200  0.00  0.00     0.000 N
ATOM     30  HD  NAG B   2      13.849  22.761  37.8430  0.00  0.00     0.000 HD
ATOM     30   C  NAG B   2      13.216  22.934  38.5800  0.00  0.00     0.000 C
ATOM     31   C  NAG B   2      11.892  22.982  39.2900  0.00  0.00     0.000 C
ATOM     32   O  NAG B   2      14.191  23.482  39.0550  0.00  0.00     0.000 OA
ENDBRANCH 18 30
BRANCH 17 33
ATOM     33  O4  GCU B   3      14.082  19.945  37.5940  0.00  0.00     0.000 O
BRANCH 33 37
ATOM     34  C1  GCU B   3      12.662  16.112  38.3840  0.00  0.00     0.000 C
ATOM     35  C2  GCU B   3      14.154  16.269  38.0860  0.00  0.00     0.000 C
ATOM     36  C3  GCU B   3      14.553  17.720  38.2500  0.00  0.00     0.000 C
ATOM     37  C4  GCU B   3      13.667  18.596  37.3750  0.00  0.00     0.000 C
ATOM     38  C5  GCU B   3      12.199  18.374  37.7450  0.00  0.00     0.000 C
ATOM     39  O5  GCU B   3      11.887  16.989  37.5610  0.00  0.00     0.000 O
ATOM     40   O  GCU B   3      14.895  15.448  38.9910  0.00  0.00     0.000 O
ATOM     42  HD  GCU B   3      15.563  15.466  39.5420  0.00  0.00     0.000 HD
ATOM     42   O  GCU B   3      15.937  17.918  37.9070  0.00  0.00     0.000 O
ATOM     44  HD  GCU B   3      16.604  17.937  38.4580  0.00  0.00     0.000 HD
BRANCH 38 44
ATOM     44   C  GCU B   3      11.256  19.193  36.8990  0.00  0.00     0.000 C
ATOM     45   O  GCU B   3      10.912  20.312  37.3080  0.00  0.00     0.000 OA
ATOM     46   O  GCU B   3      10.846  18.738  35.8140  0.00  0.00     0.000 OA
ENDBRANCH 38 44
BRANCH 34 47
ATOM     47  O3  NAG B   4      12.284  14.889  38.0390  0.00  0.00     0.000 O
BRANCH 47 50
ATOM     48  C1  NAG B   4      10.311  12.467  36.0410  0.00  0.00     0.000 C
ATOM     49  C2  NAG B   4      10.577  13.604  37.0220  0.00  0.00     0.000 C
ATOM     50  C3  NAG B   4      11.970  14.184  36.8400  0.00  0.00     0.000 C
ATOM     51  C4  NAG B   4      13.048  13.128  36.5730  0.00  0.00     0.000 C
ATOM     52  C5  NAG B   4      12.741  12.332  35.3150  0.00  0.00     0.000 C
ATOM     53  O5  NAG B   4      11.350  11.966  35.1740  0.00  0.00     0.000 O
BRANCH 49 56
ATOM     54   N  NAG B   4       9.781  14.600  36.2840  0.00  0.00     0.000 N
ATOM     56  HD  NAG B   4       9.858  14.784  35.4410  0.00  0.00     0.000 HD
ATOM     56   C  NAG B   4       8.169  16.369  35.8800  0.00  0.00     0.000 C
ATOM     57   O  NAG B   4       8.799  15.674  38.0290  0.00  0.00     0.000 OA
ATOM     58   C  NAG B   4       8.955  15.516  36.8280  0.00  0.00     0.000 C
ENDBRANCH 49 56
ATOM     59   O  NAG B   4      13.667  10.479  33.9730  0.00  0.00     0.000 O
ATOM     61  HD  NAG B   4      13.137  10.744  34.6040  0.00  0.00     0.000 HD
ATOM     61   O  NAG B   4      13.667  10.479  33.9730  0.00  0.00     0.000 O
ATOM     63  HD  NAG B   4      13.137  10.744  34.6040  0.00  0.00     0.000 HD
ENDBRANCH 47 50
ENDBRANCH 34 47
ENDBRANCH 33 37
ENDBRANCH 17 33
ENDBRANCH 16 19
ENDBRANCH 1 16
TORSDOF 10
ENDMDL
MODEL 48
REMARK VINA RESULT:      -5.5     20.986     26.686
ROOT
ATOM      1  C1  GCU B   1      13.918  14.980  38.1560  0.00  0.00     0.000 C
ATOM      2  C2  GCU B   1      14.291  14.144  39.3710  0.00  0.00     0.000 C
ATOM      3  C3  GCU B   1      14.800  12.777  38.9390  0.00  0.00     0.000 C
ATOM      4  C4  GCU B   1      13.811  12.127  37.9840  0.00  0.00     0.000 C
ATOM      5  C5  GCU B   1      13.455  13.071  36.8340  0.00  0.00     0.000 C
ATOM      6  O5  GCU B   1      12.930  14.291  37.3730  0.00  0.00     0.000 O
ATOM      7   O  GCU B   1      15.296  14.852  40.0910  0.00  0.00     0.000 O
ATOM      9  HD  GCU B   1      15.279  15.046  40.9350  0.00  0.00     0.000 HD
ATOM      9   O  GCU B   1      15.001  11.933  40.0760  0.00  0.00     0.000 O
ATOM     11  HD  GCU B   1      14.984  12.127  40.9190  0.00  0.00     0.000 HD
ATOM     11   O  GCU B   1      14.391  10.929  37.4650  0.00  0.00     0.000 O
ATOM     13  HD  GCU B   1      14.374  11.123  38.3080  0.00  0.00     0.000 HD
ENDROOT
BRANCH 5 13
ATOM     13   C  GCU B   1      12.485  12.394  35.8950  0.00  0.00     0.000 C
ATOM     14   O  GCU B   1      12.464  12.696  34.6840  0.00  0.00     0.000 OA
ATOM     15   O  GCU B   1      11.740  11.517  36.3740  0.00  0.00     0.000 OA
ENDBRANCH 5 13
BRANCH 1 16
ATOM     16  O3  NAG B   2      13.038  15.982  38.0980  0.00  0.00     0.000 O
BRANCH 16 19
ATOM     17  C1  NAG B   2      13.455  19.375  36.5030  0.00  0.00     0.000 C
ATOM     18  C2  NAG B   2      13.820  18.175  37.3690  0.00  0.00     0.000 C
ATOM     19  C3  NAG B   2      12.814  17.046  37.1590  0.00  0.00     0.000 C
ATOM     20  C4  NAG B   2      11.388  17.560  37.3560  0.00  0.00     0.000 C
ATOM     21  C5  NAG B   2      11.138  18.750  36.4410  0.00  0.00     0.000 C
ATOM     22  O5  NAG B   2      12.098  19.779  36.7420  0.00  0.00     0.000 O
ATOM     23   O  NAG B   2      10.479  16.489  37.0740  0.00  0.00     0.000 O
ATOM     25  HD  NAG B   2      10.531  16.758  37.8960  0.00  0.00     0.000 HD
ATOM     25   C  NAG B   2       9.723  19.309  36.5710  0.00  0.00     0.000 C
ATOM     26   O  NAG B   2       9.547  20.025  37.8030  0.00  0.00     0.000 O
ATOM     28  HD  NAG B   2       9.599  20.293  38.6250  0.00  0.00     0.000 HD
BRANCH 18 30
ATOM     28   N  NAG B   2      15.229  18.166  37.0240  0.00  0.00     0.000 N
ATOM     30  HD  NAG B   2      15.226  17.906  37.8500  0.00  0.00     0.000 HD
ATOM     30   C  NAG B   2      16.211  17.933  37.9030  0.00  0.00     0.000 C
ATOM     31   C  NAG B   2      17.626  18.001  37.4020  0.00  0.00     0.000 C
ATOM     32   O  NAG B   2      15.980  17.677  39.0680  0.00  0.00     0.000 OA
ENDBRANCH 18 30
BRANCH 17 33
ATOM     33  O4  GCU B   3      14.417  20.415  36.7720  0.00  0.00     0.000 O
BRANCH 33 37
ATOM     34  C1  GCU B   3      15.263  23.948  34.7390  0.00  0.00     0.000 C
ATOM     35  C2  GCU B   3      14.013  23.917  35.6200  0.00  0.00     0.000 C
ATOM     36  C3  GCU B   3      14.100  22.752  36.5820  0.00  0.00     0.000 C
ATOM     37  C4  GCU B   3      14.324  21.463  35.8060  0.00  0.00     0.000 C
ATOM     38  C5  GCU B   3      15.593  21.586  34.9590  0.00  0.00     0.000 C
ATOM     39  O5  GCU B   3      15.441  22.696  34.0700  0.00  0.00     0.000 O
ATOM     40   O  GCU B   3      13.924  25.149  36.3400  0.00  0.00     0.000 O
ATOM     42  HD  GCU B   3      13.809  25.469  37.1360  0.00  0.00     0.000 HD
ATOM     42   O  GCU B   3      12.906  22.649  37.3790  0.00  0.00     0.000 O
ATOM     44  HD  GCU B   3      12.791  22.970  38.1750  0.00  0.00     0.000 HD
BRANCH 38 44
ATOM     44   C  GCU B   3      15.867  20.350  34.1390  0.00  0.00     0.000 C
ATOM     45   O  GCU B   3      16.634  19.491  34.5990  0.00  0.00     0.000 OA
ATOM     46   O  GCU B   3      15.322  20.213  33.0270  0.00  0.00     0.000 OA
ENDBRANCH 38 44
BRANCH 34 47
ATOM     47  O3  NAG B   4      15.083  24.837  33.7720  0.00  0.00     0.000 O
BRANCH 47 50
ATOM     48  C1  NAG B   4      15.387  27.758  31.5080  0.00  0.00     0.000 C
ATOM     49  C2  NAG B   4      14.703  26.726  32.3980  0.00  0.00     0.000 C
ATOM     50  C3  NAG B   4      15.695  26.046  33.3280  0.00  0.00     0.000 C
ATOM     51  C4  NAG B   4      17.040  25.724  32.6670  0.00  0.00     0.000 C
ATOM     52  C5  NAG B   4      17.718  26.984  32.1550  0.00  0.00     0.000 C
ATOM     53  O5  NAG B   4      16.822  27.913  31.5050  0.00  0.00     0.000 O
BRANCH 49 56
ATOM     54   N  NAG B   4      14.085  27.764  33.2410  0.00  0.00     0.000 N
ATOM     56  HD  NAG B   4      14.444  28.523  33.4540  0.00  0.00     0.000 HD
ATOM     56   C  NAG B   4      12.459  28.846  34.6830  0.00  0.00     0.000 C
ATOM     57   O  NAG B   4      12.330  26.584  34.0740  0.00  0.00     0.000 OA
ATOM     58   C  NAG B   4      12.961  27.626  33.9730  0.00  0.00     0.000 C
ENDBRANCH 49 56
ATOM     59   O  NAG B   4      19.769  27.683  30.9730  0.00  0.00     0.000 O
ATOM     61  HD  NAG B   4      18.936  27.448  30.9360  0.00  0.00     0.000 HD
ATOM     61   O  NAG B   4      19.769  27.683  30.9730  0.00  0.00     0.000 O
ATOM     63  HD  NAG B   4      18.936  27.448  30.9360  0.00  0.00     0.000 HD
ENDBRANCH 47 50
ENDBRANCH 34 47
ENDBRANCH 33 37
ENDBRANCH 17 33
ENDBRANCH 16 19
ENDBRANCH 1 16
TORSDOF 10
ENDMDL
MODEL 49
REMARK VINA RESULT:      -5.5     20.740     25.476
ROOT
ATOM      1  C1  GCU B   1      11.126  19.431  37.6510  0.00  0.00     0.000 C
ATOM      2  C2  GCU B   1      10.995  18.089  38.3540  0.00  0.00     0.000 C
ATOM      3  C3  GCU B   1       9.684  17.416  37.9760  0.00  0.00     0.000 C
ATOM      4  C4  GCU B   1       8.522  18.374  38.1880  0.00  0.00     0.000 C
ATOM      5  C5  GCU B   1       8.779  19.713  37.4930  0.00  0.00     0.000 C
ATOM      6  O5  GCU B   1      10.007  20.268  37.9840  0.00  0.00     0.000 O
ATOM      7   O  GCU B   1      12.104  17.286  37.9640  0.00  0.00     0.000 O
ATOM      9  HD  GCU B   1      12.649  16.874  38.4960  0.00  0.00     0.000 HD
ATOM      9   O  GCU B   1       9.482  16.233  38.7530  0.00  0.00     0.000 O
ATOM     11  HD  GCU B   1      10.027  15.821  39.2860  0.00  0.00     0.000 HD
ATOM     11   O  GCU B   1       7.333  17.780  37.6660  0.00  0.00     0.000 O
ATOM     13  HD  GCU B   1       7.877  17.368  38.1980  0.00  0.00     0.000 HD
ENDROOT
BRANCH 5 13
ATOM     13   C  GCU B   1       7.605  20.638  37.7080  0.00  0.00     0.000 C
ATOM     14   O  GCU B   1       7.424  21.614  36.9510  0.00  0.00     0.000 OA
ATOM     15   O  GCU B   1       6.825  20.367  38.6410  0.00  0.00     0.000 OA
ENDBRANCH 5 13
BRANCH 1 16
ATOM     16  O3  NAG B   2      11.835  20.490  38.0470  0.00  0.00     0.000 O
BRANCH 16 19
ATOM     17  C1  NAG B   2      14.881  22.209  36.6340  0.00  0.00     0.000 C
ATOM     18  C2  NAG B   2      14.052  21.065  37.2040  0.00  0.00     0.000 C
ATOM     19  C3  NAG B   2      12.591  21.490  37.3450  0.00  0.00     0.000 C
ATOM     20  C4  NAG B   2      12.490  22.798  38.1280  0.00  0.00     0.000 C
ATOM     21  C5  NAG B   2      13.353  23.863  37.4650  0.00  0.00     0.000 C
ATOM     22  O5  NAG B   2      14.714  23.399  37.4220  0.00  0.00     0.000 O
ATOM     23   O  NAG B   2      11.115  23.196  38.1670  0.00  0.00     0.000 O
ATOM     25  HD  NAG B   2      11.476  22.949  38.9140  0.00  0.00     0.000 HD
ATOM     25   C  NAG B   2      13.288  25.208  38.1870  0.00  0.00     0.000 C
ATOM     26   O  NAG B   2      14.009  25.179  39.4280  0.00  0.00     0.000 O
ATOM     28  HD  NAG B   2      14.370  24.932  40.1760  0.00  0.00     0.000 HD
BRANCH 18 30
ATOM     28   N  NAG B   2      14.989  19.970  37.3620  0.00  0.00     0.000 N
ATOM     30  HD  NAG B   2      14.468  19.694  36.7270  0.00  0.00     0.000 HD
ATOM     30   C  NAG B   2      14.884  18.799  36.7200  0.00  0.00     0.000 C
ATOM     31   C  NAG B   2      15.910  17.744  37.0230  0.00  0.00     0.000 C
ATOM     32   O  NAG B   2      13.994  18.584  35.9220  0.00  0.00     0.000 OA
ENDBRANCH 18 30
BRANCH 17 33
ATOM     33  O4  GCU B   3      16.250  21.760  36.5600  0.00  0.00     0.000 O
BRANCH 33 37
ATOM     34  C1  GCU B   3      19.280  22.658  33.8500  0.00  0.00     0.000 C
ATOM     35  C2  GCU B   3      18.890  23.737  34.8620  0.00  0.00     0.000 C
ATOM     36  C3  GCU B   3      18.112  23.108  35.9980  0.00  0.00     0.000 C
ATOM     37  C4  GCU B   3      16.921  22.342  35.4410  0.00  0.00     0.000 C
ATOM     38  C5  GCU B   3      17.407  21.288  34.4440  0.00  0.00     0.000 C
ATOM     39  O5  GCU B   3      18.124  21.948  33.3960  0.00  0.00     0.000 O
ATOM     40   O  GCU B   3      20.077  24.357  35.3590  0.00  0.00     0.000 O
ATOM     42  HD  GCU B   3      20.474  24.585  36.0940  0.00  0.00     0.000 HD
ATOM     42   O  GCU B   3      17.666  24.105  36.9340  0.00  0.00     0.000 O
ATOM     44  HD  GCU B   3      18.063  24.334  37.6690  0.00  0.00     0.000 HD
BRANCH 38 44
ATOM     44   C  GCU B   3      16.276  20.503  33.8290  0.00  0.00     0.000 C
ATOM     45   O  GCU B   3      15.279  21.119  33.4220  0.00  0.00     0.000 OA
ATOM     46   O  GCU B   3      16.361  19.264  33.7380  0.00  0.00     0.000 OA
ENDBRANCH 38 44
BRANCH 34 47
ATOM     47  O3  NAG B   4      19.774  23.245  32.7690  0.00  0.00     0.000 O
BRANCH 47 50
ATOM     48  C1  NAG B   4      20.960  22.722  29.2940  0.00  0.00     0.000 C
ATOM     49  C2  NAG B   4      20.803  22.458  30.7880  0.00  0.00     0.000 C
ATOM     50  C3  NAG B   4      19.589  23.174  31.3560  0.00  0.00     0.000 C
ATOM     51  C4  NAG B   4      19.388  24.588  30.7970  0.00  0.00     0.000 C
ATOM     52  C5  NAG B   4      19.212  24.564  29.2880  0.00  0.00     0.000 C
ATOM     53  O5  NAG B   4      20.108  23.660  28.6040  0.00  0.00     0.000 O
BRANCH 49 56
ATOM     54   N  NAG B   4      20.235  21.106  30.6390  0.00  0.00     0.000 N
ATOM     56  HD  NAG B   4      19.533  20.901  30.1750  0.00  0.00     0.000 HD
ATOM     56   C  NAG B   4      19.947  18.718  30.9620  0.00  0.00     0.000 C
ATOM     57   O  NAG B   4      21.403  20.021  32.2590  0.00  0.00     0.000 OA
ATOM     58   C  NAG B   4      20.588  20.016  31.3480  0.00  0.00     0.000 C
ENDBRANCH 49 56
ATOM     59   O  NAG B   4      18.862  26.113  27.3980  0.00  0.00     0.000 O
ATOM     61  HD  NAG B   4      19.410  25.666  27.8990  0.00  0.00     0.000 HD
ATOM     61   O  NAG B   4      18.862  26.113  27.3980  0.00  0.00     0.000 O
ATOM     63  HD  NAG B   4      19.410  25.666  27.8990  0.00  0.00     0.000 HD
ENDBRANCH 47 50
ENDBRANCH 34 47
ENDBRANCH 33 37
ENDBRANCH 17 33
ENDBRANCH 16 19
ENDBRANCH 1 16
TORSDOF 10
ENDMDL
MODEL 50
REMARK VINA RESULT:      -5.5     11.511     15.109
ROOT
ATOM      1  C1  GCU B   1      23.915  36.944  15.0000  0.00  0.00     0.000 C
ATOM      2  C2  GCU B   1      24.604  36.426  13.7470  0.00  0.00     0.000 C
ATOM      3  C3  GCU B   1      26.057  36.876  13.7130  0.00  0.00     0.000 C
ATOM      4  C4  GCU B   1      26.146  38.379  13.9280  0.00  0.00     0.000 C
ATOM      5  C5  GCU B   1      25.371  38.803  15.1770  0.00  0.00     0.000 C
ATOM      6  O5  GCU B   1      24.008  38.376  15.0520  0.00  0.00     0.000 O
ATOM      7   O  GCU B   1      24.517  35.004  13.7610  0.00  0.00     0.000 O
ATOM      9  HD  GCU B   1      24.218  34.504  13.1200  0.00  0.00     0.000 HD
ATOM      9   O  GCU B   1      26.664  36.528  12.4660  0.00  0.00     0.000 O
ATOM     11  HD  GCU B   1      26.365  36.028  11.8260  0.00  0.00     0.000 HD
ATOM     11   O  GCU B   1      27.520  38.745  14.0630  0.00  0.00     0.000 O
ATOM     13  HD  GCU B   1      27.221  38.245  13.4220  0.00  0.00     0.000 HD
ENDROOT
BRANCH 5 13
ATOM     13   C  GCU B   1      25.489  40.296  15.3710  0.00  0.00     0.000 C
ATOM     14   O  GCU B   1      24.677  41.070  14.8240  0.00  0.00     0.000 OA
ATOM     15   O  GCU B   1      26.401  40.708  16.1140  0.00  0.00     0.000 OA
ENDBRANCH 5 13
BRANCH 1 16
ATOM     16  O3  NAG B   2      22.613  37.178  15.1740  0.00  0.00     0.000 O
BRANCH 16 19
ATOM     17  C1  NAG B   2      19.854  35.537  17.1540  0.00  0.00     0.000 C
ATOM     18  C2  NAG B   2      20.941  35.658  16.0940  0.00  0.00     0.000 C
ATOM     19  C3  NAG B   2      21.710  36.966  16.2700  0.00  0.00     0.000 C
ATOM     20  C4  NAG B   2      20.743  38.148  16.3250  0.00  0.00     0.000 C
ATOM     21  C5  NAG B   2      19.709  37.919  17.4180  0.00  0.00     0.000 C
ATOM     22  O5  NAG B   2      19.004  36.695  17.1430  0.00  0.00     0.000 O
ATOM     23   O  NAG B   2      21.499  39.339  16.5680  0.00  0.00     0.000 O
ATOM     25  HD  NAG B   2      21.126  39.261  15.7900  0.00  0.00     0.000 HD
ATOM     25   C  NAG B   2      18.715  39.072  17.5420  0.00  0.00     0.000 C
ATOM     26   O  NAG B   2      17.781  39.087  16.4510  0.00  0.00     0.000 O
ATOM     28  HD  NAG B   2      17.408  39.008  15.6740  0.00  0.00     0.000 HD
BRANCH 18 30
ATOM     28   N  NAG B   2      20.841  34.418  15.3470  0.00  0.00     0.000 N
ATOM     30  HD  NAG B   2      21.616  34.356  15.7300  0.00  0.00     0.000 HD
ATOM     30   C  NAG B   2      21.838  33.531  15.2380  0.00  0.00     0.000 C
ATOM     31   C  NAG B   2      21.596  32.312  14.3920  0.00  0.00     0.000 C
ATOM     32   O  NAG B   2      22.905  33.694  15.7950  0.00  0.00     0.000 OA
ENDBRANCH 18 30
BRANCH 17 33
ATOM     33  O4  GCU B   3      19.145  34.305  16.9120  0.00  0.00     0.000 O
BRANCH 33 37
ATOM     34  C1  GCU B   3      17.138  31.750  19.5160  0.00  0.00     0.000 C
ATOM     35  C2  GCU B   3      16.440  33.052  19.1200  0.00  0.00     0.000 C
ATOM     36  C3  GCU B   3      17.096  33.623  17.8810  0.00  0.00     0.000 C
ATOM     37  C4  GCU B   3      18.590  33.787  18.1220  0.00  0.00     0.000 C
ATOM     38  C5  GCU B   3      19.200  32.438  18.5090  0.00  0.00     0.000 C
ATOM     39  O5  GCU B   3      18.542  31.961  19.6870  0.00  0.00     0.000 O
ATOM     40   O  GCU B   3      15.060  32.779  18.8680  0.00  0.00     0.000 O
ATOM     42  HD  GCU B   3      14.432  32.907  18.2850  0.00  0.00     0.000 HD
ATOM     42   O  GCU B   3      16.511  34.887  17.5210  0.00  0.00     0.000 O
ATOM     44  HD  GCU B   3      15.883  35.015  16.9380  0.00  0.00     0.000 HD
BRANCH 38 44
ATOM     44   C  GCU B   3      20.679  32.527  18.7900  0.00  0.00     0.000 C
ATOM     45   O  GCU B   3      21.082  33.397  19.5770  0.00  0.00     0.000 OA
ATOM     46   O  GCU B   3      21.462  31.733  18.2350  0.00  0.00     0.000 OA
ENDBRANCH 38 44
BRANCH 34 47
ATOM     47  O3  NAG B   4      16.695  31.373  20.7070  0.00  0.00     0.000 O
BRANCH 47 50
ATOM     48  C1  NAG B   4      16.619  29.141  23.6680  0.00  0.00     0.000 C
ATOM     49  C2  NAG B   4      16.471  30.430  22.8660  0.00  0.00     0.000 C
ATOM     50  C3  NAG B   4      16.382  30.152  21.3740  0.00  0.00     0.000 C
ATOM     51  C4  NAG B   4      17.333  29.050  20.8940  0.00  0.00     0.000 C
ATOM     52  C5  NAG B   4      17.052  27.733  21.5990  0.00  0.00     0.000 C
ATOM     53  O5  NAG B   4      16.791  27.866  23.0130  0.00  0.00     0.000 O
BRANCH 49 56
ATOM     54   N  NAG B   4      15.057  30.603  23.2460  0.00  0.00     0.000 N
ATOM     56  HD  NAG B   4      14.467  29.972  23.2990  0.00  0.00     0.000 HD
ATOM     56   C  NAG B   4      12.996  31.723  23.8660  0.00  0.00     0.000 C
ATOM     57   O  NAG B   4      14.909  32.869  23.1390  0.00  0.00     0.000 OA
ATOM     58   C  NAG B   4      14.410  31.778  23.3760  0.00  0.00     0.000 C
ENDBRANCH 49 56
ATOM     59   O  NAG B   4      17.884  25.411  21.6730  0.00  0.00     0.000 O
ATOM     61  HD  NAG B   4      17.905  26.216  21.9910  0.00  0.00     0.000 HD
ATOM     61   O  NAG B   4      17.884  25.411  21.6730  0.00  0.00     0.000 O
ATOM     63  HD  NAG B   4      17.905  26.216  21.9910  0.00  0.00     0.000 HD
ENDBRANCH 47 50
ENDBRANCH 34 47
ENDBRANCH 33 37
ENDBRANCH 17 33
ENDBRANCH 16 19
ENDBRANCH 1 16
TORSDOF 10
ENDMDL
MODEL 51
REMARK VINA RESULT:      -5.5     13.408     16.447
ROOT
ATOM      1  C1  GCU B   1      18.717  33.297  18.8800  0.00  0.00     0.000 C
ATOM      2  C2  GCU B   1      19.741  33.036  17.7860  0.00  0.00     0.000 C
ATOM      3  C3  GCU B   1      20.075  34.325  17.0520  0.00  0.00     0.000 C
ATOM      4  C4  GCU B   1      18.799  35.015  16.5940  0.00  0.00     0.000 C
ATOM      5  C5  GCU B   1      17.814  35.174  17.7540  0.00  0.00     0.000 C
ATOM      6  O5  GCU B   1      17.534  33.884  18.3130  0.00  0.00     0.000 O
ATOM      7   O  GCU B   1      20.903  32.491  18.4020  0.00  0.00     0.000 O
ATOM      9  HD  GCU B   1      21.308  31.760  18.1720  0.00  0.00     0.000 HD
ATOM      9   O  GCU B   1      20.912  34.061  15.9230  0.00  0.00     0.000 O
ATOM     11  HD  GCU B   1      21.317  33.330  15.6940  0.00  0.00     0.000 HD
ATOM     11   O  GCU B   1      19.132  36.299  16.0640  0.00  0.00     0.000 O
ATOM     13  HD  GCU B   1      19.537  35.568  15.8350  0.00  0.00     0.000 HD
ENDROOT
BRANCH 5 13
ATOM     13   C  GCU B   1      16.564  35.874  17.2740  0.00  0.00     0.000 C
ATOM     14   O  GCU B   1      16.407  36.124  16.0610  0.00  0.00     0.000 OA
ATOM     15   O  GCU B   1      15.702  36.157  18.1270  0.00  0.00     0.000 OA
ENDBRANCH 5 13
BRANCH 1 16
ATOM     16  O3  NAG B   2      17.846  32.430  19.4030  0.00  0.00     0.000 O
BRANCH 16 19
ATOM     17  C1  NAG B   2      17.447  31.082  22.9030  0.00  0.00     0.000 C
ATOM     18  C2  NAG B   2      18.155  31.397  21.5910  0.00  0.00     0.000 C
ATOM     19  C3  NAG B   2      17.271  32.276  20.7090  0.00  0.00     0.000 C
ATOM     20  C4  NAG B   2      15.887  31.647  20.5480  0.00  0.00     0.000 C
ATOM     21  C5  NAG B   2      15.278  31.383  21.9170  0.00  0.00     0.000 C
ATOM     22  O5  NAG B   2      16.152  30.510  22.6550  0.00  0.00     0.000 O
ATOM     23   O  NAG B   2      15.072  32.541  19.7810  0.00  0.00     0.000 O
ATOM     25  HD  NAG B   2      15.293  31.791  19.4090  0.00  0.00     0.000 HD
ATOM     25   C  NAG B   2      13.883  30.767  21.8340  0.00  0.00     0.000 C
ATOM     26   O  NAG B   2      13.933  29.393  21.4220  0.00  0.00     0.000 O
ATOM     28  HD  NAG B   2      14.155  28.642  21.0500  0.00  0.00     0.000 HD
BRANCH 18 30
ATOM     28   N  NAG B   2      19.426  31.782  22.1760  0.00  0.00     0.000 N
ATOM     30  HD  NAG B   2      19.659  31.376  21.4470  0.00  0.00     0.000 HD
ATOM     30   C  NAG B   2      20.615  31.413  21.6850  0.00  0.00     0.000 C
ATOM     31   C  NAG B   2      21.844  31.855  22.4290  0.00  0.00     0.000 C
ATOM     32   O  NAG B   2      20.712  30.743  20.6760  0.00  0.00     0.000 OA
ENDBRANCH 18 30
BRANCH 17 33
ATOM     33  O4  GCU B   3      18.314  30.224  23.6710  0.00  0.00     0.000 O
BRANCH 33 37
ATOM     34  C1  GCU B   3      18.358  29.424  27.7570  0.00  0.00     0.000 C
ATOM     35  C2  GCU B   3      17.569  28.474  26.8560  0.00  0.00     0.000 C
ATOM     36  C3  GCU B   3      18.006  28.657  25.4180  0.00  0.00     0.000 C
ATOM     37  C4  GCU B   3      17.866  30.121  25.0240  0.00  0.00     0.000 C
ATOM     38  C5  GCU B   3      18.688  30.991  25.9760  0.00  0.00     0.000 C
ATOM     39  O5  GCU B   3      18.220  30.776  27.3110  0.00  0.00     0.000 O
ATOM     40   O  GCU B   3      17.808  27.129  27.2780  0.00  0.00     0.000 O
ATOM     42  HD  GCU B   3      18.032  26.348  26.9790  0.00  0.00     0.000 HD
ATOM     42   O  GCU B   3      17.232  27.829  24.5320  0.00  0.00     0.000 O
ATOM     44  HD  GCU B   3      17.455  27.048  24.2330  0.00  0.00     0.000 HD
BRANCH 38 44
ATOM     44   C  GCU B   3      18.578  32.462  25.6610  0.00  0.00     0.000 C
ATOM     45   O  GCU B   3      17.534  33.058  25.9700  0.00  0.00     0.000 OA
ATOM     46   O  GCU B   3      19.526  33.049  25.1060  0.00  0.00     0.000 OA
ENDBRANCH 38 44
BRANCH 34 47
ATOM     47  O3  NAG B   4      17.826  29.402  28.9710  0.00  0.00     0.000 O
BRANCH 47 50
ATOM     48  C1  NAG B   4      14.928  30.052  31.1920  0.00  0.00     0.000 C
ATOM     49  C2  NAG B   4      16.002  30.344  30.1490  0.00  0.00     0.000 C
ATOM     50  C3  NAG B   4      16.575  29.063  29.5650  0.00  0.00     0.000 C
ATOM     51  C4  NAG B   4      16.787  27.953  30.6010  0.00  0.00     0.000 C
ATOM     52  C5  NAG B   4      15.481  27.575  31.2790  0.00  0.00     0.000 C
ATOM     53  O5  NAG B   4      14.647  28.704  31.6220  0.00  0.00     0.000 O
BRANCH 49 56
ATOM     54   N  NAG B   4      15.160  30.661  28.9820  0.00  0.00     0.000 N
ATOM     56  HD  NAG B   4      14.758  30.083  28.4770  0.00  0.00     0.000 HD
ATOM     56   C  NAG B   4      14.052  31.985  27.2760  0.00  0.00     0.000 C
ATOM     57   O  NAG B   4      15.670  32.861  28.7300  0.00  0.00     0.000 OA
ATOM     58   C  NAG B   4      15.041  31.868  28.3950  0.00  0.00     0.000 C
ENDBRANCH 49 56
ATOM     59   O  NAG B   4      14.622  26.042  33.0130  0.00  0.00     0.000 O
ATOM     61  HD  NAG B   4      14.931  26.823  32.8020  0.00  0.00     0.000 HD
ATOM     61   O  NAG B   4      14.622  26.042  33.0130  0.00  0.00     0.000 O
ATOM     63  HD  NAG B   4      14.931  26.823  32.8020  0.00  0.00     0.000 HD
ENDBRANCH 47 50
ENDBRANCH 34 47
ENDBRANCH 33 37
ENDBRANCH 17 33
ENDBRANCH 16 19
ENDBRANCH 1 16
TORSDOF 10
ENDMDL
MODEL 52
REMARK VINA RESULT:      -5.5     13.261     15.817
ROOT
ATOM      1  C1  GCU B   1      22.028  35.322  15.9610  0.00  0.00     0.000 C
ATOM      2  C2  GCU B   1      23.067  34.503  15.2100  0.00  0.00     0.000 C
ATOM      3  C3  GCU B   1      24.312  35.335  14.9480  0.00  0.00     0.000 C
ATOM      4  C4  GCU B   1      23.933  36.656  14.2950  0.00  0.00     0.000 C
ATOM      5  C5  GCU B   1      22.841  37.370  15.0940  0.00  0.00     0.000 C
ATOM      6  O5  GCU B   1      21.704  36.505  15.2130  0.00  0.00     0.000 O
ATOM      7   O  GCU B   1      23.380  33.365  16.0080  0.00  0.00     0.000 O
ATOM      9  HD  GCU B   1      23.365  32.539  15.7480  0.00  0.00     0.000 HD
ATOM      9   O  GCU B   1      25.225  34.625  14.1070  0.00  0.00     0.000 O
ATOM     11  HD  GCU B   1      25.210  33.799  13.8470  0.00  0.00     0.000 HD
ATOM     11   O  GCU B   1      25.095  37.483  14.2190  0.00  0.00     0.000 O
ATOM     13  HD  GCU B   1      25.080  36.657  13.9590  0.00  0.00     0.000 HD
ENDROOT
BRANCH 5 13
ATOM     13   C  GCU B   1      22.496  38.683  14.4320  0.00  0.00     0.000 C
ATOM     14   O  GCU B   1      22.263  39.696  15.1220  0.00  0.00     0.000 OA
ATOM     15   O  GCU B   1      22.482  38.711  13.1860  0.00  0.00     0.000 OA
ENDBRANCH 5 13
BRANCH 1 16
ATOM     16  O3  NAG B   2      20.704  35.151  15.9640  0.00  0.00     0.000 O
BRANCH 16 19
ATOM     17  C1  NAG B   2      18.206  33.941  18.5170  0.00  0.00     0.000 C
ATOM     18  C2  NAG B   2      19.402  33.864  17.5770  0.00  0.00     0.000 C
ATOM     19  C3  NAG B   2      19.700  35.241  16.9860  0.00  0.00     0.000 C
ATOM     20  C4  NAG B   2      18.438  35.836  16.3610  0.00  0.00     0.000 C
ATOM     21  C5  NAG B   2      17.317  35.866  17.3900  0.00  0.00     0.000 C
ATOM     22  O5  NAG B   2      17.074  34.525  17.8520  0.00  0.00     0.000 O
ATOM     23   O  NAG B   2      18.746  37.154  15.8910  0.00  0.00     0.000 O
ATOM     25  HD  NAG B   2      18.579  36.550  15.2930  0.00  0.00     0.000 HD
ATOM     25   C  NAG B   2      16.025  36.465  16.8390  0.00  0.00     0.000 C
ATOM     26   O  NAG B   2      15.371  35.569  15.9280  0.00  0.00     0.000 O
ATOM     28  HD  NAG B   2      15.204  34.965  15.3300  0.00  0.00     0.000 HD
BRANCH 18 30
ATOM     28   N  NAG B   2      19.839  32.482  17.6230  0.00  0.00     0.000 N
ATOM     30  HD  NAG B   2      20.480  32.905  18.0230  0.00  0.00     0.000 HD
ATOM     30   C  NAG B   2      21.038  32.093  18.0740  0.00  0.00     0.000 C
ATOM     31   C  NAG B   2      21.363  30.627  18.0160  0.00  0.00     0.000 C
ATOM     32   O  NAG B   2      21.845  32.887  18.5150  0.00  0.00     0.000 OA
ENDBRANCH 18 30
BRANCH 17 33
ATOM     33  O4  GCU B   3      17.954  32.610  19.0120  0.00  0.00     0.000 O
BRANCH 33 37
ATOM     34  C1  GCU B   3      16.324  31.292  22.6090  0.00  0.00     0.000 C
ATOM     35  C2  GCU B   3      15.384  31.965  21.6080  0.00  0.00     0.000 C
ATOM     36  C3  GCU B   3      16.030  31.983  20.2390  0.00  0.00     0.000 C
ATOM     37  C4  GCU B   3      17.396  32.647  20.3270  0.00  0.00     0.000 C
ATOM     38  C5  GCU B   3      18.264  31.907  21.3460  0.00  0.00     0.000 C
ATOM     39  O5  GCU B   3      17.602  31.935  22.6140  0.00  0.00     0.000 O
ATOM     40   O  GCU B   3      14.155  31.237  21.5650  0.00  0.00     0.000 O
ATOM     42  HD  GCU B   3      13.592  30.875  21.0150  0.00  0.00     0.000 HD
ATOM     42   O  GCU B   3      15.203  32.675  19.2860  0.00  0.00     0.000 O
ATOM     44  HD  GCU B   3      14.641  32.312  18.7360  0.00  0.00     0.000 HD
BRANCH 38 44
ATOM     44   C  GCU B   3      19.630  32.526  21.5060  0.00  0.00     0.000 C
ATOM     45   O  GCU B   3      20.623  31.782  21.5100  0.00  0.00     0.000 OA
ATOM     46   O  GCU B   3      19.738  33.762  21.6270  0.00  0.00     0.000 OA
ENDBRANCH 38 44
BRANCH 34 47
ATOM     47  O3  NAG B   4      15.842  31.466  23.8310  0.00  0.00     0.000 O
BRANCH 47 50
ATOM     48  C1  NAG B   4      15.670  33.281  27.0610  0.00  0.00     0.000 C
ATOM     49  C2  NAG B   4      16.293  32.483  25.9200  0.00  0.00     0.000 C
ATOM     50  C3  NAG B   4      15.447  32.558  24.6600  0.00  0.00     0.000 C
ATOM     51  C4  NAG B   4      13.939  32.476  24.9240  0.00  0.00     0.000 C
ATOM     52  C5  NAG B   4      13.475  33.608  25.8260  0.00  0.00     0.000 C
ATOM     53  O5  NAG B   4      14.366  33.885  26.9300  0.00  0.00     0.000 O
BRANCH 49 56
ATOM     54   N  NAG B   4      17.311  33.465  25.5070  0.00  0.00     0.000 N
ATOM     56  HD  NAG B   4      17.153  34.229  25.1310  0.00  0.00     0.000 HD
ATOM     56   C  NAG B   4      19.502  34.429  25.1030  0.00  0.00     0.000 C
ATOM     57   O  NAG B   4      19.180  32.188  25.7140  0.00  0.00     0.000 OA
ATOM     58   C  NAG B   4      18.642  33.256  25.4630  0.00  0.00     0.000 C
ENDBRANCH 49 56
ATOM     59   O  NAG B   4      11.418  34.457  26.8940  0.00  0.00     0.000 O
ATOM     61  HD  NAG B   4      12.129  33.966  26.9420  0.00  0.00     0.000 HD
ATOM     61   O  NAG B   4      11.418  34.457  26.8940  0.00  0.00     0.000 O
ATOM     63  HD  NAG B   4      12.129  33.966  26.9420  0.00  0.00     0.000 HD
ENDBRANCH 47 50
ENDBRANCH 34 47
ENDBRANCH 33 37
ENDBRANCH 17 33
ENDBRANCH 16 19
ENDBRANCH 1 16
TORSDOF 10
ENDMDL
MODEL 53
REMARK VINA RESULT:      -5.5     22.632     26.516
ROOT
ATOM      1  C1  GCU B   1      15.444  20.562  36.6360  0.00  0.00     0.000 C
ATOM      2  C2  GCU B   1      16.516  21.628  36.8060  0.00  0.00     0.000 C
ATOM      3  C3  GCU B   1      16.681  22.426  35.5220  0.00  0.00     0.000 C
ATOM      4  C4  GCU B   1      16.881  21.487  34.3420  0.00  0.00     0.000 C
ATOM      5  C5  GCU B   1      15.788  20.419  34.2970  0.00  0.00     0.000 C
ATOM      6  O5  GCU B   1      15.782  19.700  35.5380  0.00  0.00     0.000 O
ATOM      7   O  GCU B   1      16.117  22.475  37.8790  0.00  0.00     0.000 O
ATOM      9  HD  GCU B   1      16.596  22.686  38.5690  0.00  0.00     0.000 HD
ATOM      9   O  GCU B   1      17.792  23.320  35.6240  0.00  0.00     0.000 O
ATOM     11  HD  GCU B   1      18.271  23.531  36.3130  0.00  0.00     0.000 HD
ATOM     11   O  GCU B   1      16.861  22.251  33.1360  0.00  0.00     0.000 O
ATOM     13  HD  GCU B   1      17.340  22.463  33.8260  0.00  0.00     0.000 HD
ENDROOT
BRANCH 5 13
ATOM     13   C  GCU B   1      16.005  19.512  33.1100  0.00  0.00     0.000 C
ATOM     14   O  GCU B   1      17.091  19.525  32.4960  0.00  0.00     0.000 OA
ATOM     15   O  GCU B   1      15.074  18.744  32.7970  0.00  0.00     0.000 OA
ENDBRANCH 5 13
BRANCH 1 16
ATOM     16  O3  NAG B   2      15.330  19.410  37.3010  0.00  0.00     0.000 O
BRANCH 16 19
ATOM     17  C1  NAG B   2      12.140  17.578  38.1360  0.00  0.00     0.000 C
ATOM     18  C2  NAG B   2      13.081  18.768  37.9970  0.00  0.00     0.000 C
ATOM     19  C3  NAG B   2      14.363  18.349  37.2780  0.00  0.00     0.000 C
ATOM     20  C4  NAG B   2      14.980  17.128  37.9600  0.00  0.00     0.000 C
ATOM     21  C5  NAG B   2      13.954  16.007  38.0380  0.00  0.00     0.000 C
ATOM     22  O5  NAG B   2      12.808  16.475  38.7710  0.00  0.00     0.000 O
ATOM     23   O  NAG B   2      16.131  16.726  37.2090  0.00  0.00     0.000 O
ATOM     25  HD  NAG B   2      16.269  17.053  37.9990  0.00  0.00     0.000 HD
ATOM     25   C  NAG B   2      14.507  14.745  38.6950  0.00  0.00     0.000 C
ATOM     26   O  NAG B   2      14.661  14.909  40.1140  0.00  0.00     0.000 O
ATOM     28  HD  NAG B   2      14.799  15.235  40.9040  0.00  0.00     0.000 HD
BRANCH 18 30
ATOM     28   N  NAG B   2      12.419  19.911  38.5950  0.00  0.00     0.000 N
ATOM     30  HD  NAG B   2      12.369  20.076  37.7470  0.00  0.00     0.000 HD
ATOM     30   C  NAG B   2      12.000  20.978  37.9030  0.00  0.00     0.000 C
ATOM     31   C  NAG B   2      11.370  22.105  38.6730  0.00  0.00     0.000 C
ATOM     32   O  NAG B   2      12.121  21.046  36.6970  0.00  0.00     0.000 OA
ENDBRANCH 18 30
BRANCH 17 33
ATOM     33  O4  GCU B   3      10.971  18.027  38.8500  0.00  0.00     0.000 O
BRANCH 33 37
ATOM     34  C1  GCU B   3       6.996  16.810  38.6300  0.00  0.00     0.000 C
ATOM     35  C2  GCU B   3       8.002  15.840  39.2500  0.00  0.00     0.000 C
ATOM     36  C3  GCU B   3       9.261  16.590  39.6310  0.00  0.00     0.000 C
ATOM     37  C4  GCU B   3       9.804  17.328  38.4160  0.00  0.00     0.000 C
ATOM     38  C5  GCU B   3       8.733  18.273  37.8670  0.00  0.00     0.000 C
ATOM     39  O5  GCU B   3       7.578  17.501  37.5210  0.00  0.00     0.000 O
ATOM     40   O  GCU B   3       7.415  15.241  40.4080  0.00  0.00     0.000 O
ATOM     42  HD  GCU B   3       7.567  15.073  41.2430  0.00  0.00     0.000 HD
ATOM     42   O  GCU B   3      10.260  15.695  40.1530  0.00  0.00     0.000 O
ATOM     44  HD  GCU B   3      10.412  15.526  40.9890  0.00  0.00     0.000 HD
BRANCH 38 44
ATOM     44   C  GCU B   3       9.191  19.023  36.6420  0.00  0.00     0.000 C
ATOM     45   O  GCU B   3       8.870  20.215  36.5210  0.00  0.00     0.000 OA
ATOM     46   O  GCU B   3       9.881  18.441  35.7830  0.00  0.00     0.000 OA
ENDBRANCH 38 44
BRANCH 34 47
ATOM     47  O3  NAG B   4       5.992  16.113  38.1160  0.00  0.00     0.000 O
BRANCH 47 50
ATOM     48  C1  NAG B   4       5.222  13.324  35.7960  0.00  0.00     0.000 C
ATOM     49  C2  NAG B   4       5.924  14.572  36.3210  0.00  0.00     0.000 C
ATOM     50  C3  NAG B   4       5.704  14.749  37.8150  0.00  0.00     0.000 C
ATOM     51  C4  NAG B   4       4.280  14.416  38.2730  0.00  0.00     0.000 C
ATOM     52  C5  NAG B   4       3.919  12.975  37.9480  0.00  0.00     0.000 C
ATOM     53  O5  NAG B   4       4.356  12.538  36.6420  0.00  0.00     0.000 O
BRANCH 49 56
ATOM     54   N  NAG B   4       7.288  14.020  36.4030  0.00  0.00     0.000 N
ATOM     56  HD  NAG B   4       7.551  13.399  36.9460  0.00  0.00     0.000 HD
ATOM     56   C  NAG B   4       9.654  13.740  35.9380  0.00  0.00     0.000 C
ATOM     57   O  NAG B   4       8.393  15.545  35.1300  0.00  0.00     0.000 OA
ATOM     58   C  NAG B   4       8.383  14.519  35.7950  0.00  0.00     0.000 C
ENDBRANCH 49 56
ATOM     59   O  NAG B   4       2.029  11.402  38.1650  0.00  0.00     0.000 O
ATOM     61  HD  NAG B   4       2.456  11.987  37.6890  0.00  0.00     0.000 HD
ATOM     61   O  NAG B   4       2.029  11.402  38.1650  0.00  0.00     0.000 O
ATOM     63  HD  NAG B   4       2.456  11.987  37.6890  0.00  0.00     0.000 HD
ENDBRANCH 47 50
ENDBRANCH 34 47
ENDBRANCH 33 37
ENDBRANCH 17 33
ENDBRANCH 16 19
ENDBRANCH 1 16
TORSDOF 10
ENDMDL
MODEL 54
REMARK VINA RESULT:      -5.5     13.155     15.120
ROOT
ATOM      1  C1  GCU B   1      23.071  35.887  15.3420  0.00  0.00     0.000 C
ATOM      2  C2  GCU B   1      24.007  35.205  14.3560  0.00  0.00     0.000 C
ATOM      3  C3  GCU B   1      25.235  36.067  14.1050  0.00  0.00     0.000 C
ATOM      4  C4  GCU B   1      24.816  37.480  13.7300  0.00  0.00     0.000 C
ATOM      5  C5  GCU B   1      23.830  38.051  14.7500  0.00  0.00     0.000 C
ATOM      6  O5  GCU B   1      22.694  37.180  14.8440  0.00  0.00     0.000 O
ATOM      7   O  GCU B   1      24.380  33.947  14.9120  0.00  0.00     0.000 O
ATOM      9  HD  GCU B   1      24.320  33.178  14.5190  0.00  0.00     0.000 HD
ATOM      9   O  GCU B   1      26.038  35.508  13.0630  0.00  0.00     0.000 O
ATOM     11  HD  GCU B   1      25.979  34.738  12.6700  0.00  0.00     0.000 HD
ATOM     11   O  GCU B   1      25.980  38.306  13.6680  0.00  0.00     0.000 O
ATOM     13  HD  GCU B   1      25.920  37.536  13.2760  0.00  0.00     0.000 HD
ENDROOT
BRANCH 5 13
ATOM     13   C  GCU B   1      23.443  39.457  14.3610  0.00  0.00     0.000 C
ATOM     14   O  GCU B   1      24.111  40.431  14.7660  0.00  0.00     0.000 OA
ATOM     15   O  GCU B   1      22.461  39.594  13.6060  0.00  0.00     0.000 OA
ENDBRANCH 5 13
BRANCH 1 16
ATOM     16  O3  NAG B   2      21.752  35.720  15.4590  0.00  0.00     0.000 O
BRANCH 16 19
ATOM     17  C1  NAG B   2      19.629  34.139  18.1460  0.00  0.00     0.000 C
ATOM     18  C2  NAG B   2      20.718  34.222  17.0840  0.00  0.00     0.000 C
ATOM     19  C3  NAG B   2      20.861  35.658  16.5840  0.00  0.00     0.000 C
ATOM     20  C4  NAG B   2      19.504  36.207  16.1450  0.00  0.00     0.000 C
ATOM     21  C5  NAG B   2      18.502  36.075  17.2840  0.00  0.00     0.000 C
ATOM     22  O5  NAG B   2      18.397  34.689  17.6530  0.00  0.00     0.000 O
ATOM     23   O  NAG B   2      19.673  37.575  15.7590  0.00  0.00     0.000 O
ATOM     25  HD  NAG B   2      19.481  37.009  15.1330  0.00  0.00     0.000 HD
ATOM     25   C  NAG B   2      17.122  36.620  16.9220  0.00  0.00     0.000 C
ATOM     26   O  NAG B   2      16.431  35.751  16.0100  0.00  0.00     0.000 O
ATOM     28  HD  NAG B   2      16.239  35.185  15.3840  0.00  0.00     0.000 HD
BRANCH 18 30
ATOM     28   N  NAG B   2      21.769  33.520  17.7950  0.00  0.00     0.000 N
ATOM     30  HD  NAG B   2      21.837  33.212  16.9880  0.00  0.00     0.000 HD
ATOM     30   C  NAG B   2      22.509  32.542  17.2580  0.00  0.00     0.000 C
ATOM     31   C  NAG B   2      23.532  31.878  18.1370  0.00  0.00     0.000 C
ATOM     32   O  NAG B   2      22.367  32.192  16.1030  0.00  0.00     0.000 OA
ENDBRANCH 18 30
BRANCH 17 33
ATOM     33  O4  GCU B   3      19.519  32.759  18.5490  0.00  0.00     0.000 O
BRANCH 33 37
ATOM     34  C1  GCU B   3      18.072  31.079  22.0730  0.00  0.00     0.000 C
ATOM     35  C2  GCU B   3      17.073  31.329  20.9440  0.00  0.00     0.000 C
ATOM     36  C3  GCU B   3      17.819  31.526  19.6410  0.00  0.00     0.000 C
ATOM     37  C4  GCU B   3      18.841  32.642  19.8020  0.00  0.00     0.000 C
ATOM     38  C5  GCU B   3      19.796  32.305  20.9480  0.00  0.00     0.000 C
ATOM     39  O5  GCU B   3      19.029  32.140  22.1460  0.00  0.00     0.000 O
ATOM     40   O  GCU B   3      16.195  30.205  20.8450  0.00  0.00     0.000 O
ATOM     42  HD  GCU B   3      15.863  29.644  20.2760  0.00  0.00     0.000 HD
ATOM     42   O  GCU B   3      16.912  31.836  18.5670  0.00  0.00     0.000 O
ATOM     44  HD  GCU B   3      16.580  31.275  17.9980  0.00  0.00     0.000 HD
BRANCH 38 44
ATOM     44   C  GCU B   3      20.826  33.381  21.1840  0.00  0.00     0.000 C
ATOM     45   O  GCU B   3      22.004  33.154  20.8700  0.00  0.00     0.000 OA
ATOM     46   O  GCU B   3      20.479  34.469  21.6820  0.00  0.00     0.000 OA
ENDBRANCH 38 44
BRANCH 34 47
ATOM     47  O3  NAG B   4      17.427  31.114  23.2310  0.00  0.00     0.000 O
BRANCH 47 50
ATOM     48  C1  NAG B   4      15.762  30.194  26.4140  0.00  0.00     0.000 C
ATOM     49  C2  NAG B   4      16.019  30.972  25.1280  0.00  0.00     0.000 C
ATOM     50  C3  NAG B   4      16.881  30.179  24.1590  0.00  0.00     0.000 C
ATOM     51  C4  NAG B   4      18.021  29.408  24.8350  0.00  0.00     0.000 C
ATOM     52  C5  NAG B   4      17.486  28.415  25.8540  0.00  0.00     0.000 C
ATOM     53  O5  NAG B   4      16.407  28.928  26.6670  0.00  0.00     0.000 O
BRANCH 49 56
ATOM     54   N  NAG B   4      14.654  30.742  24.6240  0.00  0.00     0.000 N
ATOM     56  HD  NAG B   4      14.201  30.009  24.7080  0.00  0.00     0.000 HD
ATOM     56   C  NAG B   4      12.556  31.167  23.4790  0.00  0.00     0.000 C
ATOM     57   O  NAG B   4      14.428  32.567  23.2890  0.00  0.00     0.000 OA
ATOM     58   C  NAG B   4      13.972  31.549  23.7870  0.00  0.00     0.000 C
ENDBRANCH 49 56
ATOM     59   O  NAG B   4      18.302  26.742  27.4750  0.00  0.00     0.000 O
ATOM     61  HD  NAG B   4      18.054  27.555  27.3110  0.00  0.00     0.000 HD
ATOM     61   O  NAG B   4      18.302  26.742  27.4750  0.00  0.00     0.000 O
ATOM     63  HD  NAG B   4      18.054  27.555  27.3110  0.00  0.00     0.000 HD
ENDBRANCH 47 50
ENDBRANCH 34 47
ENDBRANCH 33 37
ENDBRANCH 17 33
ENDBRANCH 16 19
ENDBRANCH 1 16
TORSDOF 10
ENDMDL
MODEL 55
REMARK VINA RESULT:      -5.5     20.972     27.906
ROOT
ATOM      1  C1  GCU B   1      23.598  44.135   9.1730  0.00  0.00     0.000 C
ATOM      2  C2  GCU B   1      25.047  44.595   9.2140  0.00  0.00     0.000 C
ATOM      3  C3  GCU B   1      25.966  43.510   8.6740  0.00  0.00     0.000 C
ATOM      4  C4  GCU B   1      25.685  42.189   9.3730  0.00  0.00     0.000 C
ATOM      5  C5  GCU B   1      24.195  41.848   9.3280  0.00  0.00     0.000 C
ATOM      6  O5  GCU B   1      23.450  42.919   9.9230  0.00  0.00     0.000 O
ATOM      7   O  GCU B   1      25.147  45.779   8.4280  0.00  0.00     0.000 O
ATOM      9  HD  GCU B   1      25.491  46.532   8.6810  0.00  0.00     0.000 HD
ATOM      9   O  GCU B   1      27.336  43.873   8.8580  0.00  0.00     0.000 O
ATOM     11  HD  GCU B   1      27.680  44.627   9.1110  0.00  0.00     0.000 HD
ATOM     11   O  GCU B   1      26.437  41.158   8.7300  0.00  0.00     0.000 O
ATOM     13  HD  GCU B   1      26.781  41.912   8.9830  0.00  0.00     0.000 HD
ENDROOT
BRANCH 5 13
ATOM     13   C  GCU B   1      23.949  40.527  10.0150  0.00  0.00     0.000 C
ATOM     14   O  GCU B   1      24.820  40.029  10.7580  0.00  0.00     0.000 OA
ATOM     15   O  GCU B   1      22.843  39.981   9.8320  0.00  0.00     0.000 OA
ENDBRANCH 5 13
BRANCH 1 16
ATOM     16  O3  NAG B   2      22.590  44.549   9.9440  0.00  0.00     0.000 O
BRANCH 16 19
ATOM     17  C1  NAG B   2      19.431  46.524   9.3560  0.00  0.00     0.000 C
ATOM     18  C2  NAG B   2      20.930  46.258   9.4180  0.00  0.00     0.000 C
ATOM     19  C3  NAG B   2      21.194  44.780   9.7030  0.00  0.00     0.000 C
ATOM     20  C4  NAG B   2      20.417  44.330  10.9400  0.00  0.00     0.000 C
ATOM     21  C5  NAG B   2      18.938  44.642  10.7620  0.00  0.00     0.000 C
ATOM     22  O5  NAG B   2      18.783  46.056  10.5490  0.00  0.00     0.000 O
ATOM     23   O  NAG B   2      20.633  42.926  11.1220  0.00  0.00     0.000 O
ATOM     25  HD  NAG B   2      20.975  43.458  11.7130  0.00  0.00     0.000 HD
ATOM     25   C  NAG B   2      18.094  44.203  11.9570  0.00  0.00     0.000 C
ATOM     26   O  NAG B   2      18.295  45.061  13.0920  0.00  0.00     0.000 O
ATOM     28  HD  NAG B   2      18.638  45.593  13.6830  0.00  0.00     0.000 HD
BRANCH 18 30
ATOM     28   N  NAG B   2      21.561  47.535   9.1450  0.00  0.00     0.000 N
ATOM     30  HD  NAG B   2      21.744  47.069   8.4380  0.00  0.00     0.000 HD
ATOM     30   C  NAG B   2      22.339  47.771   8.0820  0.00  0.00     0.000 C
ATOM     31   C  NAG B   2      22.960  49.134   7.9610  0.00  0.00     0.000 C
ATOM     32   O  NAG B   2      22.546  46.921   7.2380  0.00  0.00     0.000 OA
ENDBRANCH 18 30
BRANCH 17 33
ATOM     33  O4  GCU B   3      19.249  47.935   9.1210  0.00  0.00     0.000 O
BRANCH 33 37
ATOM     34  C1  GCU B   3      16.326  49.998   6.9920  0.00  0.00     0.000 C
ATOM     35  C2  GCU B   3      15.947  49.450   8.3680  0.00  0.00     0.000 C
ATOM     36  C3  GCU B   3      17.204  49.126   9.1480  0.00  0.00     0.000 C
ATOM     37  C4  GCU B   3      18.078  48.179   8.3390  0.00  0.00     0.000 C
ATOM     38  C5  GCU B   3      18.407  48.811   6.9850  0.00  0.00     0.000 C
ATOM     39  O5  GCU B   3      17.180  49.083   6.3000  0.00  0.00     0.000 O
ATOM     40   O  GCU B   3      15.174  50.431   9.0610  0.00  0.00     0.000 O
ATOM     42  HD  GCU B   3      15.116  50.848   9.8180  0.00  0.00     0.000 HD
ATOM     42   O  GCU B   3      16.885  48.539  10.4220  0.00  0.00     0.000 O
ATOM     44  HD  GCU B   3      16.827  48.956  11.1790  0.00  0.00     0.000 HD
BRANCH 38 44
ATOM     44   C  GCU B   3      19.253  47.916   6.1150  0.00  0.00     0.000 C
ATOM     45   O  GCU B   3      20.119  48.435   5.3940  0.00  0.00     0.000 OA
ATOM     46   O  GCU B   3      19.073  46.684   6.1370  0.00  0.00     0.000 OA
ENDBRANCH 38 44
BRANCH 34 47
ATOM     47  O3  NAG B   4      15.232  50.082   6.2490  0.00  0.00     0.000 O
BRANCH 47 50
ATOM     48  C1  NAG B   4      15.066  53.287   4.3910  0.00  0.00     0.000 C
ATOM     49  C2  NAG B   4      15.631  51.946   4.8450  0.00  0.00     0.000 C
ATOM     50  C3  NAG B   4      14.558  51.073   5.4760  0.00  0.00     0.000 C
ATOM     51  C4  NAG B   4      13.585  51.845   6.3750  0.00  0.00     0.000 C
ATOM     52  C5  NAG B   4      12.860  52.932   5.5980  0.00  0.00     0.000 C
ATOM     53  O5  NAG B   4      13.706  53.668   4.6860  0.00  0.00     0.000 O
BRANCH 49 56
ATOM     54   N  NAG B   4      15.658  51.279   3.5320  0.00  0.00     0.000 N
ATOM     56  HD  NAG B   4      14.965  51.056   3.0640  0.00  0.00     0.000 HD
ATOM     56   C  NAG B   4      16.559  50.193   1.5570  0.00  0.00     0.000 C
ATOM     57   O  NAG B   4      17.849  50.678   3.4540  0.00  0.00     0.000 OA
ATOM     58   C  NAG B   4      16.741  50.735   2.9410  0.00  0.00     0.000 C
ENDBRANCH 49 56
ATOM     59   O  NAG B   4      11.189  54.714   5.9470  0.00  0.00     0.000 O
ATOM     61  HD  NAG B   4      12.020  54.473   5.9190  0.00  0.00     0.000 HD
ATOM     61   O  NAG B   4      11.189  54.714   5.9470  0.00  0.00     0.000 O
ATOM     63  HD  NAG B   4      12.020  54.473   5.9190  0.00  0.00     0.000 HD
ENDBRANCH 47 50
ENDBRANCH 34 47
ENDBRANCH 33 37
ENDBRANCH 17 33
ENDBRANCH 16 19
ENDBRANCH 1 16
TORSDOF 10
ENDMDL
MODEL 56
REMARK VINA RESULT:      -5.4     14.193     19.824
ROOT
ATOM      1  C1  GCU B   1      15.700  44.228  15.2460  0.00  0.00     0.000 C
ATOM      2  C2  GCU B   1      14.852  45.473  15.4580  0.00  0.00     0.000 C
ATOM      3  C3  GCU B   1      14.029  45.774  14.2160  0.00  0.00     0.000 C
ATOM      4  C4  GCU B   1      14.924  45.803  12.9860  0.00  0.00     0.000 C
ATOM      5  C5  GCU B   1      15.778  44.536  12.8990  0.00  0.00     0.000 C
ATOM      6  O5  GCU B   1      16.549  44.405  14.1000  0.00  0.00     0.000 O
ATOM      7   O  GCU B   1      14.006  45.233  16.5780  0.00  0.00     0.000 O
ATOM      9  HD  GCU B   1      13.920  45.744  17.2720  0.00  0.00     0.000 HD
ATOM      9   O  GCU B   1      13.353  47.027  14.3510  0.00  0.00     0.000 O
ATOM     11  HD  GCU B   1      13.267  47.538  15.0450  0.00  0.00     0.000 HD
ATOM     11   O  GCU B   1      14.106  45.916  11.8220  0.00  0.00     0.000 O
ATOM     13  HD  GCU B   1      14.020  46.426  12.5160  0.00  0.00     0.000 HD
ENDROOT
BRANCH 5 13
ATOM     13   C  GCU B   1      16.645  44.586  11.6630  0.00  0.00     0.000 C
ATOM     14   O  GCU B   1      16.981  43.532  11.0860  0.00  0.00     0.000 OA
ATOM     15   O  GCU B   1      16.978  45.710  11.2410  0.00  0.00     0.000 OA
ENDBRANCH 5 13
BRANCH 1 16
ATOM     16  O3  NAG B   2      16.847  43.912  15.8510  0.00  0.00     0.000 O
BRANCH 16 19
ATOM     17  C1  NAG B   2      17.560  40.915  18.0280  0.00  0.00     0.000 C
ATOM     18  C2  NAG B   2      16.795  42.128  17.5150  0.00  0.00     0.000 C
ATOM     19  C3  NAG B   2      17.446  42.667  16.2430  0.00  0.00     0.000 C
ATOM     20  C4  NAG B   2      18.938  42.909  16.4700  0.00  0.00     0.000 C
ATOM     21  C5  NAG B   2      19.596  41.632  16.9750  0.00  0.00     0.000 C
ATOM     22  O5  NAG B   2      18.952  41.229  18.1970  0.00  0.00     0.000 O
ATOM     23   O  NAG B   2      19.520  43.338  15.2340  0.00  0.00     0.000 O
ATOM     25  HD  NAG B   2      19.479  43.919  15.8740  0.00  0.00     0.000 HD
ATOM     25   C  NAG B   2      21.096  41.795  17.2110  0.00  0.00     0.000 C
ATOM     26   O  NAG B   2      21.368  42.579  18.3820  0.00  0.00     0.000 O
ATOM     28  HD  NAG B   2      21.327  43.161  19.0220  0.00  0.00     0.000 HD
BRANCH 18 30
ATOM     28   N  NAG B   2      15.446  41.595  17.4990  0.00  0.00     0.000 N
ATOM     30  HD  NAG B   2      15.347  42.372  17.8690  0.00  0.00     0.000 HD
ATOM     30   C  NAG B   2      14.399  42.195  18.0800  0.00  0.00     0.000 C
ATOM     31   C  NAG B   2      13.071  41.495  18.0170  0.00  0.00     0.000 C
ATOM     32   O  NAG B   2      14.507  43.265  18.6440  0.00  0.00     0.000 OA
ENDBRANCH 18 30
BRANCH 17 33
ATOM     33  O4  GCU B   3      16.921  40.478  19.2430  0.00  0.00     0.000 O
BRANCH 33 37
ATOM     34  C1  GCU B   3      16.719  36.680  20.9370  0.00  0.00     0.000 C
ATOM     35  C2  GCU B   3      17.815  37.622  21.4360  0.00  0.00     0.000 C
ATOM     36  C3  GCU B   3      17.478  39.045  21.0420  0.00  0.00     0.000 C
ATOM     37  C4  GCU B   3      17.254  39.120  19.5390  0.00  0.00     0.000 C
ATOM     38  C5  GCU B   3      16.142  38.149  19.1350  0.00  0.00     0.000 C
ATOM     39  O5  GCU B   3      16.527  36.828  19.5270  0.00  0.00     0.000 O
ATOM     40   O  GCU B   3      17.909  37.511  22.8570  0.00  0.00     0.000 O
ATOM     42  HD  GCU B   3      17.933  37.987  23.5810  0.00  0.00     0.000 HD
ATOM     42   O  GCU B   3      18.525  39.952  21.4330  0.00  0.00     0.000 O
ATOM     44  HD  GCU B   3      18.549  40.427  22.1570  0.00  0.00     0.000 HD
BRANCH 38 44
ATOM     44   C  GCU B   3      15.881  38.150  17.6500  0.00  0.00     0.000 C
ATOM     45   O  GCU B   3      14.825  38.651  17.2330  0.00  0.00     0.000 OA
ATOM     46   O  GCU B   3      16.721  37.657  16.8740  0.00  0.00     0.000 OA
ENDBRANCH 38 44
BRANCH 34 47
ATOM     47  O3  NAG B   4      17.123  35.429  21.1030  0.00  0.00     0.000 O
BRANCH 47 50
ATOM     48  C1  NAG B   4      16.819  32.452  23.2940  0.00  0.00     0.000 C
ATOM     49  C2  NAG B   4      16.963  33.924  22.9240  0.00  0.00     0.000 C
ATOM     50  C3  NAG B   4      16.548  34.179  21.4840  0.00  0.00     0.000 C
ATOM     51  C4  NAG B   4      17.006  33.090  20.5070  0.00  0.00     0.000 C
ATOM     52  C5  NAG B   4      16.437  31.733  20.8890  0.00  0.00     0.000 C
ATOM     53  O5  NAG B   4      16.465  31.460  22.3070  0.00  0.00     0.000 O
BRANCH 49 56
ATOM     54   N  NAG B   4      15.727  34.434  23.5440  0.00  0.00     0.000 N
ATOM     56  HD  NAG B   4      14.922  34.289  23.2610  0.00  0.00     0.000 HD
ATOM     56   C  NAG B   4      14.295  35.663  25.0700  0.00  0.00     0.000 C
ATOM     57   O  NAG B   4      16.622  35.947  24.9850  0.00  0.00     0.000 OA
ATOM     58   C  NAG B   4      15.655  35.362  24.5190  0.00  0.00     0.000 C
ENDBRANCH 49 56
ATOM     59   O  NAG B   4      16.483  29.382  20.1380  0.00  0.00     0.000 O
ATOM     61  HD  NAG B   4      16.812  30.006  20.6410  0.00  0.00     0.000 HD
ATOM     61   O  NAG B   4      16.483  29.382  20.1380  0.00  0.00     0.000 O
ATOM     63  HD  NAG B   4      16.812  30.006  20.6410  0.00  0.00     0.000 HD
ENDBRANCH 47 50
ENDBRANCH 34 47
ENDBRANCH 33 37
ENDBRANCH 17 33
ENDBRANCH 16 19
ENDBRANCH 1 16
TORSDOF 10
ENDMDL
MODEL 57
REMARK VINA RESULT:      -5.4     11.604     15.443
ROOT
ATOM      1  C1  GCU B   1      23.373  39.043  13.6970  0.00  0.00     0.000 C
ATOM      2  C2  GCU B   1      24.145  40.335  13.4760  0.00  0.00     0.000 C
ATOM      3  C3  GCU B   1      23.846  40.905  12.0980  0.00  0.00     0.000 C
ATOM      4  C4  GCU B   1      24.050  39.838  11.0330  0.00  0.00     0.000 C
ATOM      5  C5  GCU B   1      23.282  38.561  11.3800  0.00  0.00     0.000 C
ATOM      6  O5  GCU B   1      23.702  38.095  12.6690  0.00  0.00     0.000 O
ATOM      7   O  GCU B   1      23.756  41.251  14.4960  0.00  0.00     0.000 O
ATOM      9  HD  GCU B   1      24.289  41.685  15.0220  0.00  0.00     0.000 HD
ATOM      9   O  GCU B   1      24.686  42.028  11.8240  0.00  0.00     0.000 O
ATOM     11  HD  GCU B   1      25.219  42.463  12.3510  0.00  0.00     0.000 HD
ATOM     11   O  GCU B   1      23.599  40.347   9.7780  0.00  0.00     0.000 O
ATOM     13  HD  GCU B   1      24.132  40.781  10.3040  0.00  0.00     0.000 HD
ENDROOT
BRANCH 5 13
ATOM     13   C  GCU B   1      23.491  37.527  10.3000  0.00  0.00     0.000 C
ATOM     14   O  GCU B   1      24.101  36.467  10.5510  0.00  0.00     0.000 OA
ATOM     15   O  GCU B   1      23.010  37.765   9.1760  0.00  0.00     0.000 OA
ENDBRANCH 5 13
BRANCH 1 16
ATOM     16  O3  NAG B   2      23.691  38.035  14.5110  0.00  0.00     0.000 O
BRANCH 16 19
ATOM     17  C1  NAG B   2      21.576  35.927  16.8160  0.00  0.00     0.000 C
ATOM     18  C2  NAG B   2      22.169  37.200  16.2270  0.00  0.00     0.000 C
ATOM     19  C3  NAG B   2      22.979  36.876  14.9720  0.00  0.00     0.000 C
ATOM     20  C4  NAG B   2      23.999  35.777  15.2660  0.00  0.00     0.000 C
ATOM     21  C5  NAG B   2      23.293  34.559  15.8440  0.00  0.00     0.000 C
ATOM     22  O5  NAG B   2      22.602  34.947  17.0450  0.00  0.00     0.000 O
ATOM     23   O  NAG B   2      24.678  35.453  14.0470  0.00  0.00     0.000 O
ATOM     25  HD  NAG B   2      25.141  35.844  14.6660  0.00  0.00     0.000 HD
ATOM     25   C  NAG B   2      24.252  33.410  16.1490  0.00  0.00     0.000 C
ATOM     26   O  NAG B   2      25.056  33.683  17.3070  0.00  0.00     0.000 O
ATOM     28  HD  NAG B   2      25.520  34.073  17.9250  0.00  0.00     0.000 HD
BRANCH 18 30
ATOM     28   N  NAG B   2      20.950  37.944  16.4770  0.00  0.00     0.000 N
ATOM     30  HD  NAG B   2      21.548  38.566  16.4010  0.00  0.00     0.000 HD
ATOM     30   C  NAG B   2      20.910  39.269  16.6690  0.00  0.00     0.000 C
ATOM     31   C  NAG B   2      19.574  39.890  16.9630  0.00  0.00     0.000 C
ATOM     32   O  NAG B   2      21.911  39.954  16.6130  0.00  0.00     0.000 OA
ENDBRANCH 18 30
BRANCH 17 33
ATOM     33  O4  GCU B   3      20.858  36.293  18.0110  0.00  0.00     0.000 O
BRANCH 33 37
ATOM     34  C1  GCU B   3      17.649  34.386  19.8540  0.00  0.00     0.000 C
ATOM     35  C2  GCU B   3      19.042  34.158  20.4410  0.00  0.00     0.000 C
ATOM     36  C3  GCU B   3      19.986  35.229  19.9370  0.00  0.00     0.000 C
ATOM     37  C4  GCU B   3      19.967  35.252  18.4150  0.00  0.00     0.000 C
ATOM     38  C5  GCU B   3      18.538  35.487  17.9210  0.00  0.00     0.000 C
ATOM     39  O5  GCU B   3      17.704  34.439  18.4260  0.00  0.00     0.000 O
ATOM     40   O  GCU B   3      18.958  34.205  21.8670  0.00  0.00     0.000 O
ATOM     42  HD  GCU B   3      19.323  34.568  22.5630  0.00  0.00     0.000 HD
ATOM     42   O  GCU B   3      21.326  35.004  20.4120  0.00  0.00     0.000 O
ATOM     44  HD  GCU B   3      21.691  35.367  21.1080  0.00  0.00     0.000 HD
BRANCH 38 44
ATOM     44   C  GCU B   3      18.437  35.497  16.4170  0.00  0.00     0.000 C
ATOM     45   O  GCU B   3      18.715  34.459  15.7960  0.00  0.00     0.000 OA
ATOM     46   O  GCU B   3      18.076  36.534  15.8290  0.00  0.00     0.000 OA
ENDBRANCH 38 44
BRANCH 34 47
ATOM     47  O3  NAG B   4      16.891  33.335  20.1340  0.00  0.00     0.000 O
BRANCH 47 50
ATOM     48  C1  NAG B   4      17.293  29.690  20.6850  0.00  0.00     0.000 C
ATOM     49  C2  NAG B   4      16.912  31.132  21.0000  0.00  0.00     0.000 C
ATOM     50  C3  NAG B   4      16.799  31.968  19.7360  0.00  0.00     0.000 C
ATOM     51  C4  NAG B   4      17.884  31.666  18.6960  0.00  0.00     0.000 C
ATOM     52  C5  NAG B   4      17.841  30.211  18.2600  0.00  0.00     0.000 C
ATOM     53  O5  NAG B   4      17.627  29.278  19.3430  0.00  0.00     0.000 O
BRANCH 49 56
ATOM     54   N  NAG B   4      15.517  30.771  21.3050  0.00  0.00     0.000 N
ATOM     56  HD  NAG B   4      15.053  30.161  20.9010  0.00  0.00     0.000 HD
ATOM     56   C  NAG B   4      13.330  30.850  22.3550  0.00  0.00     0.000 C
ATOM     57   O  NAG B   4      14.960  32.507  22.6610  0.00  0.00     0.000 OA
ATOM     58   C  NAG B   4      14.679  31.453  22.1110  0.00  0.00     0.000 C
ENDBRANCH 49 56
ATOM     59   O  NAG B   4      19.021  28.648  16.7580  0.00  0.00     0.000 O
ATOM     61  HD  NAG B   4      18.933  28.993  17.5470  0.00  0.00     0.000 HD
ATOM     61   O  NAG B   4      19.021  28.648  16.7580  0.00  0.00     0.000 O
ATOM     63  HD  NAG B   4      18.933  28.993  17.5470  0.00  0.00     0.000 HD
ENDBRANCH 47 50
ENDBRANCH 34 47
ENDBRANCH 33 37
ENDBRANCH 17 33
ENDBRANCH 16 19
ENDBRANCH 1 16
TORSDOF 10
ENDMDL
MODEL 58
REMARK VINA RESULT:      -5.4     10.580     13.847
ROOT
ATOM      1  C1  GCU B   1      18.118  35.486  18.1570  0.00  0.00     0.000 C
ATOM      2  C2  GCU B   1      17.959  35.748  16.6680  0.00  0.00     0.000 C
ATOM      3  C3  GCU B   1      18.561  37.095  16.2980  0.00  0.00     0.000 C
ATOM      4  C4  GCU B   1      18.013  38.183  17.2090  0.00  0.00     0.000 C
ATOM      5  C5  GCU B   1      18.166  37.795  18.6810  0.00  0.00     0.000 C
ATOM      6  O5  GCU B   1      17.502  36.545  18.9080  0.00  0.00     0.000 O
ATOM      7   O  GCU B   1      18.616  34.694  15.9710  0.00  0.00     0.000 O
ATOM      9  HD  GCU B   1      18.272  34.202  15.3460  0.00  0.00     0.000 HD
ATOM      9   O  GCU B   1      18.275  37.417  14.9340  0.00  0.00     0.000 O
ATOM     11  HD  GCU B   1      17.931  36.926  14.3100  0.00  0.00     0.000 HD
ATOM     11   O  GCU B   1      18.720  39.397  16.9530  0.00  0.00     0.000 O
ATOM     13  HD  GCU B   1      18.376  38.906  16.3290  0.00  0.00     0.000 HD
ENDROOT
BRANCH 5 13
ATOM     13   C  GCU B   1      17.627  38.898  19.5610  0.00  0.00     0.000 C
ATOM     14   O  GCU B   1      18.066  39.052  20.7190  0.00  0.00     0.000 OA
ATOM     15   O  GCU B   1      16.762  39.650  19.0730  0.00  0.00     0.000 OA
ENDBRANCH 5 13
BRANCH 1 16
ATOM     16  O3  NAG B   2      17.359  34.707  18.9310  0.00  0.00     0.000 O
BRANCH 16 19
ATOM     17  C1  NAG B   2      18.144  31.442  20.6480  0.00  0.00     0.000 C
ATOM     18  C2  NAG B   2      18.029  32.429  19.4940  0.00  0.00     0.000 C
ATOM     19  C3  NAG B   2      17.648  33.813  20.0170  0.00  0.00     0.000 C
ATOM     20  C4  NAG B   2      16.405  33.724  20.9030  0.00  0.00     0.000 C
ATOM     21  C5  NAG B   2      16.638  32.714  22.0180  0.00  0.00     0.000 C
ATOM     22  O5  NAG B   2      16.941  31.435  21.4330  0.00  0.00     0.000 O
ATOM     23   O  NAG B   2      16.133  35.026  21.4310  0.00  0.00     0.000 O
ATOM     25  HD  NAG B   2      15.567  34.706  20.8590  0.00  0.00     0.000 HD
ATOM     25   C  NAG B   2      15.440  32.583  22.9560  0.00  0.00     0.000 C
ATOM     26   O  NAG B   2      14.355  31.876  22.3350  0.00  0.00     0.000 O
ATOM     28  HD  NAG B   2      13.789  31.556  21.7630  0.00  0.00     0.000 HD
BRANCH 18 30
ATOM     28   N  NAG B   2      19.289  32.126  18.8420  0.00  0.00     0.000 N
ATOM     30  HD  NAG B   2      18.743  32.230  18.1780  0.00  0.00     0.000 HD
ATOM     30   C  NAG B   2      19.420  31.935  17.5240  0.00  0.00     0.000 C
ATOM     31   C  NAG B   2      20.785  31.584  17.0030  0.00  0.00     0.000 C
ATOM     32   O  NAG B   2      18.476  32.037  16.7650  0.00  0.00     0.000 OA
ENDBRANCH 18 30
BRANCH 17 33
ATOM     33  O4  GCU B   3      18.469  30.153  20.0880  0.00  0.00     0.000 O
BRANCH 33 37
ATOM     34  C1  GCU B   3      19.383  26.529  21.9220  0.00  0.00     0.000 C
ATOM     35  C2  GCU B   3      17.910  26.932  21.8410  0.00  0.00     0.000 C
ATOM     36  C3  GCU B   3      17.738  28.017  20.8000  0.00  0.00     0.000 C
ATOM     37  C4  GCU B   3      18.666  29.181  21.1160  0.00  0.00     0.000 C
ATOM     38  C5  GCU B   3      20.112  28.685  21.1750  0.00  0.00     0.000 C
ATOM     39  O5  GCU B   3      20.206  27.671  22.1800  0.00  0.00     0.000 O
ATOM     40   O  GCU B   3      17.135  25.784  21.4900  0.00  0.00     0.000 O
ATOM     42  HD  GCU B   3      16.524  25.512  20.9400  0.00  0.00     0.000 HD
ATOM     42   O  GCU B   3      16.374  28.473  20.7470  0.00  0.00     0.000 O
ATOM     44  HD  GCU B   3      15.763  28.201  20.1960  0.00  0.00     0.000 HD
BRANCH 38 44
ATOM     44   C  GCU B   3      21.091  29.782  21.5100  0.00  0.00     0.000 C
ATOM     45   O  GCU B   3      21.413  29.949  22.6970  0.00  0.00     0.000 OA
ATOM     46   O  GCU B   3      21.557  30.494  20.6000  0.00  0.00     0.000 OA
ENDBRANCH 38 44
BRANCH 34 47
ATOM     47  O3  NAG B   4      19.552  25.736  22.9700  0.00  0.00     0.000 O
BRANCH 47 50
ATOM     48  C1  NAG B   4      22.202  23.413  24.1270  0.00  0.00     0.000 C
ATOM     49  C2  NAG B   4      21.283  24.630  24.1470  0.00  0.00     0.000 C
ATOM     50  C3  NAG B   4      20.083  24.438  23.2330  0.00  0.00     0.000 C
ATOM     51  C4  NAG B   4      20.422  23.749  21.9060  0.00  0.00     0.000 C
ATOM     52  C5  NAG B   4      21.017  22.369  22.1380  0.00  0.00     0.000 C
ATOM     53  O5  NAG B   4      21.972  22.314  23.2210  0.00  0.00     0.000 O
BRANCH 49 56
ATOM     54   N  NAG B   4      20.740  24.299  25.4760  0.00  0.00     0.000 N
ATOM     56  HD  NAG B   4      20.548  23.503  25.7600  0.00  0.00     0.000 HD
ATOM     56   C  NAG B   4      19.853  24.628  27.7110  0.00  0.00     0.000 C
ATOM     57   O  NAG B   4      20.183  26.383  26.1910  0.00  0.00     0.000 OA
ATOM     58   C  NAG B   4      20.269  25.179  26.3820  0.00  0.00     0.000 C
ENDBRANCH 49 56
ATOM     59   O  NAG B   4      21.911  20.455  20.8620  0.00  0.00     0.000 O
ATOM     61  HD  NAG B   4      22.056  21.198  21.2820  0.00  0.00     0.000 HD
ATOM     61   O  NAG B   4      21.911  20.455  20.8620  0.00  0.00     0.000 O
ATOM     63  HD  NAG B   4      22.056  21.198  21.2820  0.00  0.00     0.000 HD
ENDBRANCH 47 50
ENDBRANCH 34 47
ENDBRANCH 33 37
ENDBRANCH 17 33
ENDBRANCH 16 19
ENDBRANCH 1 16
TORSDOF 10
ENDMDL
MODEL 59
REMARK VINA RESULT:      -5.4     17.975     20.996
ROOT
ATOM      1  C1  GCU B   1      15.053  31.176  25.0870  0.00  0.00     0.000 C
ATOM      2  C2  GCU B   1      15.510  32.445  24.3850  0.00  0.00     0.000 C
ATOM      3  C3  GCU B   1      15.203  32.371  22.8980  0.00  0.00     0.000 C
ATOM      4  C4  GCU B   1      15.746  31.076  22.3130  0.00  0.00     0.000 C
ATOM      5  C5  GCU B   1      15.279  29.867  23.1260  0.00  0.00     0.000 C
ATOM      6  O5  GCU B   1      15.686  30.033  24.4900  0.00  0.00     0.000 O
ATOM      7   O  GCU B   1      14.828  33.541  24.9870  0.00  0.00     0.000 O
ATOM      9  HD  GCU B   1      15.194  34.259  25.3040  0.00  0.00     0.000 HD
ATOM      9   O  GCU B   1      15.771  33.488  22.2090  0.00  0.00     0.000 O
ATOM     11  HD  GCU B   1      16.137  34.206  22.5270  0.00  0.00     0.000 HD
ATOM     11   O  GCU B   1      15.296  30.954  20.9630  0.00  0.00     0.000 O
ATOM     13  HD  GCU B   1      15.663  31.672  21.2810  0.00  0.00     0.000 HD
ENDROOT
BRANCH 5 13
ATOM     13   C  GCU B   1      15.821  28.597  22.5150  0.00  0.00     0.000 C
ATOM     14   O  GCU B   1      17.017  28.526  22.1650  0.00  0.00     0.000 OA
ATOM     15   O  GCU B   1      15.039  27.633  22.4070  0.00  0.00     0.000 OA
ENDBRANCH 5 13
BRANCH 1 16
ATOM     16  O3  NAG B   2      15.532  30.655  26.2190  0.00  0.00     0.000 O
BRANCH 16 19
ATOM     17  C1  NAG B   2      13.892  30.138  29.5760  0.00  0.00     0.000 C
ATOM     18  C2  NAG B   2      14.353  30.901  28.3410  0.00  0.00     0.000 C
ATOM     19  C3  NAG B   2      14.930  29.936  27.3070  0.00  0.00     0.000 C
ATOM     20  C4  NAG B   2      16.002  29.052  27.9430  0.00  0.00     0.000 C
ATOM     21  C5  NAG B   2      15.428  28.340  29.1600  0.00  0.00     0.000 C
ATOM     22  O5  NAG B   2      14.956  29.325  30.0960  0.00  0.00     0.000 O
ATOM     23   O  NAG B   2      16.456  28.115  26.9600  0.00  0.00     0.000 O
ATOM     25  HD  NAG B   2      17.017  28.724  27.2150  0.00  0.00     0.000 HD
ATOM     25   C  NAG B   2      16.442  27.423  29.8400  0.00  0.00     0.000 C
ATOM     26   O  NAG B   2      17.436  28.171  30.5570  0.00  0.00     0.000 O
ATOM     28  HD  NAG B   2      17.997  28.779  30.8120  0.00  0.00     0.000 HD
BRANCH 18 30
ATOM     28   N  NAG B   2      13.974  32.267  28.6490  0.00  0.00     0.000 N
ATOM     30  HD  NAG B   2      13.490  32.079  27.9560  0.00  0.00     0.000 HD
ATOM     30   C  NAG B   2      13.164  33.007  27.8820  0.00  0.00     0.000 C
ATOM     31   C  NAG B   2      12.900  34.423  28.3120  0.00  0.00     0.000 C
ATOM     32   O  NAG B   2      12.656  32.564  26.8720  0.00  0.00     0.000 OA
ENDBRANCH 18 30
BRANCH 17 33
ATOM     33  O4  GCU B   3      13.394  31.103  30.5240  0.00  0.00     0.000 O
BRANCH 33 37
ATOM     34  C1  GCU B   3      10.448  30.792  33.4490  0.00  0.00     0.000 C
ATOM     35  C2  GCU B   3      11.741  30.004  33.6580  0.00  0.00     0.000 C
ATOM     36  C3  GCU B   3      12.824  30.557  32.7550  0.00  0.00     0.000 C
ATOM     37  C4  GCU B   3      12.338  30.552  31.3120  0.00  0.00     0.000 C
ATOM     38  C5  GCU B   3      11.046  31.363  31.2010  0.00  0.00     0.000 C
ATOM     39  O5  GCU B   3      10.068  30.784  32.0700  0.00  0.00     0.000 O
ATOM     40   O  GCU B   3      12.135  30.115  35.0270  0.00  0.00     0.000 O
ATOM     42  HD  GCU B   3      12.814  30.303  35.5310  0.00  0.00     0.000 HD
ATOM     42   O  GCU B   3      14.037  29.792  32.8720  0.00  0.00     0.000 O
ATOM     44  HD  GCU B   3      14.715  29.980  33.3760  0.00  0.00     0.000 HD
BRANCH 38 44
ATOM     44   C  GCU B   3      10.490  31.382  29.7990  0.00  0.00     0.000 C
ATOM     45   O  GCU B   3      10.098  32.461  29.3300  0.00  0.00     0.000 OA
ATOM     46   O  GCU B   3      10.437  30.325  29.1410  0.00  0.00     0.000 OA
ENDBRANCH 38 44
BRANCH 34 47
ATOM     47  O3  NAG B   4       9.463  30.173  34.0840  0.00  0.00     0.000 O
BRANCH 47 50
ATOM     48  C1  NAG B   4       7.371  27.350  35.2710  0.00  0.00     0.000 C
ATOM     49  C2  NAG B   4       7.908  28.402  34.3070  0.00  0.00     0.000 C
ATOM     50  C3  NAG B   4       9.261  28.930  34.7550  0.00  0.00     0.000 C
ATOM     51  C4  NAG B   4       9.369  29.145  36.2690  0.00  0.00     0.000 C
ATOM     52  C5  NAG B   4       9.136  27.849  37.0280  0.00  0.00     0.000 C
ATOM     53  O5  NAG B   4       8.050  27.050  36.5090  0.00  0.00     0.000 O
BRANCH 49 56
ATOM     54   N  NAG B   4       8.336  27.432  33.2830  0.00  0.00     0.000 N
ATOM     56  HD  NAG B   4       8.838  26.740  33.4200  0.00  0.00     0.000 HD
ATOM     56   C  NAG B   4       8.610  26.413  31.0970  0.00  0.00     0.000 C
ATOM     57   O  NAG B   4       7.717  28.559  31.4080  0.00  0.00     0.000 OA
ATOM     58   C  NAG B   4       8.187  27.569  31.9500  0.00  0.00     0.000 C
ENDBRANCH 49 56
ATOM     59   O  NAG B   4       9.038  27.004  39.3450  0.00  0.00     0.000 O
ATOM     61  HD  NAG B   4       8.624  27.324  38.6550  0.00  0.00     0.000 HD
ATOM     61   O  NAG B   4       9.038  27.004  39.3450  0.00  0.00     0.000 O
ATOM     63  HD  NAG B   4       8.624  27.324  38.6550  0.00  0.00     0.000 HD
ENDBRANCH 47 50
ENDBRANCH 34 47
ENDBRANCH 33 37
ENDBRANCH 17 33
ENDBRANCH 16 19
ENDBRANCH 1 16
TORSDOF 10
ENDMDL
MODEL 60
REMARK VINA RESULT:      -5.4     12.657     15.016
ROOT
ATOM      1  C1  GCU B   1      21.654  34.030  16.6680  0.00  0.00     0.000 C
ATOM      2  C2  GCU B   1      22.697  33.414  15.7490  0.00  0.00     0.000 C
ATOM      3  C3  GCU B   1      23.804  34.415  15.4550  0.00  0.00     0.000 C
ATOM      4  C4  GCU B   1      23.208  35.729  14.9710  0.00  0.00     0.000 C
ATOM      5  C5  GCU B   1      22.129  36.230  15.9320  0.00  0.00     0.000 C
ATOM      6  O5  GCU B   1      21.119  35.222  16.0710  0.00  0.00     0.000 O
ATOM      7   O  GCU B   1      23.221  32.261  16.4010  0.00  0.00     0.000 O
ATOM      9  HD  GCU B   1      23.276  31.465  16.0640  0.00  0.00     0.000 HD
ATOM      9   O  GCU B   1      24.701  33.899  14.4690  0.00  0.00     0.000 O
ATOM     11  HD  GCU B   1      24.756  33.103  14.1320  0.00  0.00     0.000 HD
ATOM     11   O  GCU B   1      24.252  36.698  14.8680  0.00  0.00     0.000 O
ATOM     13  HD  GCU B   1      24.306  35.902  14.5320  0.00  0.00     0.000 HD
ENDROOT
BRANCH 5 13
ATOM     13   C  GCU B   1      21.567  37.540  15.4350  0.00  0.00     0.000 C
ATOM     14   O  GCU B   1      20.929  38.287  16.2060  0.00  0.00     0.000 OA
ATOM     15   O  GCU B   1      21.790  37.847  14.2480  0.00  0.00     0.000 OA
ENDBRANCH 5 13
BRANCH 1 16
ATOM     16  O3  NAG B   2      20.366  33.694  16.7770  0.00  0.00     0.000 O
BRANCH 16 19
ATOM     17  C1  NAG B   2      18.398  32.369  19.7080  0.00  0.00     0.000 C
ATOM     18  C2  NAG B   2      19.520  32.424  18.6800  0.00  0.00     0.000 C
ATOM     19  C3  NAG B   2      19.430  33.713  17.8650  0.00  0.00     0.000 C
ATOM     20  C4  NAG B   2      18.026  33.876  17.2820  0.00  0.00     0.000 C
ATOM     21  C5  NAG B   2      16.993  33.809  18.3980  0.00  0.00     0.000 C
ATOM     22  O5  NAG B   2      17.120  32.547  19.0750  0.00  0.00     0.000 O
ATOM     23   O  NAG B   2      17.967  35.131  16.5950  0.00  0.00     0.000 O
ATOM     25  HD  NAG B   2      17.923  34.413  16.1120  0.00  0.00     0.000 HD
ATOM     25   C  NAG B   2      15.564  33.982  17.8900  0.00  0.00     0.000 C
ATOM     26   O  NAG B   2      15.105  32.816  17.1880  0.00  0.00     0.000 O
ATOM     28  HD  NAG B   2      15.062  32.098  16.7050  0.00  0.00     0.000 HD
BRANCH 18 30
ATOM     28   N  NAG B   2      20.577  32.039  19.5960  0.00  0.00     0.000 N
ATOM     30  HD  NAG B   2      20.825  31.681  18.8470  0.00  0.00     0.000 HD
ATOM     30   C  NAG B   2      21.574  31.204  19.2760  0.00  0.00     0.000 C
ATOM     31   C  NAG B   2      22.570  30.865  20.3490  0.00  0.00     0.000 C
ATOM     32   O  NAG B   2      21.678  30.727  18.1640  0.00  0.00     0.000 OA
ENDBRANCH 18 30
BRANCH 17 33
ATOM     33  O4  GCU B   3      18.516  31.119  20.4170  0.00  0.00     0.000 O
BRANCH 33 37
ATOM     34  C1  GCU B   3      16.637  29.786  23.8840  0.00  0.00     0.000 C
ATOM     35  C2  GCU B   3      15.936  29.522  22.5510  0.00  0.00     0.000 C
ATOM     36  C3  GCU B   3      16.928  29.678  21.4180  0.00  0.00     0.000 C
ATOM     37  C4  GCU B   3      17.582  31.050  21.4960  0.00  0.00     0.000 C
ATOM     38  C5  GCU B   3      18.257  31.222  22.8580  0.00  0.00     0.000 C
ATOM     39  O5  GCU B   3      17.265  31.071  23.8800  0.00  0.00     0.000 O
ATOM     40   O  GCU B   3      15.403  28.196  22.5630  0.00  0.00     0.000 O
ATOM     42  HD  GCU B   3      15.373  27.466  22.0970  0.00  0.00     0.000 HD
ATOM     42   O  GCU B   3      16.286  29.507  20.1410  0.00  0.00     0.000 O
ATOM     44  HD  GCU B   3      16.256  28.777  19.6760  0.00  0.00     0.000 HD
BRANCH 38 44
ATOM     44   C  GCU B   3      18.907  32.573  23.0190  0.00  0.00     0.000 C
ATOM     45   O  GCU B   3      20.114  32.686  22.7560  0.00  0.00     0.000 OA
ATOM     46   O  GCU B   3      18.228  33.543  23.4060  0.00  0.00     0.000 OA
ENDBRANCH 38 44
BRANCH 34 47
ATOM     47  O3  NAG B   4      15.722  29.850  24.8420  0.00  0.00     0.000 O
BRANCH 47 50
ATOM     48  C1  NAG B   4      14.056  30.802  28.0160  0.00  0.00     0.000 C
ATOM     49  C2  NAG B   4      14.951  30.003  27.0750  0.00  0.00     0.000 C
ATOM     50  C3  NAG B   4      15.288  30.793  25.8210  0.00  0.00     0.000 C
ATOM     51  C4  NAG B   4      14.110  31.600  25.2640  0.00  0.00     0.000 C
ATOM     52  C5  NAG B   4      13.597  32.603  26.2850  0.00  0.00     0.000 C
ATOM     53  O5  NAG B   4      13.519  32.085  27.6310  0.00  0.00     0.000 O
BRANCH 49 56
ATOM     54   N  NAG B   4      16.160  30.207  27.8920  0.00  0.00     0.000 N
ATOM     56  HD  NAG B   4      16.407  30.956  28.2500  0.00  0.00     0.000 HD
ATOM     56   C  NAG B   4      18.258  29.706  29.0060  0.00  0.00     0.000 C
ATOM     57   O  NAG B   4      17.236  28.248  27.4790  0.00  0.00     0.000 OA
ATOM     58   C  NAG B   4      17.169  29.328  28.0490  0.00  0.00     0.000 C
ENDBRANCH 49 56
ATOM     59   O  NAG B   4      11.846  34.325  26.5320  0.00  0.00     0.000 O
ATOM     61  HD  NAG B   4      12.098  33.504  26.6410  0.00  0.00     0.000 HD
ATOM     61   O  NAG B   4      11.846  34.325  26.5320  0.00  0.00     0.000 O
ATOM     63  HD  NAG B   4      12.098  33.504  26.6410  0.00  0.00     0.000 HD
ENDBRANCH 47 50
ENDBRANCH 34 47
ENDBRANCH 33 37
ENDBRANCH 17 33
ENDBRANCH 16 19
ENDBRANCH 1 16
TORSDOF 10
ENDMDL
MODEL 61
REMARK VINA RESULT:      -5.4     17.482     20.349
ROOT
ATOM      1  C1  GCU B   1      15.309  31.467  25.1050  0.00  0.00     0.000 C
ATOM      2  C2  GCU B   1      15.903  32.716  24.4730  0.00  0.00     0.000 C
ATOM      3  C3  GCU B   1      15.418  32.868  23.0390  0.00  0.00     0.000 C
ATOM      4  C4  GCU B   1      15.648  31.579  22.2670  0.00  0.00     0.000 C
ATOM      5  C5  GCU B   1      15.067  30.378  23.0160  0.00  0.00     0.000 C
ATOM      6  O5  GCU B   1      15.652  30.312  24.3230  0.00  0.00     0.000 O
ATOM      7   O  GCU B   1      15.505  33.832  25.2620  0.00  0.00     0.000 O
ATOM      9  HD  GCU B   1      16.029  34.436  25.5940  0.00  0.00     0.000 HD
ATOM      9   O  GCU B   1      16.096  33.948  22.3910  0.00  0.00     0.000 O
ATOM     11  HD  GCU B   1      16.620  34.552  22.7230  0.00  0.00     0.000 HD
ATOM     11   O  GCU B   1      15.031  31.693  20.9840  0.00  0.00     0.000 O
ATOM     13  HD  GCU B   1      15.555  32.297  21.3160  0.00  0.00     0.000 HD
ENDROOT
BRANCH 5 13
ATOM     13   C  GCU B   1      15.296  29.116  22.2200  0.00  0.00     0.000 C
ATOM     14   O  GCU B   1      14.541  28.132  22.3640  0.00  0.00     0.000 OA
ATOM     15   O  GCU B   1      16.241  29.114  21.4070  0.00  0.00     0.000 OA
ENDBRANCH 5 13
BRANCH 1 16
ATOM     16  O3  NAG B   2      15.813  30.744  26.1080  0.00  0.00     0.000 O
BRANCH 16 19
ATOM     17  C1  NAG B   2      14.141  29.529  29.2630  0.00  0.00     0.000 C
ATOM     18  C2  NAG B   2      14.572  30.528  28.1970  0.00  0.00     0.000 C
ATOM     19  C3  NAG B   2      15.242  29.804  27.0310  0.00  0.00     0.000 C
ATOM     20  C4  NAG B   2      16.362  28.898  27.5410  0.00  0.00     0.000 C
ATOM     21  C5  NAG B   2      15.815  27.944  28.5930  0.00  0.00     0.000 C
ATOM     22  O5  NAG B   2      15.251  28.713  29.6700  0.00  0.00     0.000 O
ATOM     23   O  NAG B   2      16.907  28.184  26.4260  0.00  0.00     0.000 O
ATOM     25  HD  NAG B   2      17.416  28.775  26.8030  0.00  0.00     0.000 HD
ATOM     25   C  NAG B   2      16.880  26.994  29.1380  0.00  0.00     0.000 C
ATOM     26   O  NAG B   2      17.799  27.670  30.0100  0.00  0.00     0.000 O
ATOM     28  HD  NAG B   2      18.307  28.262  30.3870  0.00  0.00     0.000 HD
BRANCH 18 30
ATOM     28   N  NAG B   2      14.124  31.813  28.7020  0.00  0.00     0.000 N
ATOM     30  HD  NAG B   2      13.623  31.689  28.0060  0.00  0.00     0.000 HD
ATOM     30   C  NAG B   2      13.239  32.595  28.0720  0.00  0.00     0.000 C
ATOM     31   C  NAG B   2      12.909  33.920  28.7000  0.00  0.00     0.000 C
ATOM     32   O  NAG B   2      12.717  32.259  27.0280  0.00  0.00     0.000 OA
ENDBRANCH 18 30
BRANCH 17 33
ATOM     33  O4  GCU B   3      13.551  30.275  30.3470  0.00  0.00     0.000 O
BRANCH 33 37
ATOM     34  C1  GCU B   3      10.532  29.224  33.0140  0.00  0.00     0.000 C
ATOM     35  C2  GCU B   3      11.762  28.318  32.9410  0.00  0.00     0.000 C
ATOM     36  C3  GCU B   3      12.898  29.059  32.2700  0.00  0.00     0.000 C
ATOM     37  C4  GCU B   3      12.443  29.571  30.9110  0.00  0.00     0.000 C
ATOM     38  C5  GCU B   3      11.215  30.467  31.0840  0.00  0.00     0.000 C
ATOM     39  O5  GCU B   3      10.180  29.705  31.7140  0.00  0.00     0.000 O
ATOM     40   O  GCU B   3      12.135  27.936  34.2670  0.00  0.00     0.000 O
ATOM     42  HD  GCU B   3      12.815  27.894  34.8010  0.00  0.00     0.000 HD
ATOM     42   O  GCU B   3      14.051  28.211  32.1180  0.00  0.00     0.000 O
ATOM     44  HD  GCU B   3      14.731  28.169  32.6530  0.00  0.00     0.000 HD
BRANCH 38 44
ATOM     44   C  GCU B   3      10.690  30.994  29.7720  0.00  0.00     0.000 C
ATOM     45   O  GCU B   3      10.205  32.135  29.7410  0.00  0.00     0.000 OA
ATOM     46   O  GCU B   3      10.753  30.283  28.7510  0.00  0.00     0.000 OA
ENDBRANCH 38 44
BRANCH 34 47
ATOM     47  O3  NAG B   4       9.493  28.503  33.4110  0.00  0.00     0.000 O
BRANCH 47 50
ATOM     48  C1  NAG B   4       5.865  28.355  34.1670  0.00  0.00     0.000 C
ATOM     49  C2  NAG B   4       7.298  28.876  34.2140  0.00  0.00     0.000 C
ATOM     50  C3  NAG B   4       8.122  28.348  33.0510  0.00  0.00     0.000 C
ATOM     51  C4  NAG B   4       7.846  26.877  32.7160  0.00  0.00     0.000 C
ATOM     52  C5  NAG B   4       6.387  26.659  32.3500  0.00  0.00     0.000 C
ATOM     53  O5  NAG B   4       5.455  27.374  33.1920  0.00  0.00     0.000 O
BRANCH 49 56
ATOM     54   N  NAG B   4       7.189  30.343  34.2930  0.00  0.00     0.000 N
ATOM     56  HD  NAG B   4       7.190  30.812  35.0210  0.00  0.00     0.000 HD
ATOM     56   C  NAG B   4       6.915  32.641  33.5590  0.00  0.00     0.000 C
ATOM     57   O  NAG B   4       6.581  30.796  32.1500  0.00  0.00     0.000 OA
ATOM     58   C  NAG B   4       6.874  31.170  33.2760  0.00  0.00     0.000 C
ENDBRANCH 49 56
ATOM     59   O  NAG B   4       4.852  24.842  31.6930  0.00  0.00     0.000 O
ATOM     61  HD  NAG B   4       5.199  25.328  32.3190  0.00  0.00     0.000 HD
ATOM     61   O  NAG B   4       4.852  24.842  31.6930  0.00  0.00     0.000 O
ATOM     63  HD  NAG B   4       5.199  25.328  32.3190  0.00  0.00     0.000 HD
ENDBRANCH 47 50
ENDBRANCH 34 47
ENDBRANCH 33 37
ENDBRANCH 17 33
ENDBRANCH 16 19
ENDBRANCH 1 16
TORSDOF 10
ENDMDL
MODEL 62
REMARK VINA RESULT:      -5.4     11.464     19.347
ROOT
ATOM      1  C1  GCU B   1       9.921  11.700  28.6100  0.00  0.00     0.000 C
ATOM      2  C2  GCU B   1       9.767  12.760  29.6900  0.00  0.00     0.000 C
ATOM      3  C3  GCU B   1       9.815  12.124  31.0700  0.00  0.00     0.000 C
ATOM      4  C4  GCU B   1       8.830  10.968  31.1510  0.00  0.00     0.000 C
ATOM      5  C5  GCU B   1       9.029   9.994  29.9890  0.00  0.00     0.000 C
ATOM      6  O5  GCU B   1       8.895  10.705  28.7510  0.00  0.00     0.000 O
ATOM      7   O  GCU B   1      10.826  13.699  29.5290  0.00  0.00     0.000 O
ATOM      9  HD  GCU B   1      10.741  14.559  29.4660  0.00  0.00     0.000 HD
ATOM      9   O  GCU B   1       9.513  13.089  32.0810  0.00  0.00     0.000 O
ATOM     11  HD  GCU B   1       9.428  13.949  32.0180  0.00  0.00     0.000 HD
ATOM     11   O  GCU B   1       9.020  10.286  32.3920  0.00  0.00     0.000 O
ATOM     13  HD  GCU B   1       8.935  11.146  32.3280  0.00  0.00     0.000 HD
ENDROOT
BRANCH 5 13
ATOM     13   C  GCU B   1       8.049   8.851  30.1030  0.00  0.00     0.000 C
ATOM     14   O  GCU B   1       8.349   7.824  30.7450  0.00  0.00     0.000 OA
ATOM     15   O  GCU B   1       6.937   8.993  29.5590  0.00  0.00     0.000 OA
ENDBRANCH 5 13
BRANCH 1 16
ATOM     16  O3  NAG B   2       9.480  11.751  27.3510  0.00  0.00     0.000 O
BRANCH 16 19
ATOM     17  C1  NAG B   2      11.481  11.393  24.1740  0.00  0.00     0.000 C
ATOM     18  C2  NAG B   2      11.135  11.908  25.5650  0.00  0.00     0.000 C
ATOM     19  C3  NAG B   2       9.929  11.156  26.1230  0.00  0.00     0.000 C
ATOM     20  C4  NAG B   2       8.771  11.194  25.1270  0.00  0.00     0.000 C
ATOM     21  C5  NAG B   2       9.232  10.654  23.7800  0.00  0.00     0.000 C
ATOM     22  O5  NAG B   2      10.334  11.451  23.3120  0.00  0.00     0.000 O
ATOM     23   O  NAG B   2       7.693  10.413  25.6570  0.00  0.00     0.000 O
ATOM     25  HD  NAG B   2       7.572  11.269  25.6040  0.00  0.00     0.000 HD
ATOM     25   C  NAG B   2       8.118  10.646  22.7350  0.00  0.00     0.000 C
ATOM     26   O  NAG B   2       7.816  11.971  22.2720  0.00  0.00     0.000 O
ATOM     28  HD  NAG B   2       7.695  12.827  22.2190  0.00  0.00     0.000 HD
BRANCH 18 30
ATOM     28   N  NAG B   2      12.485  11.871  26.0960  0.00  0.00     0.000 N
ATOM     30  HD  NAG B   2      12.146  12.577  26.4670  0.00  0.00     0.000 HD
ATOM     30   C  NAG B   2      13.014  12.837  26.8570  0.00  0.00     0.000 C
ATOM     31   C  NAG B   2      14.443  12.676  27.2940  0.00  0.00     0.000 C
ATOM     32   O  NAG B   2      12.374  13.815  27.1880  0.00  0.00     0.000 OA
ENDBRANCH 18 30
BRANCH 17 33
ATOM     33  O4  GCU B   3      12.600  12.164  23.6900  0.00  0.00     0.000 O
BRANCH 33 37
ATOM     34  C1  GCU B   3      15.065  11.603  20.3820  0.00  0.00     0.000 C
ATOM     35  C2  GCU B   3      13.726  12.307  20.1580  0.00  0.00     0.000 C
ATOM     36  C3  GCU B   3      13.182  12.795  21.4840  0.00  0.00     0.000 C
ATOM     37  C4  GCU B   3      13.097  11.631  22.4610  0.00  0.00     0.000 C
ATOM     38  C5  GCU B   3      14.479  10.993  22.6230  0.00  0.00     0.000 C
ATOM     39  O5  GCU B   3      14.928  10.549  21.3390  0.00  0.00     0.000 O
ATOM     40   O  GCU B   3      13.925  13.410  19.2700  0.00  0.00     0.000 O
ATOM     42  HD  GCU B   3      13.761  14.255  19.1810  0.00  0.00     0.000 HD
ATOM     42   O  GCU B   3      11.886  13.399  21.3210  0.00  0.00     0.000 O
ATOM     44  HD  GCU B   3      11.722  14.245  21.2320  0.00  0.00     0.000 HD
BRANCH 38 44
ATOM     44   C  GCU B   3      14.468   9.812  23.5610  0.00  0.00     0.000 C
ATOM     45   O  GCU B   3      14.792   9.991  24.7450  0.00  0.00     0.000 OA
ATOM     46   O  GCU B   3      14.134   8.689  23.1360  0.00  0.00     0.000 OA
ENDBRANCH 38 44
BRANCH 34 47
ATOM     47  O3  NAG B   4      15.427  11.006  19.2560  0.00  0.00     0.000 O
BRANCH 47 50
ATOM     48  C1  NAG B   4      17.852  10.776  16.4590  0.00  0.00     0.000 C
ATOM     49  C2  NAG B   4      16.885  11.431  17.4400  0.00  0.00     0.000 C
ATOM     50  C3  NAG B   4      16.633  10.545  18.6500  0.00  0.00     0.000 C
ATOM     51  C4  NAG B   4      16.496   9.057  18.3080  0.00  0.00     0.000 C
ATOM     52  C5  NAG B   4      17.752   8.528  17.6350  0.00  0.00     0.000 C
ATOM     53  O5  NAG B   4      18.317   9.424  16.6530  0.00  0.00     0.000 O
BRANCH 49 56
ATOM     54   N  NAG B   4      17.891  12.368  17.9690  0.00  0.00     0.000 N
ATOM     56  HD  NAG B   4      18.701  12.164  18.1980  0.00  0.00     0.000 HD
ATOM     56   C  NAG B   4      18.854  14.443  18.7800  0.00  0.00     0.000 C
ATOM     57   O  NAG B   4      16.559  14.161  18.3880  0.00  0.00     0.000 OA
ATOM     58   C  NAG B   4      17.662  13.636  18.3660  0.00  0.00     0.000 C
ENDBRANCH 49 56
ATOM     59   O  NAG B   4      18.647   6.438  16.6720  0.00  0.00     0.000 O
ATOM     61  HD  NAG B   4      18.231   7.189  16.5570  0.00  0.00     0.000 HD
ATOM     61   O  NAG B   4      18.647   6.438  16.6720  0.00  0.00     0.000 O
ATOM     63  HD  NAG B   4      18.231   7.189  16.5570  0.00  0.00     0.000 HD
ENDBRANCH 47 50
ENDBRANCH 34 47
ENDBRANCH 33 37
ENDBRANCH 17 33
ENDBRANCH 16 19
ENDBRANCH 1 16
TORSDOF 10
ENDMDL
MODEL 63
REMARK VINA RESULT:      -5.3      5.733      9.716
ROOT
ATOM      1  C1  GCU B   1      19.528  21.419  11.4220  0.00  0.00     0.000 C
ATOM      2  C2  GCU B   1      18.512  20.733  10.5220  0.00  0.00     0.000 C
ATOM      3  C3  GCU B   1      19.164  20.299   9.2180  0.00  0.00     0.000 C
ATOM      4  C4  GCU B   1      19.905  21.468   8.5870  0.00  0.00     0.000 C
ATOM      5  C5  GCU B   1      20.854  22.124   9.5910  0.00  0.00     0.000 C
ATOM      6  O5  GCU B   1      20.106  22.543  10.7400  0.00  0.00     0.000 O
ATOM      7   O  GCU B   1      17.998  19.609  11.2270  0.00  0.00     0.000 O
ATOM      9  HD  GCU B   1      17.161  19.427  11.3590  0.00  0.00     0.000 HD
ATOM      9   O  GCU B   1      18.183  19.799   8.3060  0.00  0.00     0.000 O
ATOM     11  HD  GCU B   1      17.347  19.618   8.4370  0.00  0.00     0.000 HD
ATOM     11   O  GCU B   1      20.646  20.991   7.4620  0.00  0.00     0.000 O
ATOM     13  HD  GCU B   1      19.809  20.810   7.5940  0.00  0.00     0.000 HD
ENDROOT
BRANCH 5 13
ATOM     13   C  GCU B   1      21.586  23.270   8.9340  0.00  0.00     0.000 C
ATOM     14   O  GCU B   1      22.740  23.574   9.2980  0.00  0.00     0.000 OA
ATOM     15   O  GCU B   1      21.003  23.867   8.0080  0.00  0.00     0.000 OA
ENDBRANCH 5 13
BRANCH 1 16
ATOM     16  O3  NAG B   2      19.291  22.320  12.3780  0.00  0.00     0.000 O
BRANCH 16 19
ATOM     17  C1  NAG B   2      19.516  22.177  16.1400  0.00  0.00     0.000 C
ATOM     18  C2  NAG B   2      19.045  21.785  14.7460  0.00  0.00     0.000 C
ATOM     19  C3  NAG B   2      19.843  22.541  13.6850  0.00  0.00     0.000 C
ATOM     20  C4  NAG B   2      19.811  24.043  13.9660  0.00  0.00     0.000 C
ATOM     21  C5  NAG B   2      20.304  24.314  15.3800  0.00  0.00     0.000 C
ATOM     22  O5  NAG B   2      19.467  23.603  16.3090  0.00  0.00     0.000 O
ATOM     23   O  NAG B   2      20.632  24.701  12.9950  0.00  0.00     0.000 O
ATOM     25  HD  NAG B   2      19.779  24.842  12.9510  0.00  0.00     0.000 HD
ATOM     25   C  NAG B   2      20.316  25.801  15.7270  0.00  0.00     0.000 C
ATOM     26   O  NAG B   2      18.988  26.308  15.9300  0.00  0.00     0.000 O
ATOM     28  HD  NAG B   2      18.134  26.449  15.8860  0.00  0.00     0.000 HD
BRANCH 18 30
ATOM     28   N  NAG B   2      19.108  20.340  14.8610  0.00  0.00     0.000 N
ATOM     30  HD  NAG B   2      18.347  20.474  14.4710  0.00  0.00     0.000 HD
ATOM     30   C  NAG B   2      18.100  19.521  14.5360  0.00  0.00     0.000 C
ATOM     31   C  NAG B   2      18.301  18.048  14.7540  0.00  0.00     0.000 C
ATOM     32   O  NAG B   2      17.054  19.941  14.0830  0.00  0.00     0.000 OA
ENDBRANCH 18 30
BRANCH 17 33
ATOM     33  O4  GCU B   3      18.704  21.460  17.0920  0.00  0.00     0.000 O
BRANCH 33 37
ATOM     34  C1  GCU B   3      19.533  20.317  21.0090  0.00  0.00     0.000 C
ATOM     35  C2  GCU B   3      18.829  21.657  20.7940  0.00  0.00     0.000 C
ATOM     36  C3  GCU B   3      18.240  21.704  19.4000  0.00  0.00     0.000 C
ATOM     37  C4  GCU B   3      19.331  21.423  18.3760  0.00  0.00     0.000 C
ATOM     38  C5  GCU B   3      19.974  20.066  18.6680  0.00  0.00     0.000 C
ATOM     39  O5  GCU B   3      20.515  20.093  19.9930  0.00  0.00     0.000 O
ATOM     40   O  GCU B   3      17.795  21.799  21.7720  0.00  0.00     0.000 O
ATOM     42  HD  GCU B   3      16.956  21.995  21.8570  0.00  0.00     0.000 HD
ATOM     42   O  GCU B   3      17.631  22.980  19.1370  0.00  0.00     0.000 O
ATOM     44  HD  GCU B   3      16.792  23.176  19.2230  0.00  0.00     0.000 HD
BRANCH 38 44
ATOM     44   C  GCU B   3      21.085  19.729  17.7050  0.00  0.00     0.000 C
ATOM     45   O  GCU B   3      20.950  18.744  16.9630  0.00  0.00     0.000 OA
ATOM     46   O  GCU B   3      22.107  20.440  17.6680  0.00  0.00     0.000 OA
ENDBRANCH 38 44
BRANCH 34 47
ATOM     47  O3  NAG B   4      20.215  20.370  22.1440  0.00  0.00     0.000 O
BRANCH 47 50
ATOM     48  C1  NAG B   4      22.845  22.135  24.0730  0.00  0.00     0.000 C
ATOM     49  C2  NAG B   4      22.183  21.463  22.8750  0.00  0.00     0.000 C
ATOM     50  C3  NAG B   4      20.675  21.372  23.0490  0.00  0.00     0.000 C
ATOM     51  C4  NAG B   4      20.239  21.011  24.4740  0.00  0.00     0.000 C
ATOM     52  C5  NAG B   4      20.731  22.041  25.4780  0.00  0.00     0.000 C
ATOM     53  O5  NAG B   4      22.087  22.484  25.2510  0.00  0.00     0.000 O
BRANCH 49 56
ATOM     54   N  NAG B   4      22.148  22.595  21.9320  0.00  0.00     0.000 N
ATOM     56  HD  NAG B   4      21.591  23.258  21.9580  0.00  0.00     0.000 HD
ATOM     56   C  NAG B   4      22.723  23.971  20.0170  0.00  0.00     0.000 C
ATOM     57   O  NAG B   4      23.545  21.797  20.3270  0.00  0.00     0.000 OA
ATOM     58   C  NAG B   4      22.834  22.684  20.7750  0.00  0.00     0.000 C
ENDBRANCH 49 56
ATOM     59   O  NAG B   4      20.679  22.494  27.9040  0.00  0.00     0.000 O
ATOM     61  HD  NAG B   4      21.086  22.145  27.2240  0.00  0.00     0.000 HD
ATOM     61   O  NAG B   4      20.679  22.494  27.9040  0.00  0.00     0.000 O
ATOM     63  HD  NAG B   4      21.086  22.145  27.2240  0.00  0.00     0.000 HD
ENDBRANCH 47 50
ENDBRANCH 34 47
ENDBRANCH 33 37
ENDBRANCH 17 33
ENDBRANCH 16 19
ENDBRANCH 1 16
TORSDOF 10
ENDMDL
MODEL 64
REMARK VINA RESULT:      -5.3     19.082     23.615
ROOT
ATOM      1  C1  GCU B   1      17.568  22.890  33.3450  0.00  0.00     0.000 C
ATOM      2  C2  GCU B   1      18.975  22.374  33.6040  0.00  0.00     0.000 C
ATOM      3  C3  GCU B   1      19.174  21.017  32.9460  0.00  0.00     0.000 C
ATOM      4  C4  GCU B   1      18.054  20.070  33.3470  0.00  0.00     0.000 C
ATOM      5  C5  GCU B   1      16.683  20.706  33.1040  0.00  0.00     0.000 C
ATOM      6  O5  GCU B   1      16.603  21.941  33.8280  0.00  0.00     0.000 O
ATOM      7   O  GCU B   1      19.890  23.330  33.0750  0.00  0.00     0.000 O
ATOM      9  HD  GCU B   1      20.552  23.692  33.5000  0.00  0.00     0.000 HD
ATOM      9   O  GCU B   1      20.436  20.458  33.3180  0.00  0.00     0.000 O
ATOM     11  HD  GCU B   1      21.099  20.820  33.7420  0.00  0.00     0.000 HD
ATOM     11   O  GCU B   1      18.171  18.868  32.5850  0.00  0.00     0.000 O
ATOM     13  HD  GCU B   1      18.833  19.230  33.0090  0.00  0.00     0.000 HD
ENDROOT
BRANCH 5 13
ATOM     13   C  GCU B   1      15.592  19.739  33.4970  0.00  0.00     0.000 C
ATOM     14   O  GCU B   1      15.342  18.746  32.7840  0.00  0.00     0.000 OA
ATOM     15   O  GCU B   1      14.984  19.962  34.5610  0.00  0.00     0.000 OA
ENDBRANCH 5 13
BRANCH 1 16
ATOM     16  O3  NAG B   2      16.866  23.746  34.0900  0.00  0.00     0.000 O
BRANCH 16 19
ATOM     17  C1  NAG B   2      15.239  27.022  33.1660  0.00  0.00     0.000 C
ATOM     18  C2  NAG B   2      16.357  25.994  33.2880  0.00  0.00     0.000 C
ATOM     19  C3  NAG B   2      15.801  24.665  33.7980  0.00  0.00     0.000 C
ATOM     20  C4  NAG B   2      14.996  24.882  35.0790  0.00  0.00     0.000 C
ATOM     21  C5  NAG B   2      13.911  25.921  34.8360  0.00  0.00     0.000 C
ATOM     22  O5  NAG B   2      14.528  27.148  34.4090  0.00  0.00     0.000 O
ATOM     23   O  NAG B   2      14.432  23.626  35.4750  0.00  0.00     0.000 O
ATOM     25  HD  NAG B   2      15.049  23.960  35.9820  0.00  0.00     0.000 HD
ATOM     25   C  NAG B   2      13.052  26.178  36.0730  0.00  0.00     0.000 C
ATOM     26   O  NAG B   2      13.764  26.931  37.0660  0.00  0.00     0.000 O
ATOM     28  HD  NAG B   2      14.381  27.265  37.5740  0.00  0.00     0.000 HD
BRANCH 18 30
ATOM     28   N  NAG B   2      16.943  26.203  31.9780  0.00  0.00     0.000 N
ATOM     30  HD  NAG B   2      17.633  26.077  32.4850  0.00  0.00     0.000 HD
ATOM     30   C  NAG B   2      18.259  26.300  31.7560  0.00  0.00     0.000 C
ATOM     31   C  NAG B   2      18.711  26.562  30.3470  0.00  0.00     0.000 C
ATOM     32   O  NAG B   2      19.070  26.185  32.6530  0.00  0.00     0.000 OA
ENDBRANCH 18 30
BRANCH 17 33
ATOM     33  O4  GCU B   3      15.830  28.258  32.7180  0.00  0.00     0.000 O
BRANCH 33 37
ATOM     34  C1  GCU B   3      14.129  31.533  30.7910  0.00  0.00     0.000 C
ATOM     35  C2  GCU B   3      14.101  31.515  32.3200  0.00  0.00     0.000 C
ATOM     36  C3  GCU B   3      15.108  30.509  32.8340  0.00  0.00     0.000 C
ATOM     37  C4  GCU B   3      14.836  29.148  32.2090  0.00  0.00     0.000 C
ATOM     38  C5  GCU B   3      14.886  29.263  30.6840  0.00  0.00     0.000 C
ATOM     39  O5  GCU B   3      13.908  30.221  30.2660  0.00  0.00     0.000 O
ATOM     40   O  GCU B   3      14.417  32.822  32.8040  0.00  0.00     0.000 O
ATOM     42  HD  GCU B   3      14.929  33.240  33.3640  0.00  0.00     0.000 HD
ATOM     42   O  GCU B   3      15.058  30.413  34.2690  0.00  0.00     0.000 O
ATOM     44  HD  GCU B   3      15.570  30.830  34.8290  0.00  0.00     0.000 HD
BRANCH 38 44
ATOM     44   C  GCU B   3      14.600  27.954  29.9920  0.00  0.00     0.000 C
ATOM     45   O  GCU B   3      13.461  27.470  30.0840  0.00  0.00     0.000 OA
ATOM     46   O  GCU B   3      15.500  27.388  29.3430  0.00  0.00     0.000 OA
ENDBRANCH 38 44
BRANCH 34 47
ATOM     47  O3  NAG B   4      13.109  32.258  30.3540  0.00  0.00     0.000 O
BRANCH 47 50
ATOM     48  C1  NAG B   4      10.972  34.667  28.5130  0.00  0.00     0.000 C
ATOM     49  C2  NAG B   4      11.542  33.911  29.7090  0.00  0.00     0.000 C
ATOM     50  C3  NAG B   4      12.883  33.275  29.3790  0.00  0.00     0.000 C
ATOM     51  C4  NAG B   4      12.947  32.660  27.9770  0.00  0.00     0.000 C
ATOM     52  C5  NAG B   4      12.687  33.705  26.9040  0.00  0.00     0.000 C
ATOM     53  O5  NAG B   4      11.613  34.620  27.2210  0.00  0.00     0.000 O
BRANCH 49 56
ATOM     54   N  NAG B   4      12.094  35.044  30.4710  0.00  0.00     0.000 N
ATOM     56  HD  NAG B   4      12.811  35.487  30.2720  0.00  0.00     0.000 HD
ATOM     56   C  NAG B   4      12.330  36.686  32.2430  0.00  0.00     0.000 C
ATOM     57   O  NAG B   4      10.842  34.878  32.3610  0.00  0.00     0.000 OA
ATOM     58   C  NAG B   4      11.694  35.446  31.6940  0.00  0.00     0.000 C
ENDBRANCH 49 56
ATOM     59   O  NAG B   4      12.518  33.897  24.4490  0.00  0.00     0.000 O
ATOM     61  HD  NAG B   4      12.126  33.776  25.2120  0.00  0.00     0.000 HD
ATOM     61   O  NAG B   4      12.518  33.897  24.4490  0.00  0.00     0.000 O
ATOM     63  HD  NAG B   4      12.126  33.776  25.2120  0.00  0.00     0.000 HD
ENDBRANCH 47 50
ENDBRANCH 34 47
ENDBRANCH 33 37
ENDBRANCH 17 33
ENDBRANCH 16 19
ENDBRANCH 1 16
TORSDOF 10
ENDMDL
MODEL 65
REMARK VINA RESULT:      -5.3     15.232     20.613
ROOT
ATOM      1  C1  GCU B   1      22.029  36.270  15.7910  0.00  0.00     0.000 C
ATOM      2  C2  GCU B   1      22.257  35.311  16.9490  0.00  0.00     0.000 C
ATOM      3  C3  GCU B   1      21.070  34.373  17.1040  0.00  0.00     0.000 C
ATOM      4  C4  GCU B   1      19.776  35.168  17.1650  0.00  0.00     0.000 C
ATOM      5  C5  GCU B   1      19.673  36.144  15.9920  0.00  0.00     0.000 C
ATOM      6  O5  GCU B   1      20.816  37.010  15.9990  0.00  0.00     0.000 O
ATOM      7   O  GCU B   1      23.448  34.579  16.6780  0.00  0.00     0.000 O
ATOM      9  HD  GCU B   1      24.125  34.490  17.2100  0.00  0.00     0.000 HD
ATOM      9   O  GCU B   1      21.207  33.578  18.2850  0.00  0.00     0.000 O
ATOM     11  HD  GCU B   1      21.884  33.489  18.8170  0.00  0.00     0.000 HD
ATOM     11   O  GCU B   1      18.674  34.260  17.1370  0.00  0.00     0.000 O
ATOM     13  HD  GCU B   1      19.351  34.171  17.6690  0.00  0.00     0.000 HD
ENDROOT
BRANCH 5 13
ATOM     13   C  GCU B   1      18.373  36.908  16.0710  0.00  0.00     0.000 C
ATOM     14   O  GCU B   1      18.360  38.091  16.4710  0.00  0.00     0.000 OA
ATOM     15   O  GCU B   1      17.339  36.322  15.6980  0.00  0.00     0.000 OA
ENDBRANCH 5 13
BRANCH 1 16
ATOM     16  O3  NAG B   2      22.557  37.485  15.6250  0.00  0.00     0.000 O
BRANCH 16 19
ATOM     17  C1  NAG B   2      23.969  39.197  12.5750  0.00  0.00     0.000 C
ATOM     18  C2  NAG B   2      23.818  38.110  13.6320  0.00  0.00     0.000 C
ATOM     19  C3  NAG B   2      22.606  38.397  14.5160  0.00  0.00     0.000 C
ATOM     20  C4  NAG B   2      22.677  39.818  15.0730  0.00  0.00     0.000 C
ATOM     21  C5  NAG B   2      22.822  40.813  13.9300  0.00  0.00     0.000 C
ATOM     22  O5  NAG B   2      24.012  40.496  13.1850  0.00  0.00     0.000 O
ATOM     23   O  NAG B   2      21.487  40.067  15.8290  0.00  0.00     0.000 O
ATOM     25  HD  NAG B   2      22.231  40.016  16.2690  0.00  0.00     0.000 HD
ATOM     25   C  NAG B   2      22.884  42.261  14.4120  0.00  0.00     0.000 C
ATOM     26   O  NAG B   2      24.144  42.559  15.0340  0.00  0.00     0.000 O
ATOM     28  HD  NAG B   2      24.888  42.508  15.4740  0.00  0.00     0.000 HD
BRANCH 18 30
ATOM     28   N  NAG B   2      24.158  37.072  12.6780  0.00  0.00     0.000 N
ATOM     30  HD  NAG B   2      24.303  36.693  13.4430  0.00  0.00     0.000 HD
ATOM     30   C  NAG B   2      24.698  35.894  13.0180  0.00  0.00     0.000 C
ATOM     31   C  NAG B   2      25.037  34.938  11.9090  0.00  0.00     0.000 C
ATOM     32   O  NAG B   2      24.912  35.598  14.1760  0.00  0.00     0.000 OA
ENDBRANCH 18 30
BRANCH 17 33
ATOM     33  O4  GCU B   3      25.145  38.890  11.7990  0.00  0.00     0.000 O
BRANCH 33 37
ATOM     34  C1  GCU B   3      25.916  39.672   7.7830  0.00  0.00     0.000 C
ATOM     35  C2  GCU B   3      26.573  40.581   8.8220  0.00  0.00     0.000 C
ATOM     36  C3  GCU B   3      26.536  39.910  10.1790  0.00  0.00     0.000 C
ATOM     37  C4  GCU B   3      25.102  39.534  10.5250  0.00  0.00     0.000 C
ATOM     38  C5  GCU B   3      24.531  38.626   9.4340  0.00  0.00     0.000 C
ATOM     39  O5  GCU B   3      24.588  39.322   8.1850  0.00  0.00     0.000 O
ATOM     40   O  GCU B   3      27.925  40.831   8.4310  0.00  0.00     0.000 O
ATOM     42  HD  GCU B   3      28.737  40.820   8.7300  0.00  0.00     0.000 HD
ATOM     42   O  GCU B   3      27.082  40.769  11.1960  0.00  0.00     0.000 O
ATOM     44  HD  GCU B   3      27.894  40.758  11.4960  0.00  0.00     0.000 HD
BRANCH 38 44
ATOM     44   C  GCU B   3      23.099  38.231   9.6970  0.00  0.00     0.000 C
ATOM     45   O  GCU B   3      22.209  39.078   9.5260  0.00  0.00     0.000 OA
ATOM     46   O  GCU B   3      22.837  37.073  10.0730  0.00  0.00     0.000 OA
ENDBRANCH 38 44
BRANCH 34 47
ATOM     47  O3  NAG B   4      25.769  40.351   6.6540  0.00  0.00     0.000 O
BRANCH 47 50
ATOM     48  C1  NAG B   4      26.289  38.147   3.7160  0.00  0.00     0.000 C
ATOM     49  C2  NAG B   4      25.757  38.586   5.0770  0.00  0.00     0.000 C
ATOM     50  C3  NAG B   4      25.852  40.092   5.2530  0.00  0.00     0.000 C
ATOM     51  C4  NAG B   4      27.146  40.699   4.6990  0.00  0.00     0.000 C
ATOM     52  C5  NAG B   4      27.289  40.426   3.2110  0.00  0.00     0.000 C
ATOM     53  O5  NAG B   4      26.919  39.086   2.8190  0.00  0.00     0.000 O
BRANCH 49 56
ATOM     54   N  NAG B   4      24.307  38.573   4.8180  0.00  0.00     0.000 N
ATOM     56  HD  NAG B   4      23.861  39.191   4.4060  0.00  0.00     0.000 HD
ATOM     56   C  NAG B   4      21.999  37.823   4.8700  0.00  0.00     0.000 C
ATOM     57   O  NAG B   4      23.694  36.848   6.1650  0.00  0.00     0.000 OA
ATOM     58   C  NAG B   4      23.415  37.712   5.3470  0.00  0.00     0.000 C
ENDBRANCH 49 56
ATOM     59   O  NAG B   4      28.854  40.852   1.3500  0.00  0.00     0.000 O
ATOM     61  HD  NAG B   4      28.583  40.330   1.9860  0.00  0.00     0.000 HD
ATOM     61   O  NAG B   4      28.854  40.852   1.3500  0.00  0.00     0.000 O
ATOM     63  HD  NAG B   4      28.583  40.330   1.9860  0.00  0.00     0.000 HD
ENDBRANCH 47 50
ENDBRANCH 34 47
ENDBRANCH 33 37
ENDBRANCH 17 33
ENDBRANCH 16 19
ENDBRANCH 1 16
TORSDOF 10
ENDMDL
MODEL 66
REMARK VINA RESULT:      -5.3     12.183     16.143
ROOT
ATOM      1  C1  GCU B   1      21.167  33.048  15.3250  0.00  0.00     0.000 C
ATOM      2  C2  GCU B   1      21.484  32.091  14.1860  0.00  0.00     0.000 C
ATOM      3  C3  GCU B   1      22.989  31.948  14.0150  0.00  0.00     0.000 C
ATOM      4  C4  GCU B   1      23.638  33.319  13.9100  0.00  0.00     0.000 C
ATOM      5  C5  GCU B   1      23.207  34.223  15.0660  0.00  0.00     0.000 C
ATOM      6  O5  GCU B   1      21.777  34.324  15.0750  0.00  0.00     0.000 O
ATOM      7   O  GCU B   1      20.891  30.835  14.4990  0.00  0.00     0.000 O
ATOM      9  HD  GCU B   1      20.365  30.377  13.9860  0.00  0.00     0.000 HD
ATOM      9   O  GCU B   1      23.293  31.178  12.8500  0.00  0.00     0.000 O
ATOM     11  HD  GCU B   1      22.767  30.719  12.3370  0.00  0.00     0.000 HD
ATOM     11   O  GCU B   1      25.057  33.160  13.9230  0.00  0.00     0.000 O
ATOM     13  HD  GCU B   1      24.531  32.702  13.4100  0.00  0.00     0.000 HD
ENDROOT
BRANCH 5 13
ATOM     13   C  GCU B   1      23.877  35.570  14.9430  0.00  0.00     0.000 C
ATOM     14   O  GCU B   1      23.329  36.491  14.3030  0.00  0.00     0.000 OA
ATOM     15   O  GCU B   1      24.968  35.724  15.5240  0.00  0.00     0.000 OA
ENDBRANCH 5 13
BRANCH 1 16
ATOM     16  O3  NAG B   2      20.064  33.782  15.4870  0.00  0.00     0.000 O
BRANCH 16 19
ATOM     17  C1  NAG B   2      18.085  33.872  18.6970  0.00  0.00     0.000 C
ATOM     18  C2  NAG B   2      18.932  33.265  17.5850  0.00  0.00     0.000 C
ATOM     19  C3  NAG B   2      19.420  34.356  16.6350  0.00  0.00     0.000 C
ATOM     20  C4  NAG B   2      18.244  35.202  16.1470  0.00  0.00     0.000 C
ATOM     21  C5  NAG B   2      17.478  35.757  17.3390  0.00  0.00     0.000 C
ATOM     22  O5  NAG B   2      17.016  34.660  18.1470  0.00  0.00     0.000 O
ATOM     23   O  NAG B   2      18.757  36.256  15.3240  0.00  0.00     0.000 O
ATOM     25  HD  NAG B   2      18.287  35.643  14.9330  0.00  0.00     0.000 HD
ATOM     25   C  NAG B   2      16.294  36.629  16.9260  0.00  0.00     0.000 C
ATOM     26   O  NAG B   2      15.212  35.842  16.4030  0.00  0.00     0.000 O
ATOM     28  HD  NAG B   2      14.742  35.229  16.0120  0.00  0.00     0.000 HD
BRANCH 18 30
ATOM     28   N  NAG B   2      19.806  32.460  18.4160  0.00  0.00     0.000 N
ATOM     30  HD  NAG B   2      19.649  31.945  17.7380  0.00  0.00     0.000 HD
ATOM     30   C  NAG B   2      20.111  31.182  18.1600  0.00  0.00     0.000 C
ATOM     31   C  NAG B   2      20.997  30.466  19.1400  0.00  0.00     0.000 C
ATOM     32   O  NAG B   2      19.691  30.608  17.1740  0.00  0.00     0.000 OA
ENDBRANCH 18 30
BRANCH 17 33
ATOM     33  O4  GCU B   3      17.627  32.792  19.5350  0.00  0.00     0.000 O
BRANCH 33 37
ATOM     34  C1  GCU B   3      16.597  32.824  23.5690  0.00  0.00     0.000 C
ATOM     35  C2  GCU B   3      15.463  32.895  22.5460  0.00  0.00     0.000 C
ATOM     36  C3  GCU B   3      15.972  32.449  21.1920  0.00  0.00     0.000 C
ATOM     37  C4  GCU B   3      17.188  33.279  20.8050  0.00  0.00     0.000 C
ATOM     38  C5  GCU B   3      18.267  33.145  21.8810  0.00  0.00     0.000 C
ATOM     39  O5  GCU B   3      17.723  33.589  23.1290  0.00  0.00     0.000 O
ATOM     40   O  GCU B   3      14.397  32.046  22.9770  0.00  0.00     0.000 O
ATOM     42  HD  GCU B   3      13.869  31.416  22.7030  0.00  0.00     0.000 HD
ATOM     42   O  GCU B   3      14.949  32.571  20.1880  0.00  0.00     0.000 O
ATOM     44  HD  GCU B   3      14.421  31.942  19.9130  0.00  0.00     0.000 HD
BRANCH 38 44
ATOM     44   C  GCU B   3      19.497  33.963  21.5770  0.00  0.00     0.000 C
ATOM     45   O  GCU B   3      19.440  35.194  21.7140  0.00  0.00     0.000 OA
ATOM     46   O  GCU B   3      20.540  33.394  21.2010  0.00  0.00     0.000 OA
ENDBRANCH 38 44
BRANCH 34 47
ATOM     47  O3  NAG B   4      16.198  33.408  24.6900  0.00  0.00     0.000 O
BRANCH 47 50
ATOM     48  C1  NAG B   4      15.376  33.907  28.2720  0.00  0.00     0.000 C
ATOM     49  C2  NAG B   4      15.152  33.539  26.8090  0.00  0.00     0.000 C
ATOM     50  C3  NAG B   4      16.467  33.297  26.0870  0.00  0.00     0.000 C
ATOM     51  C4  NAG B   4      17.574  34.284  26.4730  0.00  0.00     0.000 C
ATOM     52  C5  NAG B   4      17.877  34.219  27.9600  0.00  0.00     0.000 C
ATOM     53  O5  NAG B   4      16.703  34.120  28.7970  0.00  0.00     0.000 O
BRANCH 49 56
ATOM     54   N  NAG B   4      14.746  32.151  27.0890  0.00  0.00     0.000 N
ATOM     56  HD  NAG B   4      15.184  31.584  27.5760  0.00  0.00     0.000 HD
ATOM     56   C  NAG B   4      13.446  30.103  26.9910  0.00  0.00     0.000 C
ATOM     57   O  NAG B   4      13.074  31.928  25.5660  0.00  0.00     0.000 OA
ATOM     58   C  NAG B   4      13.748  31.479  26.4810  0.00  0.00     0.000 C
ENDBRANCH 49 56
ATOM     59   O  NAG B   4      19.345  35.274  29.6420  0.00  0.00     0.000 O
ATOM     61  HD  NAG B   4      18.583  35.256  29.2300  0.00  0.00     0.000 HD
ATOM     61   O  NAG B   4      19.345  35.274  29.6420  0.00  0.00     0.000 O
ATOM     63  HD  NAG B   4      18.583  35.256  29.2300  0.00  0.00     0.000 HD
ENDBRANCH 47 50
ENDBRANCH 34 47
ENDBRANCH 33 37
ENDBRANCH 17 33
ENDBRANCH 16 19
ENDBRANCH 1 16
TORSDOF 10
ENDMDL
MODEL 67
REMARK VINA RESULT:      -5.3     19.052     23.379
ROOT
ATOM      1  C1  GCU B   1      26.058  41.026   9.4700  0.00  0.00     0.000 C
ATOM      2  C2  GCU B   1      27.432  40.934   8.8250  0.00  0.00     0.000 C
ATOM      3  C3  GCU B   1      27.328  40.321   7.4370  0.00  0.00     0.000 C
ATOM      4  C4  GCU B   1      26.551  39.015   7.4970  0.00  0.00     0.000 C
ATOM      5  C5  GCU B   1      25.214  39.202   8.2170  0.00  0.00     0.000 C
ATOM      6  O5  GCU B   1      25.458  39.723   9.5310  0.00  0.00     0.000 O
ATOM      7   O  GCU B   1      27.967  42.252   8.7560  0.00  0.00     0.000 O
ATOM      9  HD  GCU B   1      28.743  42.504   9.0460  0.00  0.00     0.000 HD
ATOM      9   O  GCU B   1      28.629  40.085   6.8920  0.00  0.00     0.000 O
ATOM     11  HD  GCU B   1      29.405  40.338   7.1820  0.00  0.00     0.000 HD
ATOM     11   O  GCU B   1      26.322  38.553   6.1650  0.00  0.00     0.000 O
ATOM     13  HD  GCU B   1      27.098  38.805   6.4550  0.00  0.00     0.000 HD
ENDROOT
BRANCH 5 13
ATOM     13   C  GCU B   1      24.460  37.895   8.2490  0.00  0.00     0.000 C
ATOM     14   O  GCU B   1      23.213  37.884   8.1860  0.00  0.00     0.000 OA
ATOM     15   O  GCU B   1      25.131  36.847   8.3100  0.00  0.00     0.000 OA
ENDBRANCH 5 13
BRANCH 1 16
ATOM     16  O3  NAG B   2      25.771  41.047  10.7740  0.00  0.00     0.000 O
BRANCH 16 19
ATOM     17  C1  NAG B   2      22.735  42.377  12.5730  0.00  0.00     0.000 C
ATOM     18  C2  NAG B   2      23.929  42.400  11.6280  0.00  0.00     0.000 C
ATOM     19  C3  NAG B   2      24.542  41.005  11.5150  0.00  0.00     0.000 C
ATOM     20  C4  NAG B   2      24.842  40.442  12.9030  0.00  0.00     0.000 C
ATOM     21  C5  NAG B   2      23.580  40.465  13.7530  0.00  0.00     0.000 C
ATOM     22  O5  NAG B   2      23.105  41.820  13.8450  0.00  0.00     0.000 O
ATOM     23   O  NAG B   2      25.340  39.108  12.7500  0.00  0.00     0.000 O
ATOM     25  HD  NAG B   2      25.897  39.707  13.0350  0.00  0.00     0.000 HD
ATOM     25   C  NAG B   2      23.802  39.899  15.1540  0.00  0.00     0.000 C
ATOM     26   O  NAG B   2      24.556  40.802  15.9780  0.00  0.00     0.000 O
ATOM     28  HD  NAG B   2      25.113  41.401  16.2630  0.00  0.00     0.000 HD
BRANCH 18 30
ATOM     28   N  NAG B   2      24.060  43.762  11.1460  0.00  0.00     0.000 N
ATOM     30  HD  NAG B   2      23.758  43.336  10.4550  0.00  0.00     0.000 HD
ATOM     30   C  NAG B   2      23.867  44.125   9.8720  0.00  0.00     0.000 C
ATOM     31   C  NAG B   2      24.084  45.569   9.5180  0.00  0.00     0.000 C
ATOM     32   O  NAG B   2      23.530  43.324   9.0220  0.00  0.00     0.000 OA
ENDBRANCH 18 30
BRANCH 17 33
ATOM     33  O4  GCU B   3      22.226  43.723  12.6660  0.00  0.00     0.000 O
BRANCH 33 37
ATOM     34  C1  GCU B   3      18.348  45.150  13.1690  0.00  0.00     0.000 C
ATOM     35  C2  GCU B   3      18.999  44.434  14.3520  0.00  0.00     0.000 C
ATOM     36  C3  GCU B   3      20.498  44.374  14.1460  0.00  0.00     0.000 C
ATOM     37  C4  GCU B   3      20.804  43.726  12.8030  0.00  0.00     0.000 C
ATOM     38  C5  GCU B   3      20.115  44.510  11.6840  0.00  0.00     0.000 C
ATOM     39  O5  GCU B   3      18.706  44.520  11.9360  0.00  0.00     0.000 O
ATOM     40   O  GCU B   3      18.693  45.147  15.5520  0.00  0.00     0.000 O
ATOM     42  HD  GCU B   3      19.060  45.485  16.2600  0.00  0.00     0.000 HD
ATOM     42   O  GCU B   3      21.138  43.642  15.2060  0.00  0.00     0.000 O
ATOM     44  HD  GCU B   3      21.504  43.979  15.9150  0.00  0.00     0.000 HD
BRANCH 38 44
ATOM     44   C  GCU B   3      20.353  43.910  10.3210  0.00  0.00     0.000 C
ATOM     45   O  GCU B   3      20.455  44.671   9.3470  0.00  0.00     0.000 OA
ATOM     46   O  GCU B   3      20.446  42.674  10.1980  0.00  0.00     0.000 OA
ENDBRANCH 38 44
BRANCH 34 47
ATOM     47  O3  NAG B   4      17.032  45.014  13.2590  0.00  0.00     0.000 O
BRANCH 47 50
ATOM     48  C1  NAG B   4      14.000  47.036  13.9500  0.00  0.00     0.000 C
ATOM     49  C2  NAG B   4      15.452  46.582  14.0640  0.00  0.00     0.000 C
ATOM     50  C3  NAG B   4      15.870  45.743  12.8680  0.00  0.00     0.000 C
ATOM     51  C4  NAG B   4      14.791  44.764  12.3920  0.00  0.00     0.000 C
ATOM     52  C5  NAG B   4      13.522  45.496  11.9870  0.00  0.00     0.000 C
ATOM     53  O5  NAG B   4      13.150  46.569  12.8810  0.00  0.00     0.000 O
BRANCH 49 56
ATOM     54   N  NAG B   4      16.037  47.876  13.6730  0.00  0.00     0.000 N
ATOM     56  HD  NAG B   4      15.856  48.314  12.9470  0.00  0.00     0.000 HD
ATOM     56   C  NAG B   4      17.449  49.848  13.7630  0.00  0.00     0.000 C
ATOM     57   O  NAG B   4      17.721  48.009  15.1940  0.00  0.00     0.000 OA
ATOM     58   C  NAG B   4      17.081  48.486  14.2680  0.00  0.00     0.000 C
ENDBRANCH 49 56
ATOM     59   O  NAG B   4      11.252  45.023  11.1400  0.00  0.00     0.000 O
ATOM     61  HD  NAG B   4      11.778  45.158  11.8150  0.00  0.00     0.000 HD
ATOM     61   O  NAG B   4      11.252  45.023  11.1400  0.00  0.00     0.000 O
ATOM     63  HD  NAG B   4      11.778  45.158  11.8150  0.00  0.00     0.000 HD
ENDBRANCH 47 50
ENDBRANCH 34 47
ENDBRANCH 33 37
ENDBRANCH 17 33
ENDBRANCH 16 19
ENDBRANCH 1 16
TORSDOF 10
ENDMDL
MODEL 68
REMARK VINA RESULT:      -5.3     10.668     19.767
ROOT
ATOM      1  C1  GCU B   1      22.380  32.340  14.5740  0.00  0.00     0.000 C
ATOM      2  C2  GCU B   1      23.558  31.437  14.9080  0.00  0.00     0.000 C
ATOM      3  C3  GCU B   1      23.794  30.435  13.7890  0.00  0.00     0.000 C
ATOM      4  C4  GCU B   1      22.500  29.713  13.4490  0.00  0.00     0.000 C
ATOM      5  C5  GCU B   1      21.366  30.707  13.1900  0.00  0.00     0.000 C
ATOM      6  O5  GCU B   1      21.206  31.546  14.3420  0.00  0.00     0.000 O
ATOM      7   O  GCU B   1      24.700  32.267  15.0920  0.00  0.00     0.000 O
ATOM      9  HD  GCU B   1      25.230  32.263  15.7770  0.00  0.00     0.000 HD
ATOM      9   O  GCU B   1      24.794  29.485  14.1660  0.00  0.00     0.000 O
ATOM     11  HD  GCU B   1      25.323  29.481  14.8510  0.00  0.00     0.000 HD
ATOM     11   O  GCU B   1      22.711  28.909  12.2880  0.00  0.00     0.000 O
ATOM     13  HD  GCU B   1      23.240  28.905  12.9730  0.00  0.00     0.000 HD
ENDROOT
BRANCH 5 13
ATOM     13   C  GCU B   1      20.099  29.963  12.8420  0.00  0.00     0.000 C
ATOM     14   O  GCU B   1      20.058  28.718  12.9160  0.00  0.00     0.000 OA
ATOM     15   O  GCU B   1      19.108  30.642  12.5100  0.00  0.00     0.000 OA
ENDBRANCH 5 13
BRANCH 1 16
ATOM     16  O3  NAG B   2      21.583  32.987  15.4270  0.00  0.00     0.000 O
BRANCH 16 19
ATOM     17  C1  NAG B   2      21.116  36.698  15.9130  0.00  0.00     0.000 C
ATOM     18  C2  NAG B   2      21.875  35.385  15.7730  0.00  0.00     0.000 C
ATOM     19  C3  NAG B   2      20.918  34.259  15.3860  0.00  0.00     0.000 C
ATOM     20  C4  NAG B   2      19.736  34.209  16.3540  0.00  0.00     0.000 C
ATOM     21  C5  NAG B   2      19.056  35.569  16.4080  0.00  0.00     0.000 C
ATOM     22  O5  NAG B   2      20.017  36.554  16.8270  0.00  0.00     0.000 O
ATOM     23   O  NAG B   2      18.830  33.193  15.9070  0.00  0.00     0.000 O
ATOM     25  HD  NAG B   2      19.253  33.047  16.6490  0.00  0.00     0.000 HD
ATOM     25   C  NAG B   2      17.851  35.590  17.3460  0.00  0.00     0.000 C
ATOM     26   O  NAG B   2      18.252  35.565  18.7250  0.00  0.00     0.000 O
ATOM     28  HD  NAG B   2      18.675  35.419  19.4670  0.00  0.00     0.000 HD
BRANCH 18 30
ATOM     28   N  NAG B   2      23.262  35.717  16.0340  0.00  0.00     0.000 N
ATOM     30  HD  NAG B   2      23.260  35.528  15.1890  0.00  0.00     0.000 HD
ATOM     30   C  NAG B   2      24.244  35.584  15.1330  0.00  0.00     0.000 C
ATOM     31   C  NAG B   2      25.640  35.928  15.5690  0.00  0.00     0.000 C
ATOM     32   O  NAG B   2      24.027  35.198  14.0020  0.00  0.00     0.000 OA
ENDBRANCH 18 30
BRANCH 17 33
ATOM     33  O4  GCU B   3      22.063  37.709  16.3130  0.00  0.00     0.000 O
BRANCH 33 37
ATOM     34  C1  GCU B   3      22.194  41.795  15.5270  0.00  0.00     0.000 C
ATOM     35  C2  GCU B   3      21.070  41.281  16.4270  0.00  0.00     0.000 C
ATOM     36  C3  GCU B   3      21.421  39.899  16.9370  0.00  0.00     0.000 C
ATOM     37  C4  GCU B   3      21.721  38.981  15.7610  0.00  0.00     0.000 C
ATOM     38  C5  GCU B   3      22.855  39.573  14.9220  0.00  0.00     0.000 C
ATOM     39  O5  GCU B   3      22.456  40.870  14.4680  0.00  0.00     0.000 O
ATOM     40   O  GCU B   3      20.904  42.184  17.5220  0.00  0.00     0.000 O
ATOM     42  HD  GCU B   3      20.841  42.209  18.3860  0.00  0.00     0.000 HD
ATOM     42   O  GCU B   3      20.352  39.353  17.7310  0.00  0.00     0.000 O
ATOM     44  HD  GCU B   3      20.289  39.379  18.5940  0.00  0.00     0.000 HD
BRANCH 38 44
ATOM     44   C  GCU B   3      23.192  38.728  13.7200  0.00  0.00     0.000 C
ATOM     45   O  GCU B   3      24.387  38.539  13.4430  0.00  0.00     0.000 OA
ATOM     46   O  GCU B   3      22.276  38.235  13.0340  0.00  0.00     0.000 OA
ENDBRANCH 38 44
BRANCH 34 47
ATOM     47  O3  NAG B   4      21.787  42.904  14.9270  0.00  0.00     0.000 O
BRANCH 47 50
ATOM     48  C1  NAG B   4      21.617  45.113  11.9520  0.00  0.00     0.000 C
ATOM     49  C2  NAG B   4      22.256  44.295  13.0700  0.00  0.00     0.000 C
ATOM     50  C3  NAG B   4      21.280  43.284  13.6490  0.00  0.00     0.000 C
ATOM     51  C4  NAG B   4      19.853  43.823  13.8060  0.00  0.00     0.000 C
ATOM     52  C5  NAG B   4      19.280  44.264  12.4700  0.00  0.00     0.000 C
ATOM     53  O5  NAG B   4      20.215  44.986  11.6370  0.00  0.00     0.000 O
BRANCH 49 56
ATOM     54   N  NAG B   4      23.038  43.455  12.1460  0.00  0.00     0.000 N
ATOM     56  HD  NAG B   4      22.740  43.089  11.4190  0.00  0.00     0.000 HD
ATOM     56   C  NAG B   4      24.920  42.207  11.2550  0.00  0.00     0.000 C
ATOM     57   O  NAG B   4      24.885  43.101  13.4230  0.00  0.00     0.000 OA
ATOM     58   C  NAG B   4      24.270  42.959  12.3760  0.00  0.00     0.000 C
ENDBRANCH 49 56
ATOM     59   O  NAG B   4      17.225  45.252  11.5250  0.00  0.00     0.000 O
ATOM     61  HD  NAG B   4      18.019  45.365  11.8510  0.00  0.00     0.000 HD
ATOM     61   O  NAG B   4      17.225  45.252  11.5250  0.00  0.00     0.000 O
ATOM     63  HD  NAG B   4      18.019  45.365  11.8510  0.00  0.00     0.000 HD
ENDBRANCH 47 50
ENDBRANCH 34 47
ENDBRANCH 33 37
ENDBRANCH 17 33
ENDBRANCH 16 19
ENDBRANCH 1 16
TORSDOF 10
ENDMDL
MODEL 69
REMARK VINA RESULT:      -5.3     13.505     19.377
ROOT
ATOM      1  C1  GCU B   1      15.766  44.032  15.3450  0.00  0.00     0.000 C
ATOM      2  C2  GCU B   1      14.922  45.278  15.5660  0.00  0.00     0.000 C
ATOM      3  C3  GCU B   1      14.082  45.576  14.3340  0.00  0.00     0.000 C
ATOM      4  C4  GCU B   1      14.959  45.599  13.0920  0.00  0.00     0.000 C
ATOM      5  C5  GCU B   1      15.810  44.332  12.9960  0.00  0.00     0.000 C
ATOM      6  O5  GCU B   1      16.599  44.204  14.1870  0.00  0.00     0.000 O
ATOM      7   O  GCU B   1      14.092  45.042  16.6990  0.00  0.00     0.000 O
ATOM      9  HD  GCU B   1      14.017  45.556  17.3920  0.00  0.00     0.000 HD
ATOM      9   O  GCU B   1      13.409  46.829  14.4750  0.00  0.00     0.000 O
ATOM     11  HD  GCU B   1      13.333  47.343  15.1680  0.00  0.00     0.000 HD
ATOM     11   O  GCU B   1      14.124  45.709  11.9390  0.00  0.00     0.000 O
ATOM     13  HD  GCU B   1      14.048  46.222  12.6320  0.00  0.00     0.000 HD
ENDROOT
BRANCH 5 13
ATOM     13   C  GCU B   1      16.659  44.376  11.7480  0.00  0.00     0.000 C
ATOM     14   O  GCU B   1      17.034  43.318  11.2020  0.00  0.00     0.000 OA
ATOM     15   O  GCU B   1      16.937  45.498  11.2830  0.00  0.00     0.000 OA
ENDBRANCH 5 13
BRANCH 1 16
ATOM     16  O3  NAG B   2      16.922  43.717  15.9350  0.00  0.00     0.000 O
BRANCH 16 19
ATOM     17  C1  NAG B   2      17.756  40.629  17.9340  0.00  0.00     0.000 C
ATOM     18  C2  NAG B   2      16.948  41.845  17.5000  0.00  0.00     0.000 C
ATOM     19  C3  NAG B   2      17.562  42.470  16.2490  0.00  0.00     0.000 C
ATOM     20  C4  NAG B   2      19.051  42.742  16.4650  0.00  0.00     0.000 C
ATOM     21  C5  NAG B   2      19.752  41.460  16.8900  0.00  0.00     0.000 C
ATOM     22  O5  NAG B   2      19.142  40.973  18.0980  0.00  0.00     0.000 O
ATOM     23   O  NAG B   2      19.598  43.254  15.2450  0.00  0.00     0.000 O
ATOM     25  HD  NAG B   2      19.552  43.799  15.9160  0.00  0.00     0.000 HD
ATOM     25   C  NAG B   2      21.251  41.653  17.1090  0.00  0.00     0.000 C
ATOM     26   O  NAG B   2      21.521  42.381  18.3170  0.00  0.00     0.000 O
ATOM     28  HD  NAG B   2      21.476  42.926  18.9890  0.00  0.00     0.000 HD
BRANCH 18 30
ATOM     28   N  NAG B   2      15.617  41.269  17.4850  0.00  0.00     0.000 N
ATOM     30  HD  NAG B   2      15.499  42.028  17.8860  0.00  0.00     0.000 HD
ATOM     30   C  NAG B   2      14.562  41.812  18.1060  0.00  0.00     0.000 C
ATOM     31   C  NAG B   2      13.256  41.072  18.0360  0.00  0.00     0.000 C
ATOM     32   O  NAG B   2      14.645  42.863  18.7100  0.00  0.00     0.000 OA
ENDBRANCH 18 30
BRANCH 17 33
ATOM     33  O4  GCU B   3      17.150  40.108  19.1340  0.00  0.00     0.000 O
BRANCH 33 37
ATOM     34  C1  GCU B   3      17.195  36.262  20.7260  0.00  0.00     0.000 C
ATOM     35  C2  GCU B   3      18.296  37.226  21.1690  0.00  0.00     0.000 C
ATOM     36  C3  GCU B   3      17.886  38.647  20.8440  0.00  0.00     0.000 C
ATOM     37  C4  GCU B   3      17.547  38.755  19.3640  0.00  0.00     0.000 C
ATOM     38  C5  GCU B   3      16.439  37.759  19.0160  0.00  0.00     0.000 C
ATOM     39  O5  GCU B   3      16.893  36.441  19.3390  0.00  0.00     0.000 O
ATOM     40   O  GCU B   3      18.501  37.081  22.5760  0.00  0.00     0.000 O
ATOM     42  HD  GCU B   3      18.565  37.537  23.3090  0.00  0.00     0.000 HD
ATOM     42   O  GCU B   3      18.931  39.577  21.1810  0.00  0.00     0.000 O
ATOM     44  HD  GCU B   3      18.995  40.033  21.9150  0.00  0.00     0.000 HD
BRANCH 38 44
ATOM     44   C  GCU B   3      16.066  37.791  17.5550  0.00  0.00     0.000 C
ATOM     45   O  GCU B   3      14.963  38.260  17.2340  0.00  0.00     0.000 OA
ATOM     46   O  GCU B   3      16.864  37.355  16.7030  0.00  0.00     0.000 OA
ENDBRANCH 38 44
BRANCH 34 47
ATOM     47  O3  NAG B   4      17.649  35.021  20.8250  0.00  0.00     0.000 O
BRANCH 47 50
ATOM     48  C1  NAG B   4      15.401  32.092  21.1780  0.00  0.00     0.000 C
ATOM     49  C2  NAG B   4      16.253  33.142  20.4730  0.00  0.00     0.000 C
ATOM     50  C3  NAG B   4      17.238  33.795  21.4280  0.00  0.00     0.000 C
ATOM     51  C4  NAG B   4      16.654  34.082  22.8170  0.00  0.00     0.000 C
ATOM     52  C5  NAG B   4      16.178  32.804  23.4890  0.00  0.00     0.000 C
ATOM     53  O5  NAG B   4      15.477  31.900  22.6060  0.00  0.00     0.000 O
BRANCH 49 56
ATOM     54   N  NAG B   4      17.270  32.307  19.8110  0.00  0.00     0.000 N
ATOM     56  HD  NAG B   4      17.998  32.011  20.1770  0.00  0.00     0.000 HD
ATOM     56   C  NAG B   4      18.405  31.082  18.0490  0.00  0.00     0.000 C
ATOM     57   O  NAG B   4      16.580  32.501  17.6540  0.00  0.00     0.000 OA
ATOM     58   C  NAG B   4      17.338  32.036  18.4920  0.00  0.00     0.000 C
ENDBRANCH 49 56
ATOM     59   O  NAG B   4      15.112  32.051  25.5840  0.00  0.00     0.000 O
ATOM     61  HD  NAG B   4      15.029  32.308  24.7610  0.00  0.00     0.000 HD
ATOM     61   O  NAG B   4      15.112  32.051  25.5840  0.00  0.00     0.000 O
ATOM     63  HD  NAG B   4      15.029  32.308  24.7610  0.00  0.00     0.000 HD
ENDBRANCH 47 50
ENDBRANCH 34 47
ENDBRANCH 33 37
ENDBRANCH 17 33
ENDBRANCH 16 19
ENDBRANCH 1 16
TORSDOF 10
ENDMDL
MODEL 70
REMARK VINA RESULT:      -5.2     26.457     33.056
ROOT
ATOM      1  C1  GCU B   1      19.030  49.123   3.3590  0.00  0.00     0.000 C
ATOM      2  C2  GCU B   1      19.846  48.708   2.1450  0.00  0.00     0.000 C
ATOM      3  C3  GCU B   1      19.843  47.195   1.9930  0.00  0.00     0.000 C
ATOM      4  C4  GCU B   1      20.247  46.535   3.3030  0.00  0.00     0.000 C
ATOM      5  C5  GCU B   1      19.408  47.065   4.4670  0.00  0.00     0.000 C
ATOM      6  O5  GCU B   1      19.551  48.490   4.5380  0.00  0.00     0.000 O
ATOM      7   O  GCU B   1      19.269  49.331   1.0020  0.00  0.00     0.000 O
ATOM      9  HD  GCU B   1      19.688  49.810   0.4150  0.00  0.00     0.000 HD
ATOM      9   O  GCU B   1      20.735  46.791   0.9520  0.00  0.00     0.000 O
ATOM     11  HD  GCU B   1      21.154  47.270   0.3650  0.00  0.00     0.000 HD
ATOM     11   O  GCU B   1      20.069  45.123   3.1820  0.00  0.00     0.000 O
ATOM     13  HD  GCU B   1      20.488  45.603   2.5950  0.00  0.00     0.000 HD
ENDROOT
BRANCH 5 13
ATOM     13   C  GCU B   1      19.821  46.383   5.7500  0.00  0.00     0.000 C
ATOM     14   O  GCU B   1      19.092  46.446   6.7610  0.00  0.00     0.000 OA
ATOM     15   O  GCU B   1      20.890  45.743   5.7410  0.00  0.00     0.000 OA
ENDBRANCH 5 13
BRANCH 1 16
ATOM     16  O3  NAG B   2      19.162  50.234   4.0870  0.00  0.00     0.000 O
BRANCH 16 19
ATOM     17  C1  NAG B   2      16.556  52.692   5.2690  0.00  0.00     0.000 C
ATOM     18  C2  NAG B   2      17.329  51.834   4.2760  0.00  0.00     0.000 C
ATOM     19  C3  NAG B   2      18.302  50.916   5.0130  0.00  0.00     0.000 C
ATOM     20  C4  NAG B   2      19.178  51.726   5.9680  0.00  0.00     0.000 C
ATOM     21  C5  NAG B   2      18.301  52.537   6.9110  0.00  0.00     0.000 C
ATOM     22  O5  NAG B   2      17.457  53.404   6.1320  0.00  0.00     0.000 O
ATOM     23   O  NAG B   2      20.017  50.818   6.6910  0.00  0.00     0.000 O
ATOM     25  HD  NAG B   2      20.403  51.346   6.1240  0.00  0.00     0.000 HD
ATOM     25   C  NAG B   2      19.111  53.362   7.9080  0.00  0.00     0.000 C
ATOM     26   O  NAG B   2      19.738  54.490   7.2770  0.00  0.00     0.000 O
ATOM     28  HD  NAG B   2      20.125  55.018   6.7100  0.00  0.00     0.000 HD
BRANCH 18 30
ATOM     28   N  NAG B   2      16.152  51.532   3.4830  0.00  0.00     0.000 N
ATOM     30  HD  NAG B   2      16.798  51.463   2.9110  0.00  0.00     0.000 HD
ATOM     30   C  NAG B   2      16.171  51.349   2.1570  0.00  0.00     0.000 C
ATOM     31   C  NAG B   2      14.860  51.087   1.4700  0.00  0.00     0.000 C
ATOM     32   O  NAG B   2      17.205  51.393   1.5200  0.00  0.00     0.000 OA
ENDBRANCH 18 30
BRANCH 17 33
ATOM     33  O4  GCU B   3      15.686  53.557   4.5120  0.00  0.00     0.000 O
BRANCH 33 37
ATOM     34  C1  GCU B   3      11.986  55.143   5.5740  0.00  0.00     0.000 C
ATOM     35  C2  GCU B   3      13.204  56.062   5.6650  0.00  0.00     0.000 C
ATOM     36  C3  GCU B   3      14.343  55.476   4.8590  0.00  0.00     0.000 C
ATOM     37  C4  GCU B   3      14.622  54.054   5.3260  0.00  0.00     0.000 C
ATOM     38  C5  GCU B   3      13.351  53.212   5.1960  0.00  0.00     0.000 C
ATOM     39  O5  GCU B   3      12.321  53.815   5.9860  0.00  0.00     0.000 O
ATOM     40   O  GCU B   3      12.852  57.351   5.1580  0.00  0.00     0.000 O
ATOM     42  HD  GCU B   3      13.115  57.966   4.6070  0.00  0.00     0.000 HD
ATOM     42   O  GCU B   3      15.532  56.278   4.9810  0.00  0.00     0.000 O
ATOM     44  HD  GCU B   3      15.795  56.893   4.4300  0.00  0.00     0.000 HD
BRANCH 38 44
ATOM     44   C  GCU B   3      13.544  51.792   5.6660  0.00  0.00     0.000 C
ATOM     45   O  GCU B   3      13.561  51.567   6.8860  0.00  0.00     0.000 OA
ATOM     46   O  GCU B   3      13.677  50.877   4.8300  0.00  0.00     0.000 OA
ENDBRANCH 38 44
BRANCH 34 47
ATOM     47  O3  NAG B   4      11.073  55.556   6.4420  0.00  0.00     0.000 O
BRANCH 47 50
ATOM     48  C1  NAG B   4       7.783  57.083   7.2170  0.00  0.00     0.000 C
ATOM     49  C2  NAG B   4       9.185  56.971   6.6260  0.00  0.00     0.000 C
ATOM     50  C3  NAG B   4       9.653  55.526   6.5690  0.00  0.00     0.000 C
ATOM     51  C4  NAG B   4       9.269  54.704   7.8050  0.00  0.00     0.000 C
ATOM     52  C5  NAG B   4       7.762  54.666   7.9950  0.00  0.00     0.000 C
ATOM     53  O5  NAG B   4       7.106  55.932   7.7650  0.00  0.00     0.000 O
BRANCH 49 56
ATOM     54   N  NAG B   4       8.762  57.146   5.2250  0.00  0.00     0.000 N
ATOM     56  HD  NAG B   4       8.164  56.673   4.8140  0.00  0.00     0.000 HD
ATOM     56   C  NAG B   4       8.710  58.028   2.9640  0.00  0.00     0.000 C
ATOM     57   O  NAG B   4      10.395  58.555   4.5070  0.00  0.00     0.000 OA
ATOM     58   C  NAG B   4       9.368  57.924   4.3060  0.00  0.00     0.000 C
ENDBRANCH 49 56
ATOM     59   O  NAG B   4       6.072  53.739   9.5380  0.00  0.00     0.000 O
ATOM     61  HD  NAG B   4       6.585  54.399   9.3100  0.00  0.00     0.000 HD
ATOM     61   O  NAG B   4       6.072  53.739   9.5380  0.00  0.00     0.000 O
ATOM     63  HD  NAG B   4       6.585  54.399   9.3100  0.00  0.00     0.000 HD
ENDBRANCH 47 50
ENDBRANCH 34 47
ENDBRANCH 33 37
ENDBRANCH 17 33
ENDBRANCH 16 19
ENDBRANCH 1 16
TORSDOF 10
ENDMDL
MODEL 71
REMARK VINA RESULT:      -5.2     22.580     25.488
ROOT
ATOM      1  C1  GCU B   1      13.448  24.419  37.3480  0.00  0.00     0.000 C
ATOM      2  C2  GCU B   1      13.823  25.503  38.3480  0.00  0.00     0.000 C
ATOM      3  C3  GCU B   1      13.338  26.861  37.8660  0.00  0.00     0.000 C
ATOM      4  C4  GCU B   1      13.800  27.109  36.4380  0.00  0.00     0.000 C
ATOM      5  C5  GCU B   1      13.429  25.936  35.5290  0.00  0.00     0.000 C
ATOM      6  O5  GCU B   1      13.999  24.732  36.0590  0.00  0.00     0.000 O
ATOM      7   O  GCU B   1      13.225  25.166  39.5950  0.00  0.00     0.000 O
ATOM      9  HD  GCU B   1      13.630  25.112  40.3580  0.00  0.00     0.000 HD
ATOM      9   O  GCU B   1      13.824  27.901  38.7190  0.00  0.00     0.000 O
ATOM     11  HD  GCU B   1      14.230  27.847  39.4820  0.00  0.00     0.000 HD
ATOM     11   O  GCU B   1      13.190  28.306  35.9570  0.00  0.00     0.000 O
ATOM     13  HD  GCU B   1      13.596  28.252  36.7200  0.00  0.00     0.000 HD
ENDROOT
BRANCH 5 13
ATOM     13   C  GCU B   1      13.887  26.215  34.1180  0.00  0.00     0.000 C
ATOM     14   O  GCU B   1      14.922  25.678  33.6720  0.00  0.00     0.000 OA
ATOM     15   O  GCU B   1      13.179  26.970  33.4240  0.00  0.00     0.000 OA
ENDBRANCH 5 13
BRANCH 1 16
ATOM     16  O3  NAG B   2      14.058  23.248  37.1510  0.00  0.00     0.000 O
BRANCH 16 19
ATOM     17  C1  NAG B   2      12.590  19.778  36.9740  0.00  0.00     0.000 C
ATOM     18  C2  NAG B   2      12.855  21.163  37.5500  0.00  0.00     0.000 C
ATOM     19  C3  NAG B   2      13.646  22.009  36.5540  0.00  0.00     0.000 C
ATOM     20  C4  NAG B   2      14.898  21.262  36.0970  0.00  0.00     0.000 C
ATOM     21  C5  NAG B   2      14.511  19.900  35.5390  0.00  0.00     0.000 C
ATOM     22  O5  NAG B   2      13.818  19.159  36.5580  0.00  0.00     0.000 O
ATOM     23   O  NAG B   2      15.563  22.057  35.1100  0.00  0.00     0.000 O
ATOM     25  HD  NAG B   2      15.963  21.959  35.8720  0.00  0.00     0.000 HD
ATOM     25   C  NAG B   2      15.715  19.100  35.0460  0.00  0.00     0.000 C
ATOM     26   O  NAG B   2      16.502  18.599  36.1380  0.00  0.00     0.000 O
ATOM     28  HD  NAG B   2      16.901  18.500  36.9010  0.00  0.00     0.000 HD
BRANCH 18 30
ATOM     28   N  NAG B   2      11.499  21.375  38.0200  0.00  0.00     0.000 N
ATOM     30  HD  NAG B   2      11.979  21.798  38.6040  0.00  0.00     0.000 HD
ATOM     30   C  NAG B   2      11.196  21.977  39.1770  0.00  0.00     0.000 C
ATOM     31   C  NAG B   2       9.743  22.082  39.5480  0.00  0.00     0.000 C
ATOM     32   O  NAG B   2      12.055  22.424  39.9110  0.00  0.00     0.000 OA
ENDBRANCH 18 30
BRANCH 17 33
ATOM     33  O4  GCU B   3      11.876  19.020  37.9710  0.00  0.00     0.000 O
BRANCH 33 37
ATOM     34  C1  GCU B   3       9.545  15.588  37.6270  0.00  0.00     0.000 C
ATOM     35  C2  GCU B   3      11.058  15.409  37.7530  0.00  0.00     0.000 C
ATOM     36  C3  GCU B   3      11.677  16.683  38.2860  0.00  0.00     0.000 C
ATOM     37  C4  GCU B   3      11.279  17.855  37.4000  0.00  0.00     0.000 C
ATOM     38  C5  GCU B   3       9.754  17.957  37.3360  0.00  0.00     0.000 C
ATOM     39  O5  GCU B   3       9.236  16.727  36.8180  0.00  0.00     0.000 O
ATOM     40   O  GCU B   3      11.323  14.321  38.6420  0.00  0.00     0.000 O
ATOM     42  HD  GCU B   3      11.791  14.104  39.3370  0.00  0.00     0.000 HD
ATOM     42   O  GCU B   3      13.110  16.575  38.3500  0.00  0.00     0.000 O
ATOM     44  HD  GCU B   3      13.578  16.358  39.0450  0.00  0.00     0.000 HD
BRANCH 38 44
ATOM     44   C  GCU B   3       9.282  19.084  36.4520  0.00  0.00     0.000 C
ATOM     45   O  GCU B   3       8.914  20.142  36.9840  0.00  0.00     0.000 OA
ATOM     46   O  GCU B   3       9.274  18.937  35.2150  0.00  0.00     0.000 OA
ENDBRANCH 38 44
BRANCH 34 47
ATOM     47  O3  NAG B   4       9.045  14.551  36.9710  0.00  0.00     0.000 O
BRANCH 47 50
ATOM     48  C1  NAG B   4       6.796  12.624  34.7380  0.00  0.00     0.000 C
ATOM     49  C2  NAG B   4       7.271  13.308  36.0150  0.00  0.00     0.000 C
ATOM     50  C3  NAG B   4       8.378  14.311  35.7330  0.00  0.00     0.000 C
ATOM     51  C4  NAG B   4       9.395  13.831  34.6910  0.00  0.00     0.000 C
ATOM     52  C5  NAG B   4       8.723  13.538  33.3590  0.00  0.00     0.000 C
ATOM     53  O5  NAG B   4       7.459  12.847  33.4760  0.00  0.00     0.000 O
BRANCH 49 56
ATOM     54   N  NAG B   4       6.074  14.163  36.1020  0.00  0.00     0.000 N
ATOM     56  HD  NAG B   4       5.680  14.550  35.4350  0.00  0.00     0.000 HD
ATOM     56   C  NAG B   4       4.246  15.412  37.0950  0.00  0.00     0.000 C
ATOM     57   O  NAG B   4       5.982  14.462  38.3530  0.00  0.00     0.000 OA
ATOM     58   C  NAG B   4       5.521  14.639  37.2350  0.00  0.00     0.000 C
ENDBRANCH 49 56
ATOM     59   O  NAG B   4       9.283  12.740  31.0920  0.00  0.00     0.000 O
ATOM     61  HD  NAG B   4       9.019  12.560  31.8960  0.00  0.00     0.000 HD
ATOM     61   O  NAG B   4       9.283  12.740  31.0920  0.00  0.00     0.000 O
ATOM     63  HD  NAG B   4       9.019  12.560  31.8960  0.00  0.00     0.000 HD
ENDBRANCH 47 50
ENDBRANCH 34 47
ENDBRANCH 33 37
ENDBRANCH 17 33
ENDBRANCH 16 19
ENDBRANCH 1 16
TORSDOF 10
ENDMDL
MODEL 72
REMARK VINA RESULT:      -5.2     16.517     21.280
ROOT
ATOM      1  C1  GCU B   1      11.530  12.298  28.1690  0.00  0.00     0.000 C
ATOM      2  C2  GCU B   1      10.416  13.002  28.9280  0.00  0.00     0.000 C
ATOM      3  C3  GCU B   1       9.104  12.250  28.7640  0.00  0.00     0.000 C
ATOM      4  C4  GCU B   1       8.824  11.996  27.2910  0.00  0.00     0.000 C
ATOM      5  C5  GCU B   1      10.027  11.342  26.6080  0.00  0.00     0.000 C
ATOM      6  O5  GCU B   1      11.178  12.180  26.7810  0.00  0.00     0.000 O
ATOM      7   O  GCU B   1      10.796  13.060  30.2990  0.00  0.00     0.000 O
ATOM      9  HD  GCU B   1      10.814  13.770  30.7940  0.00  0.00     0.000 HD
ATOM      9   O  GCU B   1       8.024  12.989  29.3410  0.00  0.00     0.000 O
ATOM     11  HD  GCU B   1       8.042  13.699  29.8360  0.00  0.00     0.000 HD
ATOM     11   O  GCU B   1       7.683  11.145  27.1780  0.00  0.00     0.000 O
ATOM     13  HD  GCU B   1       7.701  11.855  27.6740  0.00  0.00     0.000 HD
ENDROOT
BRANCH 5 13
ATOM     13   C  GCU B   1       9.716  11.089  25.1520  0.00  0.00     0.000 C
ATOM     14   O  GCU B   1       8.749  11.658  24.6050  0.00  0.00     0.000 OA
ATOM     15   O  GCU B   1      10.474  10.322  24.5280  0.00  0.00     0.000 OA
ENDBRANCH 5 13
BRANCH 1 16
ATOM     16  O3  NAG B   2      12.647  12.839  27.6770  0.00  0.00     0.000 O
BRANCH 16 19
ATOM     17  C1  NAG B   2      16.159  11.506  28.0230  0.00  0.00     0.000 C
ATOM     18  C2  NAG B   2      14.757  11.902  28.4680  0.00  0.00     0.000 C
ATOM     19  C3  NAG B   2      13.908  12.292  27.2600  0.00  0.00     0.000 C
ATOM     20  C4  NAG B   2      14.629  13.347  26.4210  0.00  0.00     0.000 C
ATOM     21  C5  NAG B   2      16.011  12.841  26.0330  0.00  0.00     0.000 C
ATOM     22  O5  NAG B   2      16.752  12.547  27.2310  0.00  0.00     0.000 O
ATOM     23   O  NAG B   2      13.834  13.624  25.2630  0.00  0.00     0.000 O
ATOM     25  HD  NAG B   2      13.907  14.255  25.8510  0.00  0.00     0.000 HD
ATOM     25   C  NAG B   2      16.786  13.840  25.1770  0.00  0.00     0.000 C
ATOM     26   O  NAG B   2      17.246  14.958  25.9520  0.00  0.00     0.000 O
ATOM     28  HD  NAG B   2      17.319  15.590  26.5400  0.00  0.00     0.000 HD
BRANCH 18 30
ATOM     28   N  NAG B   2      14.717  11.750  29.9100  0.00  0.00     0.000 N
ATOM     30  HD  NAG B   2      14.234  11.089  29.6290  0.00  0.00     0.000 HD
ATOM     30   C  NAG B   2      13.959  10.848  30.5450  0.00  0.00     0.000 C
ATOM     31   C  NAG B   2      13.993  10.844  32.0480  0.00  0.00     0.000 C
ATOM     32   O  NAG B   2      13.263  10.058  29.9410  0.00  0.00     0.000 OA
ENDBRANCH 18 30
BRANCH 17 33
ATOM     33  O4  GCU B   3      16.917  11.185  29.2070  0.00  0.00     0.000 O
BRANCH 33 37
ATOM     34  C1  GCU B   3      20.144   8.614  29.7660  0.00  0.00     0.000 C
ATOM     35  C2  GCU B   3      20.433  10.001  29.1890  0.00  0.00     0.000 C
ATOM     36  C3  GCU B   3      19.256  10.915  29.4540  0.00  0.00     0.000 C
ATOM     37  C4  GCU B   3      17.984  10.285  28.9040  0.00  0.00     0.000 C
ATOM     38  C5  GCU B   3      17.777   8.908  29.5380  0.00  0.00     0.000 C
ATOM     39  O5  GCU B   3      18.918   8.094  29.2440  0.00  0.00     0.000 O
ATOM     40   O  GCU B   3      21.612  10.522  29.8050  0.00  0.00     0.000 O
ATOM     42  HD  GCU B   3      21.923  11.226  30.2030  0.00  0.00     0.000 HD
ATOM     42   O  GCU B   3      19.462  12.210  28.8600  0.00  0.00     0.000 O
ATOM     44  HD  GCU B   3      19.773  12.913  29.2590  0.00  0.00     0.000 HD
BRANCH 38 44
ATOM     44   C  GCU B   3      16.545   8.208  29.0210  0.00  0.00     0.000 C
ATOM     45   O  GCU B   3      15.686   7.839  29.8360  0.00  0.00     0.000 OA
ATOM     46   O  GCU B   3      16.410   8.018  27.7970  0.00  0.00     0.000 OA
ENDBRANCH 38 44
BRANCH 34 47
ATOM     47  O3  NAG B   4      21.082   7.775  29.3510  0.00  0.00     0.000 O
BRANCH 47 50
ATOM     48  C1  NAG B   4      22.616   5.865  26.5660  0.00  0.00     0.000 C
ATOM     49  C2  NAG B   4      21.517   6.377  27.4910  0.00  0.00     0.000 C
ATOM     50  C3  NAG B   4      21.946   7.637  28.2250  0.00  0.00     0.000 C
ATOM     51  C4  NAG B   4      23.403   7.607  28.7020  0.00  0.00     0.000 C
ATOM     52  C5  NAG B   4      24.361   7.436  27.5350  0.00  0.00     0.000 C
ATOM     53  O5  NAG B   4      23.926   6.471  26.5510  0.00  0.00     0.000 O
BRANCH 49 56
ATOM     54   N  NAG B   4      20.666   7.060  26.5000  0.00  0.00     0.000 N
ATOM     56  HD  NAG B   4      20.845   7.815  26.1160  0.00  0.00     0.000 HD
ATOM     56   C  NAG B   4      18.753   7.504  25.0740  0.00  0.00     0.000 C
ATOM     57   O  NAG B   4      18.762   5.839  26.7250  0.00  0.00     0.000 OA
ATOM     58   C  NAG B   4      19.398   6.731  26.1830  0.00  0.00     0.000 C
ENDBRANCH 49 56
ATOM     59   O  NAG B   4      26.781   7.237  27.0850  0.00  0.00     0.000 O
ATOM     61  HD  NAG B   4      26.022   6.850  27.2400  0.00  0.00     0.000 HD
ATOM     61   O  NAG B   4      26.781   7.237  27.0850  0.00  0.00     0.000 O
ATOM     63  HD  NAG B   4      26.022   6.850  27.2400  0.00  0.00     0.000 HD
ENDBRANCH 47 50
ENDBRANCH 34 47
ENDBRANCH 33 37
ENDBRANCH 17 33
ENDBRANCH 16 19
ENDBRANCH 1 16
TORSDOF 10
ENDMDL
MODEL 73
REMARK VINA RESULT:      -5.2     11.959     14.902
ROOT
ATOM      1  C1  GCU B   1      23.821  38.186  12.6560  0.00  0.00     0.000 C
ATOM      2  C2  GCU B   1      23.884  39.705  12.6770  0.00  0.00     0.000 C
ATOM      3  C3  GCU B   1      23.763  40.262  11.2670  0.00  0.00     0.000 C
ATOM      4  C4  GCU B   1      24.766  39.585  10.3460  0.00  0.00     0.000 C
ATOM      5  C5  GCU B   1      24.662  38.062  10.4450  0.00  0.00     0.000 C
ATOM      6  O5  GCU B   1      24.859  37.665  11.8090  0.00  0.00     0.000 O
ATOM      7   O  GCU B   1      22.817  40.171  13.4970  0.00  0.00     0.000 O
ATOM      9  HD  GCU B   1      22.886  40.722  14.1610  0.00  0.00     0.000 HD
ATOM      9   O  GCU B   1      23.980  41.676  11.2630  0.00  0.00     0.000 O
ATOM     11  HD  GCU B   1      24.050  42.227  11.9280  0.00  0.00     0.000 HD
ATOM     11   O  GCU B   1      24.515  40.001   9.0040  0.00  0.00     0.000 O
ATOM     13  HD  GCU B   1      24.584  40.552   9.6680  0.00  0.00     0.000 HD
ENDROOT
BRANCH 5 13
ATOM     13   C  GCU B   1      25.659  37.418   9.5120  0.00  0.00     0.000 C
ATOM     14   O  GCU B   1      25.436  36.286   9.0350  0.00  0.00     0.000 OA
ATOM     15   O  GCU B   1      26.681  38.070   9.2240  0.00  0.00     0.000 OA
ENDBRANCH 5 13
BRANCH 1 16
ATOM     16  O3  NAG B   2      24.339  37.338  13.5470  0.00  0.00     0.000 O
BRANCH 16 19
ATOM     17  C1  NAG B   2      22.923  34.817  15.9690  0.00  0.00     0.000 C
ATOM     18  C2  NAG B   2      23.181  36.190  15.3620  0.00  0.00     0.000 C
ATOM     19  C3  NAG B   2      23.931  36.052  14.0390  0.00  0.00     0.000 C
ATOM     20  C4  NAG B   2      25.183  35.195  14.2240  0.00  0.00     0.000 C
ATOM     21  C5  NAG B   2      24.803  33.851  14.8300  0.00  0.00     0.000 C
ATOM     22  O5  NAG B   2      24.149  34.078  16.0910  0.00  0.00     0.000 O
ATOM     23   O  NAG B   2      25.809  35.029  12.9460  0.00  0.00     0.000 O
ATOM     25  HD  NAG B   2      26.229  35.507  13.5330  0.00  0.00     0.000 HD
ATOM     25   C  NAG B   2      26.006  32.932  15.0300  0.00  0.00     0.000 C
ATOM     26   O  NAG B   2      26.829  33.366  16.1240  0.00  0.00     0.000 O
ATOM     28  HD  NAG B   2      27.250  33.844  16.7110  0.00  0.00     0.000 HD
BRANCH 18 30
ATOM     28   N  NAG B   2      21.850  36.660  15.6960  0.00  0.00     0.000 N
ATOM     30  HD  NAG B   2      22.306  37.393  15.6260  0.00  0.00     0.000 HD
ATOM     30   C  NAG B   2      21.553  37.940  15.9520  0.00  0.00     0.000 C
ATOM     31   C  NAG B   2      20.134  38.265  16.3280  0.00  0.00     0.000 C
ATOM     32   O  NAG B   2      22.391  38.817  15.8870  0.00  0.00     0.000 OA
ENDBRANCH 18 30
BRANCH 17 33
ATOM     33  O4  GCU B   3      22.247  35.017  17.2270  0.00  0.00     0.000 O
BRANCH 33 37
ATOM     34  C1  GCU B   3      19.897  32.424  19.4830  0.00  0.00     0.000 C
ATOM     35  C2  GCU B   3      21.408  32.396  19.7150  0.00  0.00     0.000 C
ATOM     36  C3  GCU B   3      22.031  33.655  19.1510  0.00  0.00     0.000 C
ATOM     37  C4  GCU B   3      21.647  33.804  17.6860  0.00  0.00     0.000 C
ATOM     38  C5  GCU B   3      20.123  33.825  17.5530  0.00  0.00     0.000 C
ATOM     39  O5  GCU B   3      19.602  32.608  18.0950  0.00  0.00     0.000 O
ATOM     40   O  GCU B   3      21.659  32.306  21.1190  0.00  0.00     0.000 O
ATOM     42  HD  GCU B   3      22.121  32.667  21.7560  0.00  0.00     0.000 HD
ATOM     42   O  GCU B   3      23.463  33.630  19.2870  0.00  0.00     0.000 O
ATOM     44  HD  GCU B   3      23.925  33.991  19.9250  0.00  0.00     0.000 HD
BRANCH 38 44
ATOM     44   C  GCU B   3      19.666  33.945  16.1210  0.00  0.00     0.000 C
ATOM     45   O  GCU B   3      19.774  32.958  15.3780  0.00  0.00     0.000 OA
ATOM     46   O  GCU B   3      19.189  35.021  15.7130  0.00  0.00     0.000 OA
ENDBRANCH 38 44
BRANCH 34 47
ATOM     47  O3  NAG B   4      19.395  31.237  19.7910  0.00  0.00     0.000 O
BRANCH 47 50
ATOM     48  C1  NAG B   4      16.045  30.959  21.3580  0.00  0.00     0.000 C
ATOM     49  C2  NAG B   4      17.260  31.636  20.7330  0.00  0.00     0.000 C
ATOM     50  C3  NAG B   4      18.105  30.648  19.9450  0.00  0.00     0.000 C
ATOM     51  C4  NAG B   4      18.247  29.279  20.6210  0.00  0.00     0.000 C
ATOM     52  C5  NAG B   4      16.892  28.624  20.8290  0.00  0.00     0.000 C
ATOM     53  O5  NAG B   4      15.863  29.529  21.2870  0.00  0.00     0.000 O
BRANCH 49 56
ATOM     54   N  NAG B   4      16.610  32.254  19.5650  0.00  0.00     0.000 N
ATOM     56  HD  NAG B   4      16.327  31.834  18.8620  0.00  0.00     0.000 HD
ATOM     56   C  NAG B   4      15.736  33.988  18.1080  0.00  0.00     0.000 C
ATOM     57   O  NAG B   4      17.044  34.442  20.0010  0.00  0.00     0.000 OA
ATOM     58   C  NAG B   4      16.530  33.576  19.3090  0.00  0.00     0.000 C
ENDBRANCH 49 56
ATOM     59   O  NAG B   4      15.909  26.565  21.7730  0.00  0.00     0.000 O
ATOM     61  HD  NAG B   4      16.148  27.390  21.8830  0.00  0.00     0.000 HD
ATOM     61   O  NAG B   4      15.909  26.565  21.7730  0.00  0.00     0.000 O
ATOM     63  HD  NAG B   4      16.148  27.390  21.8830  0.00  0.00     0.000 HD
ENDBRANCH 47 50
ENDBRANCH 34 47
ENDBRANCH 33 37
ENDBRANCH 17 33
ENDBRANCH 16 19
ENDBRANCH 1 16
TORSDOF 10
ENDMDL
MODEL 74
REMARK VINA RESULT:      -5.2     22.699     26.513
ROOT
ATOM      1  C1  GCU B   1      15.364  20.599  36.7290  0.00  0.00     0.000 C
ATOM      2  C2  GCU B   1      16.511  21.582  36.9060  0.00  0.00     0.000 C
ATOM      3  C3  GCU B   1      16.734  22.376  35.6270  0.00  0.00     0.000 C
ATOM      4  C4  GCU B   1      16.866  21.434  34.4410  0.00  0.00     0.000 C
ATOM      5  C5  GCU B   1      15.697  20.448  34.3880  0.00  0.00     0.000 C
ATOM      6  O5  GCU B   1      15.638  19.723  35.6240  0.00  0.00     0.000 O
ATOM      7   O  GCU B   1      16.175  22.449  37.9850  0.00  0.00     0.000 O
ATOM      9  HD  GCU B   1      16.669  22.619  38.6760  0.00  0.00     0.000 HD
ATOM      9   O  GCU B   1      17.908  23.185  35.7350  0.00  0.00     0.000 O
ATOM     11  HD  GCU B   1      18.401  23.356  36.4260  0.00  0.00     0.000 HD
ATOM     11   O  GCU B   1      16.901  22.206  33.2400  0.00  0.00     0.000 O
ATOM     13  HD  GCU B   1      17.394  22.376  33.9310  0.00  0.00     0.000 HD
ENDROOT
BRANCH 5 13
ATOM     13   C  GCU B   1      15.846  19.536  33.1940  0.00  0.00     0.000 C
ATOM     14   O  GCU B   1      16.908  19.524  32.5380  0.00  0.00     0.000 OA
ATOM     15   O  GCU B   1      14.887  18.790  32.9190  0.00  0.00     0.000 OA
ENDBRANCH 5 13
BRANCH 1 16
ATOM     16  O3  NAG B   2      15.166  19.454  37.3850  0.00  0.00     0.000 O
BRANCH 16 19
ATOM     17  C1  NAG B   2      11.996  17.468  37.8680  0.00  0.00     0.000 C
ATOM     18  C2  NAG B   2      12.901  18.693  37.8810  0.00  0.00     0.000 C
ATOM     19  C3  NAG B   2      14.240  18.369  37.2200  0.00  0.00     0.000 C
ATOM     20  C4  NAG B   2      14.855  17.119  37.8480  0.00  0.00     0.000 C
ATOM     21  C5  NAG B   2      13.866  15.965  37.7750  0.00  0.00     0.000 C
ATOM     22  O5  NAG B   2      12.660  16.341  38.4630  0.00  0.00     0.000 O
ATOM     23   O  NAG B   2      16.065  16.811  37.1470  0.00  0.00     0.000 O
ATOM     25  HD  NAG B   2      16.141  17.080  37.9670  0.00  0.00     0.000 HD
ATOM     25   C  NAG B   2      14.421  14.673  38.3720  0.00  0.00     0.000 C
ATOM     26   O  NAG B   2      14.478  14.733  39.8050  0.00  0.00     0.000 O
ATOM     28  HD  NAG B   2      14.554  15.002  40.6250  0.00  0.00     0.000 HD
BRANCH 18 30
ATOM     28   N  NAG B   2      12.123  19.746  38.5050  0.00  0.00     0.000 N
ATOM     30  HD  NAG B   2      12.174  20.001  37.6790  0.00  0.00     0.000 HD
ATOM     30   C  NAG B   2      11.751  20.870  37.8800  0.00  0.00     0.000 C
ATOM     31   C  NAG B   2      10.984  21.888  38.6760  0.00  0.00     0.000 C
ATOM     32   O  NAG B   2      12.019  21.072  36.7130  0.00  0.00     0.000 OA
ENDBRANCH 18 30
BRANCH 17 33
ATOM     33  O4  GCU B   3      10.769  17.826  38.5350  0.00  0.00     0.000 O
BRANCH 33 37
ATOM     34  C1  GCU B   3       6.852  16.561  37.9100  0.00  0.00     0.000 C
ATOM     35  C2  GCU B   3       7.850  15.538  38.4540  0.00  0.00     0.000 C
ATOM     36  C3  GCU B   3       9.061  16.257  39.0090  0.00  0.00     0.000 C
ATOM     37  C4  GCU B   3       9.650  17.167  37.9400  0.00  0.00     0.000 C
ATOM     38  C5  GCU B   3       8.584  18.154  37.4600  0.00  0.00     0.000 C
ATOM     39  O5  GCU B   3       7.475  17.411  36.9430  0.00  0.00     0.000 O
ATOM     40   O  GCU B   3       7.216  14.773  39.4810  0.00  0.00     0.000 O
ATOM     42  HD  GCU B   3       7.325  14.495  40.2940  0.00  0.00     0.000 HD
ATOM     42   O  GCU B   3      10.055  15.321  39.4640  0.00  0.00     0.000 O
ATOM     44  HD  GCU B   3      10.164  15.043  40.2770  0.00  0.00     0.000 HD
BRANCH 38 44
ATOM     44   C  GCU B   3       9.089  19.075  36.3780  0.00  0.00     0.000 C
ATOM     45   O  GCU B   3       8.656  20.237  36.3380  0.00  0.00     0.000 OA
ATOM     46   O  GCU B   3       9.925  18.660  35.5530  0.00  0.00     0.000 OA
ENDBRANCH 38 44
BRANCH 34 47
ATOM     47  O3  NAG B   4       5.901  15.919  37.2470  0.00  0.00     0.000 O
BRANCH 47 50
ATOM     48  C1  NAG B   4       2.529  15.593  35.7360  0.00  0.00     0.000 C
ATOM     49  C2  NAG B   4       4.019  15.332  35.9370  0.00  0.00     0.000 C
ATOM     50  C3  NAG B   4       4.482  15.781  37.3130  0.00  0.00     0.000 C
ATOM     51  C4  NAG B   4       3.862  17.105  37.7730  0.00  0.00     0.000 C
ATOM     52  C5  NAG B   4       2.346  17.012  37.8340  0.00  0.00     0.000 C
ATOM     53  O5  NAG B   4       1.754  16.310  36.7190  0.00  0.00     0.000 O
BRANCH 49 56
ATOM     54   N  NAG B   4       3.834  13.884  36.1310  0.00  0.00     0.000 N
ATOM     56  HD  NAG B   4       3.211  13.512  36.6040  0.00  0.00     0.000 HD
ATOM     56   C  NAG B   4       4.270  11.501  35.9810  0.00  0.00     0.000 C
ATOM     57   O  NAG B   4       5.806  13.132  35.2870  0.00  0.00     0.000 OA
ATOM     58   C  NAG B   4       4.706  12.919  35.7760  0.00  0.00     0.000 C
ENDBRANCH 49 56
ATOM     59   O  NAG B   4       0.384  18.409  38.3740  0.00  0.00     0.000 O
ATOM     61  HD  NAG B   4       0.935  18.103  37.7800  0.00  0.00     0.000 HD
ATOM     61   O  NAG B   4       0.384  18.409  38.3740  0.00  0.00     0.000 O
ATOM     63  HD  NAG B   4       0.935  18.103  37.7800  0.00  0.00     0.000 HD
ENDBRANCH 47 50
ENDBRANCH 34 47
ENDBRANCH 33 37
ENDBRANCH 17 33
ENDBRANCH 16 19
ENDBRANCH 1 16
TORSDOF 10
ENDMDL
MODEL 75
REMARK VINA RESULT:      -5.2     16.499     21.824
ROOT
ATOM      1  C1  GCU B   1      11.531  12.275  28.1590  0.00  0.00     0.000 C
ATOM      2  C2  GCU B   1      10.412  12.973  28.9150  0.00  0.00     0.000 C
ATOM      3  C3  GCU B   1       9.103  12.217  28.7460  0.00  0.00     0.000 C
ATOM      4  C4  GCU B   1       8.829  11.964  27.2710  0.00  0.00     0.000 C
ATOM      5  C5  GCU B   1      10.037  11.316  26.5910  0.00  0.00     0.000 C
ATOM      6  O5  GCU B   1      11.184  12.158  26.7700  0.00  0.00     0.000 O
ATOM      7   O  GCU B   1      10.787  13.030  30.2880  0.00  0.00     0.000 O
ATOM      9  HD  GCU B   1      10.801  13.739  30.7850  0.00  0.00     0.000 HD
ATOM      9   O  GCU B   1       8.019  12.951  29.3200  0.00  0.00     0.000 O
ATOM     11  HD  GCU B   1       8.032  13.660  29.8170  0.00  0.00     0.000 HD
ATOM     11   O  GCU B   1       7.692  11.109  27.1530  0.00  0.00     0.000 O
ATOM     13  HD  GCU B   1       7.705  11.818  27.6500  0.00  0.00     0.000 HD
ENDROOT
BRANCH 5 13
ATOM     13   C  GCU B   1       9.732  11.065  25.1340  0.00  0.00     0.000 C
ATOM     14   O  GCU B   1       8.775  11.644  24.5800  0.00  0.00     0.000 OA
ATOM     15   O  GCU B   1      10.484  10.287  24.5160  0.00  0.00     0.000 OA
ENDBRANCH 5 13
BRANCH 1 16
ATOM     16  O3  NAG B   2      12.648  12.820  27.6720  0.00  0.00     0.000 O
BRANCH 16 19
ATOM     17  C1  NAG B   2      16.163  11.490  27.9860  0.00  0.00     0.000 C
ATOM     18  C2  NAG B   2      14.764  11.882  28.4430  0.00  0.00     0.000 C
ATOM     19  C3  NAG B   2      13.906  12.278  27.2430  0.00  0.00     0.000 C
ATOM     20  C4  NAG B   2      14.620  13.338  26.4050  0.00  0.00     0.000 C
ATOM     21  C5  NAG B   2      16.000  12.835  26.0040  0.00  0.00     0.000 C
ATOM     22  O5  NAG B   2      16.750  12.536  27.1950  0.00  0.00     0.000 O
ATOM     23   O  NAG B   2      13.816  13.620  25.2540  0.00  0.00     0.000 O
ATOM     25  HD  NAG B   2      13.893  14.248  25.8450  0.00  0.00     0.000 HD
ATOM     25   C  NAG B   2      16.768  13.840  25.1480  0.00  0.00     0.000 C
ATOM     26   O  NAG B   2      17.232  14.954  25.9260  0.00  0.00     0.000 O
ATOM     28  HD  NAG B   2      17.309  15.583  26.5170  0.00  0.00     0.000 HD
BRANCH 18 30
ATOM     28   N  NAG B   2      14.693  11.757  29.8870  0.00  0.00     0.000 N
ATOM     30  HD  NAG B   2      14.266  11.057  29.6070  0.00  0.00     0.000 HD
ATOM     30   C  NAG B   2      13.983  10.815  30.5200  0.00  0.00     0.000 C
ATOM     31   C  NAG B   2      13.972  10.844  32.0230  0.00  0.00     0.000 C
ATOM     32   O  NAG B   2      13.362   9.965  29.9140  0.00  0.00     0.000 OA
ENDBRANCH 18 30
BRANCH 17 33
ATOM     33  O4  GCU B   3      16.931  11.163  29.1620  0.00  0.00     0.000 O
BRANCH 33 37
ATOM     34  C1  GCU B   3      20.437   8.961  29.5970  0.00  0.00     0.000 C
ATOM     35  C2  GCU B   3      20.569  10.441  29.2360  0.00  0.00     0.000 C
ATOM     36  C3  GCU B   3      19.268  11.154  29.5380  0.00  0.00     0.000 C
ATOM     37  C4  GCU B   3      18.123  10.456  28.8170  0.00  0.00     0.000 C
ATOM     38  C5  GCU B   3      18.068   8.987  29.2410  0.00  0.00     0.000 C
ATOM     39  O5  GCU B   3      19.321   8.373  28.9220  0.00  0.00     0.000 O
ATOM     40   O  GCU B   3      21.633  11.011  30.0010  0.00  0.00     0.000 O
ATOM     42  HD  GCU B   3      21.825  11.683  30.5120  0.00  0.00     0.000 HD
ATOM     42   O  GCU B   3      19.331  12.536  29.1430  0.00  0.00     0.000 O
ATOM     44  HD  GCU B   3      19.523  13.208  29.6550  0.00  0.00     0.000 HD
BRANCH 38 44
ATOM     44   C  GCU B   3      16.970   8.221  28.5460  0.00  0.00     0.000 C
ATOM     45   O  GCU B   3      15.937   7.957  29.1810  0.00  0.00     0.000 OA
ATOM     46   O  GCU B   3      17.115   7.874  27.3580  0.00  0.00     0.000 OA
ENDBRANCH 38 44
BRANCH 34 47
ATOM     47  O3  NAG B   4      21.499   8.314  29.1400  0.00  0.00     0.000 O
BRANCH 47 50
ATOM     48  C1  NAG B   4      24.580   6.430  29.9870  0.00  0.00     0.000 C
ATOM     49  C2  NAG B   4      23.551   7.554  30.0440  0.00  0.00     0.000 C
ATOM     50  C3  NAG B   4      22.220   7.122  29.4510  0.00  0.00     0.000 C
ATOM     51  C4  NAG B   4      22.355   6.264  28.1880  0.00  0.00     0.000 C
ATOM     52  C5  NAG B   4      23.140   4.993  28.4670  0.00  0.00     0.000 C
ATOM     53  O5  NAG B   4      24.297   5.187  29.3100  0.00  0.00     0.000 O
BRANCH 49 56
ATOM     54   N  NAG B   4      23.282   7.389  31.4830  0.00  0.00     0.000 N
ATOM     56  HD  NAG B   4      23.119   6.639  31.8840  0.00  0.00     0.000 HD
ATOM     56   C  NAG B   4      22.895   7.991  33.8020  0.00  0.00     0.000 C
ATOM     57   O  NAG B   4      22.979   9.565  32.0660  0.00  0.00     0.000 OA
ATOM     58   C  NAG B   4      23.050   8.382  32.3650  0.00  0.00     0.000 C
ENDBRANCH 49 56
ATOM     59   O  NAG B   4      23.968   2.984  27.2960  0.00  0.00     0.000 O
ATOM     61  HD  NAG B   4      24.109   3.793  27.5690  0.00  0.00     0.000 HD
ATOM     61   O  NAG B   4      23.968   2.984  27.2960  0.00  0.00     0.000 O
ATOM     63  HD  NAG B   4      24.109   3.793  27.5690  0.00  0.00     0.000 HD
ENDBRANCH 47 50
ENDBRANCH 34 47
ENDBRANCH 33 37
ENDBRANCH 17 33
ENDBRANCH 16 19
ENDBRANCH 1 16
TORSDOF 10
ENDMDL
MODEL 76
REMARK VINA RESULT:      -5.2     19.465     24.264
ROOT
ATOM      1  C1  GCU B   1      18.749  48.070   6.7080  0.00  0.00     0.000 C
ATOM      2  C2  GCU B   1      18.357  49.508   6.4060  0.00  0.00     0.000 C
ATOM      3  C3  GCU B   1      17.783  49.620   5.0030  0.00  0.00     0.000 C
ATOM      4  C4  GCU B   1      18.727  48.980   3.9960  0.00  0.00     0.000 C
ATOM      5  C5  GCU B   1      19.107  47.561   4.4230  0.00  0.00     0.000 C
ATOM      6  O5  GCU B   1      19.693  47.605   5.7300  0.00  0.00     0.000 O
ATOM      7   O  GCU B   1      17.396  49.908   7.3780  0.00  0.00     0.000 O
ATOM      9  HD  GCU B   1      17.434  50.617   7.8730  0.00  0.00     0.000 HD
ATOM      9   O  GCU B   1      17.561  50.989   4.6560  0.00  0.00     0.000 O
ATOM     11  HD  GCU B   1      17.600  51.699   5.1510  0.00  0.00     0.000 HD
ATOM     11   O  GCU B   1      18.087  48.946   2.7200  0.00  0.00     0.000 O
ATOM     13  HD  GCU B   1      18.126  49.656   3.2150  0.00  0.00     0.000 HD
ENDROOT
BRANCH 5 13
ATOM     13   C  GCU B   1      20.032  46.947   3.4000  0.00  0.00     0.000 C
ATOM     14   O  GCU B   1      20.675  47.674   2.6140  0.00  0.00     0.000 OA
ATOM     15   O  GCU B   1      20.142  45.706   3.3970  0.00  0.00     0.000 OA
ENDBRANCH 5 13
BRANCH 1 16
ATOM     16  O3  NAG B   2      19.671  47.643   7.5730  0.00  0.00     0.000 O
BRANCH 16 19
ATOM     17  C1  NAG B   2      19.633  45.513  10.6860  0.00  0.00     0.000 C
ATOM     18  C2  NAG B   2      19.314  46.710   9.7990  0.00  0.00     0.000 C
ATOM     19  C3  NAG B   2      19.800  46.457   8.3730  0.00  0.00     0.000 C
ATOM     20  C4  NAG B   2      21.272  46.044   8.3780  0.00  0.00     0.000 C
ATOM     21  C5  NAG B   2      21.467  44.842   9.2900  0.00  0.00     0.000 C
ATOM     22  O5  NAG B   2      21.031  45.188  10.6160  0.00  0.00     0.000 O
ATOM     23   O  NAG B   2      21.660  45.744   7.0320  0.00  0.00     0.000 O
ATOM     25  HD  NAG B   2      22.009  46.447   7.3960  0.00  0.00     0.000 HD
ATOM     25   C  NAG B   2      22.916  44.362   9.3310  0.00  0.00     0.000 C
ATOM     26   O  NAG B   2      23.751  45.258  10.0810  0.00  0.00     0.000 O
ATOM     28  HD  NAG B   2      24.101  45.962  10.4450  0.00  0.00     0.000 HD
BRANCH 18 30
ATOM     28   N  NAG B   2      18.538  47.480  10.7520  0.00  0.00     0.000 N
ATOM     30  HD  NAG B   2      18.012  47.426  10.0670  0.00  0.00     0.000 HD
ATOM     30   C  NAG B   2      17.357  48.044  10.4700  0.00  0.00     0.000 C
ATOM     31   C  NAG B   2      16.693  48.850  11.5510  0.00  0.00     0.000 C
ATOM     32   O  NAG B   2      16.831  47.918   9.3820  0.00  0.00     0.000 OA
ENDBRANCH 18 30
BRANCH 17 33
ATOM     33  O4  GCU B   3      19.185  45.827  12.0200  0.00  0.00     0.000 O
BRANCH 33 37
ATOM     34  C1  GCU B   3      17.617  43.395  15.0140  0.00  0.00     0.000 C
ATOM     35  C2  GCU B   3      19.136  43.421  14.8440  0.00  0.00     0.000 C
ATOM     36  C3  GCU B   3      19.535  44.639  14.0370  0.00  0.00     0.000 C
ATOM     37  C4  GCU B   3      18.778  44.647  12.7160  0.00  0.00     0.000 C
ATOM     38  C5  GCU B   3      17.272  44.622  12.9850  0.00  0.00     0.000 C
ATOM     39  O5  GCU B   3      16.964  43.447  13.7420  0.00  0.00     0.000 O
ATOM     40   O  GCU B   3      19.746  43.463  16.1350  0.00  0.00     0.000 O
ATOM     42  HD  GCU B   3      20.340  43.890  16.5980  0.00  0.00     0.000 HD
ATOM     42   O  GCU B   3      20.953  44.657  13.7950  0.00  0.00     0.000 O
ATOM     44  HD  GCU B   3      21.547  45.085  14.2580  0.00  0.00     0.000 HD
BRANCH 38 44
ATOM     44   C  GCU B   3      16.455  44.604  11.7180  0.00  0.00     0.000 C
ATOM     45   O  GCU B   3      16.795  43.837  10.8030  0.00  0.00     0.000 OA
ATOM     46   O  GCU B   3      15.461  45.347  11.6130  0.00  0.00     0.000 OA
ENDBRANCH 38 44
BRANCH 34 47
ATOM     47  O3  NAG B   4      17.265  42.229  15.5370  0.00  0.00     0.000 O
BRANCH 47 50
ATOM     48  C1  NAG B   4      14.995  41.849  18.4450  0.00  0.00     0.000 C
ATOM     49  C2  NAG B   4      15.853  42.564  17.4070  0.00  0.00     0.000 C
ATOM     50  C3  NAG B   4      16.134  41.675  16.2070  0.00  0.00     0.000 C
ATOM     51  C4  NAG B   4      16.425  40.215  16.5740  0.00  0.00     0.000 C
ATOM     52  C5  NAG B   4      15.254  39.590  17.3140  0.00  0.00     0.000 C
ATOM     53  O5  NAG B   4      14.651  40.455  18.3020  0.00  0.00     0.000 O
BRANCH 49 56
ATOM     54   N  NAG B   4      14.882  43.400  16.6800  0.00  0.00     0.000 N
ATOM     56  HD  NAG B   4      14.447  43.168  15.9690  0.00  0.00     0.000 HD
ATOM     56   C  NAG B   4      13.555  45.346  16.0920  0.00  0.00     0.000 C
ATOM     57   O  NAG B   4      15.289  45.406  17.6700  0.00  0.00     0.000 OA
ATOM     58   C  NAG B   4      14.661  44.715  16.8810  0.00  0.00     0.000 C
ENDBRANCH 49 56
ATOM     59   O  NAG B   4      14.601  37.452  18.3620  0.00  0.00     0.000 O
ATOM     61  HD  NAG B   4      14.950  38.241  18.4420  0.00  0.00     0.000 HD
ATOM     61   O  NAG B   4      14.601  37.452  18.3620  0.00  0.00     0.000 O
ATOM     63  HD  NAG B   4      14.950  38.241  18.4420  0.00  0.00     0.000 HD
ENDBRANCH 47 50
ENDBRANCH 34 47
ENDBRANCH 33 37
ENDBRANCH 17 33
ENDBRANCH 16 19
ENDBRANCH 1 16
TORSDOF 10
ENDMDL
MODEL 77
REMARK VINA RESULT:      -5.1     13.597     16.708
ROOT
ATOM      1  C1  GCU B   1      18.747  33.395  19.1790  0.00  0.00     0.000 C
ATOM      2  C2  GCU B   1      19.885  33.146  18.2000  0.00  0.00     0.000 C
ATOM      3  C3  GCU B   1      20.245  34.428  17.4660  0.00  0.00     0.000 C
ATOM      4  C4  GCU B   1      18.998  35.057  16.8640  0.00  0.00     0.000 C
ATOM      5  C5  GCU B   1      17.896  35.207  17.9140  0.00  0.00     0.000 C
ATOM      6  O5  GCU B   1      17.608  33.922  18.4800  0.00  0.00     0.000 O
ATOM      7   O  GCU B   1      20.998  32.661  18.9450  0.00  0.00     0.000 O
ATOM      9  HD  GCU B   1      21.449  31.941  18.7780  0.00  0.00     0.000 HD
ATOM      9   O  GCU B   1      21.201  34.166  16.4350  0.00  0.00     0.000 O
ATOM     11  HD  GCU B   1      21.652  33.446  16.2690  0.00  0.00     0.000 HD
ATOM     11   O  GCU B   1      19.338  36.338  16.3320  0.00  0.00     0.000 O
ATOM     13  HD  GCU B   1      19.789  35.618  16.1660  0.00  0.00     0.000 HD
ENDROOT
BRANCH 5 13
ATOM     13   C  GCU B   1      16.677  35.846  17.2920  0.00  0.00     0.000 C
ATOM     14   O  GCU B   1      16.657  36.111  16.0730  0.00  0.00     0.000 OA
ATOM     15   O  GCU B   1      15.702  36.065  18.0360  0.00  0.00     0.000 OA
ENDBRANCH 5 13
BRANCH 1 16
ATOM     16  O3  NAG B   2      17.860  32.510  19.6380  0.00  0.00     0.000 O
BRANCH 16 19
ATOM     17  C1  NAG B   2      17.142  31.216  23.1070  0.00  0.00     0.000 C
ATOM     18  C2  NAG B   2      17.970  31.521  21.8660  0.00  0.00     0.000 C
ATOM     19  C3  NAG B   2      17.161  32.367  20.8840  0.00  0.00     0.000 C
ATOM     20  C4  NAG B   2      15.812  31.709  20.6000  0.00  0.00     0.000 C
ATOM     21  C5  NAG B   2      15.076  31.457  21.9080  0.00  0.00     0.000 C
ATOM     22  O5  NAG B   2      15.888  30.614  22.7450  0.00  0.00     0.000 O
ATOM     23   O  NAG B   2      15.060  32.572  19.7400  0.00  0.00     0.000 O
ATOM     25  HD  NAG B   2      15.331  31.820  19.4060  0.00  0.00     0.000 HD
ATOM     25   C  NAG B   2      13.707  30.812  21.7000  0.00  0.00     0.000 C
ATOM     26   O  NAG B   2      13.822  29.432  21.3220  0.00  0.00     0.000 O
ATOM     28  HD  NAG B   2      14.092  28.680  20.9880  0.00  0.00     0.000 HD
BRANCH 18 30
ATOM     28   N  NAG B   2      19.170  31.941  22.5650  0.00  0.00     0.000 N
ATOM     30  HD  NAG B   2      19.480  31.528  21.8700  0.00  0.00     0.000 HD
ATOM     30   C  NAG B   2      20.408  31.587  22.2000  0.00  0.00     0.000 C
ATOM     31   C  NAG B   2      21.550  32.065  23.0530  0.00  0.00     0.000 C
ATOM     32   O  NAG B   2      20.616  30.902  21.2180  0.00  0.00     0.000 OA
ENDBRANCH 18 30
BRANCH 17 33
ATOM     33  O4  GCU B   3      17.944  30.389  23.9740  0.00  0.00     0.000 O
BRANCH 33 37
ATOM     34  C1  GCU B   3      17.580  29.576  28.0410  0.00  0.00     0.000 C
ATOM     35  C2  GCU B   3      16.813  28.681  27.0670  0.00  0.00     0.000 C
ATOM     36  C3  GCU B   3      17.386  28.840  25.6740  0.00  0.00     0.000 C
ATOM     37  C4  GCU B   3      17.373  30.310  25.2810  0.00  0.00     0.000 C
ATOM     38  C5  GCU B   3      18.163  31.124  26.3080  0.00  0.00     0.000 C
ATOM     39  O5  GCU B   3      17.567  30.935  27.5950  0.00  0.00     0.000 O
ATOM     40   O  GCU B   3      16.930  27.323  27.4970  0.00  0.00     0.000 O
ATOM     42  HD  GCU B   3      17.129  26.529  27.2120  0.00  0.00     0.000 HD
ATOM     42   O  GCU B   3      16.641  28.065  24.7170  0.00  0.00     0.000 O
ATOM     44  HD  GCU B   3      16.840  27.272  24.4320  0.00  0.00     0.000 HD
BRANCH 38 44
ATOM     44   C  GCU B   3      18.174  32.600  25.9970  0.00  0.00     0.000 C
ATOM     45   O  GCU B   3      19.178  33.085  25.4550  0.00  0.00     0.000 OA
ATOM     46   O  GCU B   3      17.183  33.299  26.2840  0.00  0.00     0.000 OA
ENDBRANCH 38 44
BRANCH 34 47
ATOM     47  O3  NAG B   4      16.943  29.585  29.2030  0.00  0.00     0.000 O
BRANCH 47 50
ATOM     48  C1  NAG B   4      18.588  27.307  31.6240  0.00  0.00     0.000 C
ATOM     49  C2  NAG B   4      18.476  28.373  30.5390  0.00  0.00     0.000 C
ATOM     50  C3  NAG B   4      17.077  28.964  30.4810  0.00  0.00     0.000 C
ATOM     51  C4  NAG B   4      15.961  27.929  30.6630  0.00  0.00     0.000 C
ATOM     52  C5  NAG B   4      16.078  27.223  32.0030  0.00  0.00     0.000 C
ATOM     53  O5  NAG B   4      17.431  26.866  32.3650  0.00  0.00     0.000 O
BRANCH 49 56
ATOM     54   N  NAG B   4      19.144  29.443  31.3000  0.00  0.00     0.000 N
ATOM     56  HD  NAG B   4      18.893  29.747  32.0720  0.00  0.00     0.000 HD
ATOM     56   C  NAG B   4      20.724  31.210  31.8220  0.00  0.00     0.000 C
ATOM     57   O  NAG B   4      20.547  30.234  29.6960  0.00  0.00     0.000 OA
ATOM     58   C  NAG B   4      20.120  30.251  30.8420  0.00  0.00     0.000 C
ENDBRANCH 49 56
ATOM     59   O  NAG B   4      14.952  25.466  33.3230  0.00  0.00     0.000 O
ATOM     61  HD  NAG B   4      15.569  25.687  32.7570  0.00  0.00     0.000 HD
ATOM     61   O  NAG B   4      14.952  25.466  33.3230  0.00  0.00     0.000 O
ATOM     63  HD  NAG B   4      15.569  25.687  32.7570  0.00  0.00     0.000 HD
ENDBRANCH 47 50
ENDBRANCH 34 47
ENDBRANCH 33 37
ENDBRANCH 17 33
ENDBRANCH 16 19
ENDBRANCH 1 16
TORSDOF 10
ENDMDL
MODEL 78
REMARK VINA RESULT:      -5.1     11.909     14.677
ROOT
ATOM      1  C1  GCU B   1      23.364  38.360  14.1890  0.00  0.00     0.000 C
ATOM      2  C2  GCU B   1      23.926  39.762  14.3660  0.00  0.00     0.000 C
ATOM      3  C3  GCU B   1      23.557  40.636  13.1770  0.00  0.00     0.000 C
ATOM      4  C4  GCU B   1      23.939  39.944  11.8780  0.00  0.00     0.000 C
ATOM      5  C5  GCU B   1      23.378  38.522  11.8270  0.00  0.00     0.000 C
ATOM      6  O5  GCU B   1      23.851  37.789  12.9640  0.00  0.00     0.000 O
ATOM      7   O  GCU B   1      23.386  40.296  15.5710  0.00  0.00     0.000 O
ATOM      9  HD  GCU B   1      23.837  40.643  16.2230  0.00  0.00     0.000 HD
ATOM      9   O  GCU B   1      24.213  41.904  13.2610  0.00  0.00     0.000 O
ATOM     11  HD  GCU B   1      24.665  42.251  13.9130  0.00  0.00     0.000 HD
ATOM     11   O  GCU B   1      23.429  40.705  10.7820  0.00  0.00     0.000 O
ATOM     13  HD  GCU B   1      23.881  41.052  11.4340  0.00  0.00     0.000 HD
ENDROOT
BRANCH 5 13
ATOM     13   C  GCU B   1      23.761  37.865  10.5220  0.00  0.00     0.000 C
ATOM     14   O  GCU B   1      23.002  37.029   9.9900  0.00  0.00     0.000 OA
ATOM     15   O  GCU B   1      24.836  38.214   9.9980  0.00  0.00     0.000 OA
ENDBRANCH 5 13
BRANCH 1 16
ATOM     16  O3  NAG B   2      23.828  37.226  14.7190  0.00  0.00     0.000 O
BRANCH 16 19
ATOM     17  C1  NAG B   2      21.977  34.727  16.8540  0.00  0.00     0.000 C
ATOM     18  C2  NAG B   2      22.460  36.097  16.3950  0.00  0.00     0.000 C
ATOM     19  C3  NAG B   2      23.212  35.977  15.0710  0.00  0.00     0.000 C
ATOM     20  C4  NAG B   2      24.310  34.919  15.1760  0.00  0.00     0.000 C
ATOM     21  C5  NAG B   2      23.710  33.598  15.6360  0.00  0.00     0.000 C
ATOM     22  O5  NAG B   2      23.069  33.795  16.9090  0.00  0.00     0.000 O
ATOM     23   O  NAG B   2      24.933  34.786  13.8930  0.00  0.00     0.000 O
ATOM     25  HD  NAG B   2      25.409  35.130  14.5300  0.00  0.00     0.000 HD
ATOM     25   C  NAG B   2      24.750  32.485  15.7490  0.00  0.00     0.000 C
ATOM     26   O  NAG B   2      25.604  32.669  16.8880  0.00  0.00     0.000 O
ATOM     28  HD  NAG B   2      26.080  33.013  17.5250  0.00  0.00     0.000 HD
BRANCH 18 30
ATOM     28   N  NAG B   2      21.216  36.829  16.5360  0.00  0.00     0.000 N
ATOM     30  HD  NAG B   2      21.806  37.380  16.8480  0.00  0.00     0.000 HD
ATOM     30   C  NAG B   2      21.112  38.013  17.1510  0.00  0.00     0.000 C
ATOM     31   C  NAG B   2      19.744  38.626  17.2560  0.00  0.00     0.000 C
ATOM     32   O  NAG B   2      22.080  38.581  17.6160  0.00  0.00     0.000 OA
ENDBRANCH 18 30
BRANCH 17 33
ATOM     33  O4  GCU B   3      21.310  34.902  18.1210  0.00  0.00     0.000 O
BRANCH 33 37
ATOM     34  C1  GCU B   3      18.424  32.592  20.0350  0.00  0.00     0.000 C
ATOM     35  C2  GCU B   3      19.855  32.054  20.0000  0.00  0.00     0.000 C
ATOM     36  C3  GCU B   3      20.811  33.178  19.6640  0.00  0.00     0.000 C
ATOM     37  C4  GCU B   3      20.383  33.843  18.3640  0.00  0.00     0.000 C
ATOM     38  C5  GCU B   3      18.945  34.350  18.4940  0.00  0.00     0.000 C
ATOM     39  O5  GCU B   3      18.097  33.239  18.8020  0.00  0.00     0.000 O
ATOM     40   O  GCU B   3      20.173  31.499  21.2780  0.00  0.00     0.000 O
ATOM     42  HD  GCU B   3      20.777  31.512  21.8990  0.00  0.00     0.000 HD
ATOM     42   O  GCU B   3      22.161  32.694  19.5510  0.00  0.00     0.000 O
ATOM     44  HD  GCU B   3      22.765  32.707  20.1720  0.00  0.00     0.000 HD
BRANCH 38 44
ATOM     44   C  GCU B   3      18.441  35.000  17.2300  0.00  0.00     0.000 C
ATOM     45   O  GCU B   3      18.850  34.575  16.1390  0.00  0.00     0.000 OA
ATOM     46   O  GCU B   3      17.628  35.942  17.3020  0.00  0.00     0.000 OA
ENDBRANCH 38 44
BRANCH 34 47
ATOM     47  O3  NAG B   4      17.585  31.569  20.1240  0.00  0.00     0.000 O
BRANCH 47 50
ATOM     48  C1  NAG B   4      15.483  28.803  21.4210  0.00  0.00     0.000 C
ATOM     49  C2  NAG B   4      16.629  29.474  20.6720  0.00  0.00     0.000 C
ATOM     50  C3  NAG B   4      16.842  30.904  21.1430  0.00  0.00     0.000 C
ATOM     51  C4  NAG B   4      15.539  31.668  21.4040  0.00  0.00     0.000 C
ATOM     52  C5  NAG B   4      14.700  30.980  22.4690  0.00  0.00     0.000 C
ATOM     53  O5  NAG B   4      14.656  29.541  22.3450  0.00  0.00     0.000 O
BRANCH 49 56
ATOM     54   N  NAG B   4      17.729  28.846  21.4250  0.00  0.00     0.000 N
ATOM     56  HD  NAG B   4      17.882  28.942  22.2720  0.00  0.00     0.000 HD
ATOM     56   C  NAG B   4      19.734  27.546  21.8510  0.00  0.00     0.000 C
ATOM     57   O  NAG B   4      18.986  28.078  19.6930  0.00  0.00     0.000 OA
ATOM     58   C  NAG B   4      18.780  28.191  20.8930  0.00  0.00     0.000 C
ENDBRANCH 49 56
ATOM     59   O  NAG B   4      12.541  31.238  23.6370  0.00  0.00     0.000 O
ATOM     61  HD  NAG B   4      12.993  30.897  22.9820  0.00  0.00     0.000 HD
ATOM     61   O  NAG B   4      12.541  31.238  23.6370  0.00  0.00     0.000 O
ATOM     63  HD  NAG B   4      12.993  30.897  22.9820  0.00  0.00     0.000 HD
ENDBRANCH 47 50
ENDBRANCH 34 47
ENDBRANCH 33 37
ENDBRANCH 17 33
ENDBRANCH 16 19
ENDBRANCH 1 16
TORSDOF 10
ENDMDL
MODEL 79
REMARK VINA RESULT:      -5.1     19.118     23.068
ROOT
ATOM      1  C1  GCU B   1      18.250  23.234  33.0540  0.00  0.00     0.000 C
ATOM      2  C2  GCU B   1      19.591  22.659  33.4820  0.00  0.00     0.000 C
ATOM      3  C3  GCU B   1      19.746  21.234  32.9740  0.00  0.00     0.000 C
ATOM      4  C4  GCU B   1      18.532  20.404  33.3620  0.00  0.00     0.000 C
ATOM      5  C5  GCU B   1      17.234  21.097  32.9420  0.00  0.00     0.000 C
ATOM      6  O5  GCU B   1      17.184  22.400  33.5380  0.00  0.00     0.000 O
ATOM      7   O  GCU B   1      20.611  23.498  32.9480  0.00  0.00     0.000 O
ATOM      9  HD  GCU B   1      21.261  23.858  33.3930  0.00  0.00     0.000 HD
ATOM      9   O  GCU B   1      20.931  20.635  33.5050  0.00  0.00     0.000 O
ATOM     11  HD  GCU B   1      21.581  20.995  33.9500  0.00  0.00     0.000 HD
ATOM     11   O  GCU B   1      18.624  19.127  32.7290  0.00  0.00     0.000 O
ATOM     13  HD  GCU B   1      19.275  19.487  33.1730  0.00  0.00     0.000 HD
ENDROOT
BRANCH 5 13
ATOM     13   C  GCU B   1      16.049  20.245  33.3270  0.00  0.00     0.000 C
ATOM     14   O  GCU B   1      15.896  19.113  32.8240  0.00  0.00     0.000 OA
ATOM     15   O  GCU B   1      15.262  20.707  34.1750  0.00  0.00     0.000 OA
ENDBRANCH 5 13
BRANCH 1 16
ATOM     16  O3  NAG B   2      17.552  24.203  33.6520  0.00  0.00     0.000 O
BRANCH 16 19
ATOM     17  C1  NAG B   2      15.280  27.007  32.5560  0.00  0.00     0.000 C
ATOM     18  C2  NAG B   2      16.583  26.233  32.7060  0.00  0.00     0.000 C
ATOM     19  C3  NAG B   2      16.319  24.868  33.3390  0.00  0.00     0.000 C
ATOM     20  C4  NAG B   2      15.522  25.027  34.6330  0.00  0.00     0.000 C
ATOM     21  C5  NAG B   2      14.246  25.809  34.3610  0.00  0.00     0.000 C
ATOM     22  O5  NAG B   2      14.594  27.093  33.8160  0.00  0.00     0.000 O
ATOM     23   O  NAG B   2      15.232  23.722  35.1470  0.00  0.00     0.000 O
ATOM     25  HD  NAG B   2      15.784  24.211  35.6010  0.00  0.00     0.000 HD
ATOM     25   C  NAG B   2      13.388  25.993  35.6110  0.00  0.00     0.000 C
ATOM     26   O  NAG B   2      13.964  26.951  36.5130  0.00  0.00     0.000 O
ATOM     28  HD  NAG B   2      14.516  27.440  36.9660  0.00  0.00     0.000 HD
BRANCH 18 30
ATOM     28   N  NAG B   2      17.050  26.666  31.4030  0.00  0.00     0.000 N
ATOM     30  HD  NAG B   2      17.781  26.438  31.8080  0.00  0.00     0.000 HD
ATOM     30   C  NAG B   2      18.343  26.779  31.0730  0.00  0.00     0.000 C
ATOM     31   C  NAG B   2      18.669  27.285  29.6960  0.00  0.00     0.000 C
ATOM     32   O  NAG B   2      19.230  26.489  31.8500  0.00  0.00     0.000 OA
ENDBRANCH 18 30
BRANCH 17 33
ATOM     33  O4  GCU B   3      15.600  28.294  31.9900  0.00  0.00     0.000 O
BRANCH 33 37
ATOM     34  C1  GCU B   3      13.182  31.139  30.1500  0.00  0.00     0.000 C
ATOM     35  C2  GCU B   3      13.231  31.131  31.6780  0.00  0.00     0.000 C
ATOM     36  C3  GCU B   3      14.444  30.354  32.1420  0.00  0.00     0.000 C
ATOM     37  C4  GCU B   3      14.423  28.960  31.5300  0.00  0.00     0.000 C
ATOM     38  C5  GCU B   3      14.377  29.068  30.0050  0.00  0.00     0.000 C
ATOM     39  O5  GCU B   3      13.207  29.805  29.6360  0.00  0.00     0.000 O
ATOM     40   O  GCU B   3      13.300  32.480  32.1460  0.00  0.00     0.000 O
ATOM     42  HD  GCU B   3      13.743  32.997  32.6810  0.00  0.00     0.000 HD
ATOM     42   O  GCU B   3      14.483  30.263  33.5780  0.00  0.00     0.000 O
ATOM     44  HD  GCU B   3      14.926  30.781  34.1120  0.00  0.00     0.000 HD
BRANCH 38 44
ATOM     44   C  GCU B   3      14.328  27.722  29.3270  0.00  0.00     0.000 C
ATOM     45   O  GCU B   3      15.362  27.285  28.7990  0.00  0.00     0.000 OA
ATOM     46   O  GCU B   3      13.263  27.076  29.3120  0.00  0.00     0.000 OA
ENDBRANCH 38 44
BRANCH 34 47
ATOM     47  O3  NAG B   4      12.017  31.639  29.7620  0.00  0.00     0.000 O
BRANCH 47 50
ATOM     48  C1  NAG B   4       8.394  30.981  30.2060  0.00  0.00     0.000 C
ATOM     49  C2  NAG B   4       9.880  30.667  30.0650  0.00  0.00     0.000 C
ATOM     50  C3  NAG B   4      10.737  31.893  30.3390  0.00  0.00     0.000 C
ATOM     51  C4  NAG B   4      10.164  33.190  29.7570  0.00  0.00     0.000 C
ATOM     52  C5  NAG B   4       8.786  33.487  30.3260  0.00  0.00     0.000 C
ATOM     53  O5  NAG B   4       7.930  32.328  30.4330  0.00  0.00     0.000 O
BRANCH 49 56
ATOM     54   N  NAG B   4      10.145  30.026  31.3650  0.00  0.00     0.000 N
ATOM     56  HD  NAG B   4      10.262  30.438  32.1180  0.00  0.00     0.000 HD
ATOM     56   C  NAG B   4      10.581  28.268  32.9800  0.00  0.00     0.000 C
ATOM     57   O  NAG B   4      10.589  27.910  30.6630  0.00  0.00     0.000 OA
ATOM     58   C  NAG B   4      10.444  28.726  31.5610  0.00  0.00     0.000 C
ENDBRANCH 49 56
ATOM     59   O  NAG B   4       6.984  35.164  30.1420  0.00  0.00     0.000 O
ATOM     61  HD  NAG B   4       7.325  34.412  29.8820  0.00  0.00     0.000 HD
ATOM     61   O  NAG B   4       6.984  35.164  30.1420  0.00  0.00     0.000 O
ATOM     63  HD  NAG B   4       7.325  34.412  29.8820  0.00  0.00     0.000 HD
ENDBRANCH 47 50
ENDBRANCH 34 47
ENDBRANCH 33 37
ENDBRANCH 17 33
ENDBRANCH 16 19
ENDBRANCH 1 16
TORSDOF 10
ENDMDL
MODEL 80
REMARK VINA RESULT:      -5.1     16.517     21.972
ROOT
ATOM      1  C1  GCU B   1      11.543  12.303  28.1570  0.00  0.00     0.000 C
ATOM      2  C2  GCU B   1      10.431  13.006  28.9200  0.00  0.00     0.000 C
ATOM      3  C3  GCU B   1       9.115  12.264  28.7450  0.00  0.00     0.000 C
ATOM      4  C4  GCU B   1       8.838  12.027  27.2680  0.00  0.00     0.000 C
ATOM      5  C5  GCU B   1      10.039  11.374  26.5820  0.00  0.00     0.000 C
ATOM      6  O5  GCU B   1      11.194  12.202  26.7670  0.00  0.00     0.000 O
ATOM      7   O  GCU B   1      10.808  13.047  30.2930  0.00  0.00     0.000 O
ATOM      9  HD  GCU B   1      10.829  13.752  30.7960  0.00  0.00     0.000 HD
ATOM      9   O  GCU B   1       8.038  13.004  29.3260  0.00  0.00     0.000 O
ATOM     11  HD  GCU B   1       8.059  13.709  29.8290  0.00  0.00     0.000 HD
ATOM     11   O  GCU B   1       7.692  11.185  27.1430  0.00  0.00     0.000 O
ATOM     13  HD  GCU B   1       7.713  11.890  27.6460  0.00  0.00     0.000 HD
ENDROOT
BRANCH 5 13
ATOM     13   C  GCU B   1       9.731  11.138  25.1230  0.00  0.00     0.000 C
ATOM     14   O  GCU B   1       8.719  11.650  24.6000  0.00  0.00     0.000 OA
ATOM     15   O  GCU B   1      10.535  10.445  24.4710  0.00  0.00     0.000 OA
ENDBRANCH 5 13
BRANCH 1 16
ATOM     16  O3  NAG B   2      12.665  12.842  27.6750  0.00  0.00     0.000 O
BRANCH 16 19
ATOM     17  C1  NAG B   2      16.173  11.496  28.0150  0.00  0.00     0.000 C
ATOM     18  C2  NAG B   2      14.772  11.896  28.4620  0.00  0.00     0.000 C
ATOM     19  C3  NAG B   2      13.924  12.292  27.2550  0.00  0.00     0.000 C
ATOM     20  C4  NAG B   2      14.648  13.346  26.4180  0.00  0.00     0.000 C
ATOM     21  C5  NAG B   2      16.027  12.836  26.0280  0.00  0.00     0.000 C
ATOM     22  O5  NAG B   2      16.769  12.537  27.2240  0.00  0.00     0.000 O
ATOM     23   O  NAG B   2      13.852  13.628  25.2610  0.00  0.00     0.000 O
ATOM     25  HD  NAG B   2      13.929  14.258  25.8510  0.00  0.00     0.000 HD
ATOM     25   C  NAG B   2      16.806  13.834  25.1730  0.00  0.00     0.000 C
ATOM     26   O  NAG B   2      17.270  14.949  25.9500  0.00  0.00     0.000 O
ATOM     28  HD  NAG B   2      17.346  15.579  26.5390  0.00  0.00     0.000 HD
BRANCH 18 30
ATOM     28   N  NAG B   2      14.716  11.757  29.9050  0.00  0.00     0.000 N
ATOM     30  HD  NAG B   2      14.255  11.080  29.6230  0.00  0.00     0.000 HD
ATOM     30   C  NAG B   2      13.973  10.840  30.5370  0.00  0.00     0.000 C
ATOM     31   C  NAG B   2      13.984  10.851  32.0400  0.00  0.00     0.000 C
ATOM     32   O  NAG B   2      13.307  10.026  29.9310  0.00  0.00     0.000 OA
ENDBRANCH 18 30
BRANCH 17 33
ATOM     33  O4  GCU B   3      16.931  11.170  29.1970  0.00  0.00     0.000 O
BRANCH 33 37
ATOM     34  C1  GCU B   3      20.348   8.841  29.6800  0.00  0.00     0.000 C
ATOM     35  C2  GCU B   3      20.537  10.302  29.2690  0.00  0.00     0.000 C
ATOM     36  C3  GCU B   3      19.268  11.077  29.5560  0.00  0.00     0.000 C
ATOM     37  C4  GCU B   3      18.090  10.403  28.8670  0.00  0.00     0.000 C
ATOM     38  C5  GCU B   3      17.979   8.952  29.3400  0.00  0.00     0.000 C
ATOM     39  O5  GCU B   3      19.204   8.278  29.0320  0.00  0.00     0.000 O
ATOM     40   O  GCU B   3      21.630  10.853  30.0070  0.00  0.00     0.000 O
ATOM     42  HD  GCU B   3      21.854  11.532  30.4950  0.00  0.00     0.000 HD
ATOM     42   O  GCU B   3      19.385  12.442  29.1150  0.00  0.00     0.000 O
ATOM     44  HD  GCU B   3      19.608  13.122  29.6030  0.00  0.00     0.000 HD
BRANCH 38 44
ATOM     44   C  GCU B   3      16.845   8.210  28.6790  0.00  0.00     0.000 C
ATOM     45   O  GCU B   3      16.966   7.880  27.4890  0.00  0.00     0.000 OA
ATOM     46   O  GCU B   3      15.819   7.941  29.3310  0.00  0.00     0.000 OA
ENDBRANCH 38 44
BRANCH 34 47
ATOM     47  O3  NAG B   4      21.380   8.136  29.2370  0.00  0.00     0.000 O
BRANCH 47 50
ATOM     48  C1  NAG B   4      22.978   6.259  32.0080  0.00  0.00     0.000 C
ATOM     49  C2  NAG B   4      21.851   6.821  31.1480  0.00  0.00     0.000 C
ATOM     50  C3  NAG B   4      22.353   7.244  29.7770  0.00  0.00     0.000 C
ATOM     51  C4  NAG B   4      23.719   7.938  29.8070  0.00  0.00     0.000 C
ATOM     52  C5  NAG B   4      24.785   7.031  30.3990  0.00  0.00     0.000 C
ATOM     53  O5  NAG B   4      24.350   6.290  31.5600  0.00  0.00     0.000 O
BRANCH 49 56
ATOM     54   N  NAG B   4      21.255   5.534  30.7480  0.00  0.00     0.000 N
ATOM     56  HD  NAG B   4      21.639   4.929  30.2620  0.00  0.00     0.000 HD
ATOM     56   C  NAG B   4      19.596   3.779  30.5100  0.00  0.00     0.000 C
ATOM     57   O  NAG B   4      19.096   5.910  31.3510  0.00  0.00     0.000 OA
ATOM     58   C  NAG B   4      19.964   5.177  30.9010  0.00  0.00     0.000 C
ENDBRANCH 49 56
ATOM     59   O  NAG B   4      27.192   7.046  30.9490  0.00  0.00     0.000 O
ATOM     61  HD  NAG B   4      26.373   7.176  31.2000  0.00  0.00     0.000 HD
ATOM     61   O  NAG B   4      27.192   7.046  30.9490  0.00  0.00     0.000 O
ATOM     63  HD  NAG B   4      26.373   7.176  31.2000  0.00  0.00     0.000 HD
ENDBRANCH 47 50
ENDBRANCH 34 47
ENDBRANCH 33 37
ENDBRANCH 17 33
ENDBRANCH 16 19
ENDBRANCH 1 16
TORSDOF 10
ENDMDL
MODEL 81
REMARK VINA RESULT:      -5.1     13.497     17.566
ROOT
ATOM      1  C1  GCU B   1      20.598  18.056  31.9940  0.00  0.00     0.000 C
ATOM      2  C2  GCU B   1      21.250  18.093  33.3680  0.00  0.00     0.000 C
ATOM      3  C3  GCU B   1      20.191  18.071  34.4600  0.00  0.00     0.000 C
ATOM      4  C4  GCU B   1      19.152  19.152  34.2070  0.00  0.00     0.000 C
ATOM      5  C5  GCU B   1      18.604  19.065  32.7810  0.00  0.00     0.000 C
ATOM      6  O5  GCU B   1      19.693  19.163  31.8530  0.00  0.00     0.000 O
ATOM      7   O  GCU B   1      22.105  16.959  33.4710  0.00  0.00     0.000 O
ATOM      9  HD  GCU B   1      22.941  16.969  33.6970  0.00  0.00     0.000 HD
ATOM      9   O  GCU B   1      20.788  18.265  35.7450  0.00  0.00     0.000 O
ATOM     11  HD  GCU B   1      21.624  18.275  35.9710  0.00  0.00     0.000 HD
ATOM     11   O  GCU B   1      18.086  18.997  35.1440  0.00  0.00     0.000 O
ATOM     13  HD  GCU B   1      18.922  19.006  35.3700  0.00  0.00     0.000 HD
ENDROOT
BRANCH 5 13
ATOM     13   C  GCU B   1      17.567  20.140  32.5630  0.00  0.00     0.000 C
ATOM     14   O  GCU B   1      16.355  19.891  32.7280  0.00  0.00     0.000 OA
ATOM     15   O  GCU B   1      17.973  21.274  32.2440  0.00  0.00     0.000 OA
ENDBRANCH 5 13
BRANCH 1 16
ATOM     16  O3  NAG B   2      21.095  18.518  30.8450  0.00  0.00     0.000 O
BRANCH 16 19
ATOM     17  C1  NAG B   2      21.127  16.953  27.4130  0.00  0.00     0.000 C
ATOM     18  C2  NAG B   2      21.351  17.045  28.9170  0.00  0.00     0.000 C
ATOM     19  C3  NAG B   2      20.736  18.330  29.4680  0.00  0.00     0.000 C
ATOM     20  C4  NAG B   2      21.235  19.540  28.6770  0.00  0.00     0.000 C
ATOM     21  C5  NAG B   2      20.954  19.338  27.1950  0.00  0.00     0.000 C
ATOM     22  O5  NAG B   2      21.611  18.136  26.7560  0.00  0.00     0.000 O
ATOM     23   O  NAG B   2      20.574  20.708  29.1760  0.00  0.00     0.000 O
ATOM     25  HD  NAG B   2      21.425  20.641  29.3250  0.00  0.00     0.000 HD
ATOM     25   C  NAG B   2      21.413  20.519  26.3410  0.00  0.00     0.000 C
ATOM     26   O  NAG B   2      22.843  20.562  26.2210  0.00  0.00     0.000 O
ATOM     28  HD  NAG B   2      23.693  20.495  26.3690  0.00  0.00     0.000 HD
BRANCH 18 30
ATOM     28   N  NAG B   2      21.001  15.656  29.1500  0.00  0.00     0.000 N
ATOM     30  HD  NAG B   2      21.543  15.835  29.8010  0.00  0.00     0.000 HD
ATOM     30   C  NAG B   2      21.561  14.894  30.0980  0.00  0.00     0.000 C
ATOM     31   C  NAG B   2      21.124  13.459  30.1860  0.00  0.00     0.000 C
ATOM     32   O  NAG B   2      22.395  15.334  30.8630  0.00  0.00     0.000 OA
ENDBRANCH 18 30
BRANCH 17 33
ATOM     33  O4  GCU B   3      21.759  15.743  26.9510  0.00  0.00     0.000 O
BRANCH 33 37
ATOM     34  C1  GCU B   3      21.226  13.554  23.4500  0.00  0.00     0.000 C
ATOM     35  C2  GCU B   3      22.134  14.782  23.3880  0.00  0.00     0.000 C
ATOM     36  C3  GCU B   3      22.543  15.182  24.7900  0.00  0.00     0.000 C
ATOM     37  C4  GCU B   3      21.301  15.391  25.6450  0.00  0.00     0.000 C
ATOM     38  C5  GCU B   3      20.459  14.114  25.6490  0.00  0.00     0.000 C
ATOM     39  O5  GCU B   3      20.101  13.798  24.3000  0.00  0.00     0.000 O
ATOM     40   O  GCU B   3      23.289  14.465  22.6080  0.00  0.00     0.000 O
ATOM     42  HD  GCU B   3      24.154  14.506  22.6170  0.00  0.00     0.000 HD
ATOM     42   O  GCU B   3      23.340  16.380  24.7750  0.00  0.00     0.000 O
ATOM     44  HD  GCU B   3      24.205  16.420  24.7840  0.00  0.00     0.000 HD
BRANCH 38 44
ATOM     44   C  GCU B   3      19.194  14.254  26.4590  0.00  0.00     0.000 C
ATOM     45   O  GCU B   3      18.330  15.058  26.0760  0.00  0.00     0.000 OA
ATOM     46   O  GCU B   3      19.037  13.565  27.4850  0.00  0.00     0.000 OA
ENDBRANCH 38 44
BRANCH 34 47
ATOM     47  O3  NAG B   4      20.712  13.340  22.2470  0.00  0.00     0.000 O
BRANCH 47 50
ATOM     48  C1  NAG B   4      18.082  13.605  19.6460  0.00  0.00     0.000 C
ATOM     49  C2  NAG B   4      18.733  13.183  20.9590  0.00  0.00     0.000 C
ATOM     50  C3  NAG B   4      19.929  14.059  21.2950  0.00  0.00     0.000 C
ATOM     51  C4  NAG B   4      20.798  14.410  20.0820  0.00  0.00     0.000 C
ATOM     52  C5  NAG B   4      19.996  15.156  19.0280  0.00  0.00     0.000 C
ATOM     53  O5  NAG B   4      18.670  14.625  18.8110  0.00  0.00     0.000 O
BRANCH 49 56
ATOM     54   N  NAG B   4      17.746  13.817  21.8500  0.00  0.00     0.000 N
ATOM     56  HD  NAG B   4      17.563  14.663  21.8810  0.00  0.00     0.000 HD
ATOM     56   C  NAG B   4      16.078  14.034  23.6000  0.00  0.00     0.000 C
ATOM     57   O  NAG B   4      17.333  12.082  23.2590  0.00  0.00     0.000 OA
ATOM     58   C  NAG B   4      17.119  13.226  22.8860  0.00  0.00     0.000 C
ENDBRANCH 49 56
ATOM     59   O  NAG B   4      20.281  16.154  16.7880  0.00  0.00     0.000 O
ATOM     61  HD  NAG B   4      20.059  15.472  17.2730  0.00  0.00     0.000 HD
ATOM     61   O  NAG B   4      20.281  16.154  16.7880  0.00  0.00     0.000 O
ATOM     63  HD  NAG B   4      20.059  15.472  17.2730  0.00  0.00     0.000 HD
ENDBRANCH 47 50
ENDBRANCH 34 47
ENDBRANCH 33 37
ENDBRANCH 17 33
ENDBRANCH 16 19
ENDBRANCH 1 16
TORSDOF 10
ENDMDL
MODEL 82
REMARK VINA RESULT:      -5.1     21.093     26.526
ROOT
ATOM      1  C1  GCU B   1      15.358  15.881  37.9720  0.00  0.00     0.000 C
ATOM      2  C2  GCU B   1      16.288  15.443  39.0930  0.00  0.00     0.000 C
ATOM      3  C3  GCU B   1      16.810  14.038  38.8330  0.00  0.00     0.000 C
ATOM      4  C4  GCU B   1      15.654  13.093  38.5440  0.00  0.00     0.000 C
ATOM      5  C5  GCU B   1      14.747  13.653  37.4460  0.00  0.00     0.000 C
ATOM      6  O5  GCU B   1      14.274  14.947  37.8430  0.00  0.00     0.000 O
ATOM      7   O  GCU B   1      17.361  16.377  39.1540  0.00  0.00     0.000 O
ATOM      9  HD  GCU B   1      17.630  16.800  39.8600  0.00  0.00     0.000 HD
ATOM      9   O  GCU B   1      17.555  13.562  39.9570  0.00  0.00     0.000 O
ATOM     11  HD  GCU B   1      17.824  13.985  40.6630  0.00  0.00     0.000 HD
ATOM     11   O  GCU B   1      16.181  11.830  38.1370  0.00  0.00     0.000 O
ATOM     13  HD  GCU B   1      16.450  12.254  38.8430  0.00  0.00     0.000 HD
ENDROOT
BRANCH 5 13
ATOM     13   C  GCU B   1      13.618  12.689  37.1710  0.00  0.00     0.000 C
ATOM     14   O  GCU B   1      13.031  12.703  36.0690  0.00  0.00     0.000 OA
ATOM     15   O  GCU B   1      13.326  11.876  38.0690  0.00  0.00     0.000 OA
ENDBRANCH 5 13
BRANCH 1 16
ATOM     16  O3  NAG B   2      14.372  16.778  38.0360  0.00  0.00     0.000 O
BRANCH 16 19
ATOM     17  C1  NAG B   2      13.868  20.169  36.4640  0.00  0.00     0.000 C
ATOM     18  C2  NAG B   2      14.548  19.100  37.3110  0.00  0.00     0.000 C
ATOM     19  C3  NAG B   2      13.861  17.751  37.1130  0.00  0.00     0.000 C
ATOM     20  C4  NAG B   2      12.355  17.882  37.3440  0.00  0.00     0.000 C
ATOM     21  C5  NAG B   2      11.788  18.971  36.4460  0.00  0.00     0.000 C
ATOM     22  O5  NAG B   2      12.458  20.210  36.7360  0.00  0.00     0.000 O
ATOM     23   O  NAG B   2      11.746  16.615  37.0720  0.00  0.00     0.000 O
ATOM     25  HD  NAG B   2      11.746  16.884  37.8950  0.00  0.00     0.000 HD
ATOM     25   C  NAG B   2      10.280  19.147  36.6120  0.00  0.00     0.000 C
ATOM     26   O  NAG B   2       9.955  19.790  37.8540  0.00  0.00     0.000 O
ATOM     28  HD  NAG B   2       9.955  20.060  38.6770  0.00  0.00     0.000 HD
BRANCH 18 30
ATOM     28   N  NAG B   2      15.644  19.796  37.9590  0.00  0.00     0.000 N
ATOM     30  HD  NAG B   2      16.047  19.249  37.4230  0.00  0.00     0.000 HD
ATOM     30   C  NAG B   2      16.933  19.477  37.7920  0.00  0.00     0.000 C
ATOM     31   C  NAG B   2      17.952  20.264  38.5680  0.00  0.00     0.000 C
ATOM     32   O  NAG B   2      17.281  18.585  37.0440  0.00  0.00     0.000 OA
ENDBRANCH 18 30
BRANCH 17 33
ATOM     33  O4  GCU B   3      14.537  21.420  36.7220  0.00  0.00     0.000 O
BRANCH 33 37
ATOM     34  C1  GCU B   3      14.935  24.826  34.3610  0.00  0.00     0.000 C
ATOM     35  C2  GCU B   3      13.673  24.697  35.2140  0.00  0.00     0.000 C
ATOM     36  C3  GCU B   3      13.893  23.656  36.2910  0.00  0.00     0.000 C
ATOM     37  C4  GCU B   3      14.328  22.344  35.6530  0.00  0.00     0.000 C
ATOM     38  C5  GCU B   3      15.594  22.570  34.8250  0.00  0.00     0.000 C
ATOM     39  O5  GCU B   3      15.314  23.555  33.8250  0.00  0.00     0.000 O
ATOM     40   O  GCU B   3      13.382  25.966  35.8050  0.00  0.00     0.000 O
ATOM     42  HD  GCU B   3      13.194  26.341  36.5620  0.00  0.00     0.000 HD
ATOM     42   O  GCU B   3      12.699  23.456  37.0700  0.00  0.00     0.000 O
ATOM     44  HD  GCU B   3      12.512  23.832  37.8270  0.00  0.00     0.000 HD
BRANCH 38 44
ATOM     44   C  GCU B   3      16.072  21.315  34.1390  0.00  0.00     0.000 C
ATOM     45   O  GCU B   3      15.323  20.766  33.3160  0.00  0.00     0.000 OA
ATOM     46   O  GCU B   3      17.199  20.856  34.4050  0.00  0.00     0.000 OA
ENDBRANCH 38 44
BRANCH 34 47
ATOM     47  O3  NAG B   4      14.662  25.580  33.3060  0.00  0.00     0.000 O
BRANCH 47 50
ATOM     48  C1  NAG B   4      15.110  29.243  32.9340  0.00  0.00     0.000 C
ATOM     49  C2  NAG B   4      15.012  27.897  33.6440  0.00  0.00     0.000 C
ATOM     50  C3  NAG B   4      15.201  26.741  32.6750  0.00  0.00     0.000 C
ATOM     51  C4  NAG B   4      14.511  26.951  31.3210  0.00  0.00     0.000 C
ATOM     52  C5  NAG B   4      15.037  28.194  30.6230  0.00  0.00     0.000 C
ATOM     53  O5  NAG B   4      15.224  29.328  31.4980  0.00  0.00     0.000 O
BRANCH 49 56
ATOM     54   N  NAG B   4      16.367  27.875  34.2220  0.00  0.00     0.000 N
ATOM     56  HD  NAG B   4      17.107  27.819  33.7750  0.00  0.00     0.000 HD
ATOM     56   C  NAG B   4      18.115  27.839  35.9060  0.00  0.00     0.000 C
ATOM     57   O  NAG B   4      15.842  27.556  36.4110  0.00  0.00     0.000 OA
ATOM     58   C  NAG B   4      16.669  27.737  35.5290  0.00  0.00     0.000 C
ENDBRANCH 49 56
ATOM     59   O  NAG B   4      14.700  29.483  28.5440  0.00  0.00     0.000 O
ATOM     61  HD  NAG B   4      14.504  29.357  29.3790  0.00  0.00     0.000 HD
ATOM     61   O  NAG B   4      14.700  29.483  28.5440  0.00  0.00     0.000 O
ATOM     63  HD  NAG B   4      14.504  29.357  29.3790  0.00  0.00     0.000 HD
ENDBRANCH 47 50
ENDBRANCH 34 47
ENDBRANCH 33 37
ENDBRANCH 17 33
ENDBRANCH 16 19
ENDBRANCH 1 16
TORSDOF 10
ENDMDL
MODEL 83
REMARK VINA RESULT:      -5.1     18.126     21.949
ROOT
ATOM      1  C1  GCU B   1      21.429  18.897  36.7870  0.00  0.00     0.000 C
ATOM      2  C2  GCU B   1      22.481  19.668  37.5680  0.00  0.00     0.000 C
ATOM      3  C3  GCU B   1      22.633  19.093  38.9680  0.00  0.00     0.000 C
ATOM      4  C4  GCU B   1      21.274  18.987  39.6420  0.00  0.00     0.000 C
ATOM      5  C5  GCU B   1      20.274  18.249  38.7510  0.00  0.00     0.000 C
ATOM      6  O5  GCU B   1      20.177  18.928  37.4910  0.00  0.00     0.000 O
ATOM      7   O  GCU B   1      23.707  19.576  36.8490  0.00  0.00     0.000 O
ATOM      9  HD  GCU B   1      24.211  20.239  36.6110  0.00  0.00     0.000 HD
ATOM      9   O  GCU B   1      23.502  19.909  39.7570  0.00  0.00     0.000 O
ATOM     11  HD  GCU B   1      24.006  20.572  39.5190  0.00  0.00     0.000 HD
ATOM     11   O  GCU B   1      21.426  18.289  40.8790  0.00  0.00     0.000 O
ATOM     13  HD  GCU B   1      21.929  18.952  40.6410  0.00  0.00     0.000 HD
ENDROOT
BRANCH 5 13
ATOM     13   C  GCU B   1      18.940  18.146  39.4510  0.00  0.00     0.000 C
ATOM     14   O  GCU B   1      18.143  19.107  39.4350  0.00  0.00     0.000 OA
ATOM     15   O  GCU B   1      18.666  17.066  40.0090  0.00  0.00     0.000 OA
ENDBRANCH 5 13
BRANCH 1 16
ATOM     16  O3  NAG B   2      20.687  19.337  35.7680  0.00  0.00     0.000 O
BRANCH 16 19
ATOM     17  C1  NAG B   2      20.385  17.960  32.2690  0.00  0.00     0.000 C
ATOM     18  C2  NAG B   2      21.086  18.467  33.5230  0.00  0.00     0.000 C
ATOM     19  C3  NAG B   2      20.071  18.689  34.6440  0.00  0.00     0.000 C
ATOM     20  C4  NAG B   2      18.924  19.574  34.1560  0.00  0.00     0.000 C
ATOM     21  C5  NAG B   2      18.301  18.967  32.9070  0.00  0.00     0.000 C
ATOM     22  O5  NAG B   2      19.315  18.842  31.8940  0.00  0.00     0.000 O
ATOM     23   O  NAG B   2      17.963  19.690  35.2110  0.00  0.00     0.000 O
ATOM     25  HD  NAG B   2      18.407  20.403  35.0000  0.00  0.00     0.000 HD
ATOM     25   C  NAG B   2      17.133  19.792  32.3700  0.00  0.00     0.000 C
ATOM     26   O  NAG B   2      17.583  21.003  31.7420  0.00  0.00     0.000 O
ATOM     28  HD  NAG B   2      18.026  21.716  31.5320  0.00  0.00     0.000 HD
BRANCH 18 30
ATOM     28   N  NAG B   2      22.150  17.482  33.5650  0.00  0.00     0.000 N
ATOM     30  HD  NAG B   2      22.549  18.215  33.7970  0.00  0.00     0.000 HD
ATOM     30   C  NAG B   2      23.436  17.782  33.7840  0.00  0.00     0.000 C
ATOM     31   C  NAG B   2      24.429  16.655  33.7530  0.00  0.00     0.000 C
ATOM     32   O  NAG B   2      23.801  18.921  33.9980  0.00  0.00     0.000 OA
ENDBRANCH 18 30
BRANCH 17 33
ATOM     33  O4  GCU B   3      21.386  17.805  31.2430  0.00  0.00     0.000 O
BRANCH 33 37
ATOM     34  C1  GCU B   3      21.283  15.737  27.6310  0.00  0.00     0.000 C
ATOM     35  C2  GCU B   3      20.706  17.153  27.6550  0.00  0.00     0.000 C
ATOM     36  C3  GCU B   3      21.204  17.883  28.8850  0.00  0.00     0.000 C
ATOM     37  C4  GCU B   3      20.871  17.073  30.1300  0.00  0.00     0.000 C
ATOM     38  C5  GCU B   3      21.489  15.678  30.0170  0.00  0.00     0.000 C
ATOM     39  O5  GCU B   3      20.972  15.044  28.8430  0.00  0.00     0.000 O
ATOM     40   O  GCU B   3      21.118  17.841  26.4720  0.00  0.00     0.000 O
ATOM     42  HD  GCU B   3      21.476  18.581  26.2000  0.00  0.00     0.000 HD
ATOM     42   O  GCU B   3      20.624  19.196  28.9780  0.00  0.00     0.000 O
ATOM     44  HD  GCU B   3      20.982  19.936  28.7060  0.00  0.00     0.000 HD
BRANCH 38 44
ATOM     44   C  GCU B   3      21.179  14.806  31.2080  0.00  0.00     0.000 C
ATOM     45   O  GCU B   3      21.943  14.840  32.1840  0.00  0.00     0.000 OA
ATOM     46   O  GCU B   3      20.168  14.077  31.1930  0.00  0.00     0.000 OA
ENDBRANCH 38 44
BRANCH 34 47
ATOM     47  O3  NAG B   4      20.682  15.048  26.6720  0.00  0.00     0.000 O
BRANCH 47 50
ATOM     48  C1  NAG B   4      18.744  12.132  25.4500  0.00  0.00     0.000 C
ATOM     49  C2  NAG B   4      19.901  12.890  26.0910  0.00  0.00     0.000 C
ATOM     50  C3  NAG B   4      19.484  14.289  26.5140  0.00  0.00     0.000 C
ATOM     51  C4  NAG B   4      18.566  14.991  25.5070  0.00  0.00     0.000 C
ATOM     52  C5  NAG B   4      17.285  14.204  25.2880  0.00  0.00     0.000 C
ATOM     53  O5  NAG B   4      17.481  12.777  25.1810  0.00  0.00     0.000 O
BRANCH 49 56
ATOM     54   N  NAG B   4      19.810  12.176  27.3770  0.00  0.00     0.000 N
ATOM     56  HD  NAG B   4      19.086  12.048  27.8340  0.00  0.00     0.000 HD
ATOM     56   C  NAG B   4      20.527  10.985  29.3660  0.00  0.00     0.000 C
ATOM     57   O  NAG B   4      22.020  12.024  27.8850  0.00  0.00     0.000 OA
ATOM     58   C  NAG B   4      20.849  11.784  28.1410  0.00  0.00     0.000 C
ENDBRANCH 49 56
ATOM     59   O  NAG B   4      15.200  14.310  23.9700  0.00  0.00     0.000 O
ATOM     61  HD  NAG B   4      16.016  14.031  24.0450  0.00  0.00     0.000 HD
ATOM     61   O  NAG B   4      15.200  14.310  23.9700  0.00  0.00     0.000 O
ATOM     63  HD  NAG B   4      16.016  14.031  24.0450  0.00  0.00     0.000 HD
ENDBRANCH 47 50
ENDBRANCH 34 47
ENDBRANCH 33 37
ENDBRANCH 17 33
ENDBRANCH 16 19
ENDBRANCH 1 16
TORSDOF 10
ENDMDL
MODEL 84
REMARK VINA RESULT:      -5.1     10.373     12.771
ROOT
ATOM      1  C1  GCU B   1      25.255  32.300  13.6470  0.00  0.00     0.000 C
ATOM      2  C2  GCU B   1      26.681  31.776  13.5660  0.00  0.00     0.000 C
ATOM      3  C3  GCU B   1      27.643  32.904  13.2290  0.00  0.00     0.000 C
ATOM      4  C4  GCU B   1      27.160  33.658  12.0000  0.00  0.00     0.000 C
ATOM      5  C5  GCU B   1      25.699  34.087  12.1570  0.00  0.00     0.000 C
ATOM      6  O5  GCU B   1      24.894  32.927  12.4060  0.00  0.00     0.000 O
ATOM      7   O  GCU B   1      27.002  31.199  14.8280  0.00  0.00     0.000 O
ATOM      9  HD  GCU B   1      27.318  30.404  14.9610  0.00  0.00     0.000 HD
ATOM      9   O  GCU B   1      28.958  32.392  12.9960  0.00  0.00     0.000 O
ATOM     11  HD  GCU B   1      29.274  31.597  13.1290  0.00  0.00     0.000 HD
ATOM     11   O  GCU B   1      27.983  34.809  11.8100  0.00  0.00     0.000 O
ATOM     13  HD  GCU B   1      28.299  34.014  11.9430  0.00  0.00     0.000 HD
ENDROOT
BRANCH 5 13
ATOM     13   C  GCU B   1      25.251  34.844  10.9300  0.00  0.00     0.000 C
ATOM     14   O  GCU B   1      25.797  34.638   9.8270  0.00  0.00     0.000 OA
ATOM     15   O  GCU B   1      24.309  35.648  11.0640  0.00  0.00     0.000 OA
ENDBRANCH 5 13
BRANCH 1 16
ATOM     16  O3  NAG B   2      24.125  31.616  13.4500  0.00  0.00     0.000 O
BRANCH 16 19
ATOM     17  C1  NAG B   2      21.206  31.152  15.7930  0.00  0.00     0.000 C
ATOM     18  C2  NAG B   2      22.664  31.171  15.3520  0.00  0.00     0.000 C
ATOM     19  C3  NAG B   2      22.786  31.759  13.9480  0.00  0.00     0.000 C
ATOM     20  C4  NAG B   2      21.842  31.039  12.9860  0.00  0.00     0.000 C
ATOM     21  C5  NAG B   2      20.420  31.088  13.5250  0.00  0.00     0.000 C
ATOM     22  O5  NAG B   2      20.393  30.470  14.8240  0.00  0.00     0.000 O
ATOM     23   O  NAG B   2      21.933  31.673  11.7050  0.00  0.00     0.000 O
ATOM     25  HD  NAG B   2      22.243  30.867  11.7700  0.00  0.00     0.000 HD
ATOM     25   C  NAG B   2      19.415  30.399  12.6040  0.00  0.00     0.000 C
ATOM     26   O  NAG B   2      19.545  28.970  12.6510  0.00  0.00     0.000 O
ATOM     28  HD  NAG B   2      19.856  28.164  12.7150  0.00  0.00     0.000 HD
BRANCH 18 30
ATOM     28   N  NAG B   2      23.225  31.782  16.5420  0.00  0.00     0.000 N
ATOM     30  HD  NAG B   2      23.811  31.179  16.3350  0.00  0.00     0.000 HD
ATOM     30   C  NAG B   2      24.324  31.336  17.1630  0.00  0.00     0.000 C
ATOM     31   C  NAG B   2      24.756  32.050  18.4130  0.00  0.00     0.000 C
ATOM     32   O  NAG B   2      24.957  30.388  16.7440  0.00  0.00     0.000 OA
ENDBRANCH 18 30
BRANCH 17 33
ATOM     33  O4  GCU B   3      21.155  30.555  17.1040  0.00  0.00     0.000 O
BRANCH 33 37
ATOM     34  C1  GCU B   3      18.242  30.727  20.0740  0.00  0.00     0.000 C
ATOM     35  C2  GCU B   3      17.927  29.916  18.8160  0.00  0.00     0.000 C
ATOM     36  C3  GCU B   3      19.210  29.615  18.0720  0.00  0.00     0.000 C
ATOM     37  C4  GCU B   3      19.951  30.914  17.7850  0.00  0.00     0.000 C
ATOM     38  C5  GCU B   3      20.224  31.651  19.0970  0.00  0.00     0.000 C
ATOM     39  O5  GCU B   3      18.974  31.910  19.7430  0.00  0.00     0.000 O
ATOM     40   O  GCU B   3      17.280  28.700  19.1990  0.00  0.00     0.000 O
ATOM     42  HD  GCU B   3      17.309  27.843  19.0800  0.00  0.00     0.000 HD
ATOM     42   O  GCU B   3      18.944  28.915  16.8430  0.00  0.00     0.000 O
ATOM     44  HD  GCU B   3      18.972  28.058  16.7240  0.00  0.00     0.000 HD
BRANCH 38 44
ATOM     44   C  GCU B   3      20.936  32.964  18.8890  0.00  0.00     0.000 C
ATOM     45   O  GCU B   3      21.749  33.341  19.7460  0.00  0.00     0.000 OA
ATOM     46   O  GCU B   3      20.701  33.640  17.8690  0.00  0.00     0.000 OA
ENDBRANCH 38 44
BRANCH 34 47
ATOM     47  O3  NAG B   4      17.105  31.157  20.6010  0.00  0.00     0.000 O
BRANCH 47 50
ATOM     48  C1  NAG B   4      14.839  29.604  23.0930  0.00  0.00     0.000 C
ATOM     49  C2  NAG B   4      15.937  29.682  22.0380  0.00  0.00     0.000 C
ATOM     50  C3  NAG B   4      16.445  31.104  21.8650  0.00  0.00     0.000 C
ATOM     51  C4  NAG B   4      15.338  32.164  21.9060  0.00  0.00     0.000 C
ATOM     52  C5  NAG B   4      14.590  32.128  23.2290  0.00  0.00     0.000 C
ATOM     53  O5  NAG B   4      14.302  30.795  23.7060  0.00  0.00     0.000 O
BRANCH 49 56
ATOM     54   N  NAG B   4      17.076  29.207  22.8420  0.00  0.00     0.000 N
ATOM     56  HD  NAG B   4      17.481  29.658  23.4610  0.00  0.00     0.000 HD
ATOM     56   C  NAG B   4      18.853  27.748  23.6200  0.00  0.00     0.000 C
ATOM     57   O  NAG B   4      17.624  27.342  21.6650  0.00  0.00     0.000 OA
ATOM     58   C  NAG B   4      17.796  28.090  22.6160  0.00  0.00     0.000 C
ENDBRANCH 49 56
ATOM     59   O  NAG B   4      12.720  33.259  24.3770  0.00  0.00     0.000 O
ATOM     61  HD  NAG B   4      12.998  32.607  23.8800  0.00  0.00     0.000 HD
ATOM     61   O  NAG B   4      12.720  33.259  24.3770  0.00  0.00     0.000 O
ATOM     63  HD  NAG B   4      12.998  32.607  23.8800  0.00  0.00     0.000 HD
ENDBRANCH 47 50
ENDBRANCH 34 47
ENDBRANCH 33 37
ENDBRANCH 17 33
ENDBRANCH 16 19
ENDBRANCH 1 16
TORSDOF 10
ENDMDL
MODEL 85
REMARK VINA RESULT:      -5.1     12.415     15.705
ROOT
ATOM      1  C1  GCU B   1      28.417  32.406  13.8730  0.00  0.00     0.000 C
ATOM      2  C2  GCU B   1      29.531  31.632  14.5620  0.00  0.00     0.000 C
ATOM      3  C3  GCU B   1      30.872  32.314  14.3340  0.00  0.00     0.000 C
ATOM      4  C4  GCU B   1      31.084  32.572  12.8500  0.00  0.00     0.000 C
ATOM      5  C5  GCU B   1      29.883  33.299  12.2420  0.00  0.00     0.000 C
ATOM      6  O5  GCU B   1      28.699  32.523  12.4700  0.00  0.00     0.000 O
ATOM      7   O  GCU B   1      29.224  31.576  15.9510  0.00  0.00     0.000 O
ATOM      9  HD  GCU B   1      29.195  30.861  16.4400  0.00  0.00     0.000 HD
ATOM      9   O  GCU B   1      31.939  31.509  14.8420  0.00  0.00     0.000 O
ATOM     11  HD  GCU B   1      31.909  30.794  15.3300  0.00  0.00     0.000 HD
ATOM     11   O  GCU B   1      32.262  33.362  12.6830  0.00  0.00     0.000 O
ATOM     13  HD  GCU B   1      32.233  32.647  13.1710  0.00  0.00     0.000 HD
ENDROOT
BRANCH 5 13
ATOM     13   C  GCU B   1      30.127  33.555  10.7740  0.00  0.00     0.000 C
ATOM     14   O  GCU B   1      30.836  34.516  10.4100  0.00  0.00     0.000 OA
ATOM     15   O  GCU B   1      29.620  32.758   9.9600  0.00  0.00     0.000 OA
ENDBRANCH 5 13
BRANCH 1 16
ATOM     16  O3  NAG B   2      27.247  31.933  13.4390  0.00  0.00     0.000 O
BRANCH 16 19
ATOM     17  C1  NAG B   2      23.758  33.144  14.2070  0.00  0.00     0.000 C
ATOM     18  C2  NAG B   2      25.181  32.684  14.4980  0.00  0.00     0.000 C
ATOM     19  C3  NAG B   2      25.967  32.538  13.1970  0.00  0.00     0.000 C
ATOM     20  C4  NAG B   2      25.204  31.655  12.2100  0.00  0.00     0.000 C
ATOM     21  C5  NAG B   2      23.805  32.213  11.9940  0.00  0.00     0.000 C
ATOM     22  O5  NAG B   2      23.125  32.267  13.2610  0.00  0.00     0.000 O
ATOM     23   O  NAG B   2      25.940  31.611  10.9820  0.00  0.00     0.000 O
ATOM     25  HD  NAG B   2      25.896  30.879  11.4420  0.00  0.00     0.000 HD
ATOM     25   C  NAG B   2      22.986  31.388  11.0030  0.00  0.00     0.000 C
ATOM     26   O  NAG B   2      22.566  30.139  11.5730  0.00  0.00     0.000 O
ATOM     28  HD  NAG B   2      22.522  29.407  12.0340  0.00  0.00     0.000 HD
BRANCH 18 30
ATOM     28   N  NAG B   2      25.417  33.629  15.5730  0.00  0.00     0.000 N
ATOM     30  HD  NAG B   2      25.873  32.934  15.8170  0.00  0.00     0.000 HD
ATOM     30   C  NAG B   2      26.083  33.331  16.6950  0.00  0.00     0.000 C
ATOM     31   C  NAG B   2      26.207  34.406  17.7380  0.00  0.00     0.000 C
ATOM     32   O  NAG B   2      26.572  32.234  16.8780  0.00  0.00     0.000 OA
ENDBRANCH 18 30
BRANCH 17 33
ATOM     33  O4  GCU B   3      23.060  33.227  15.4660  0.00  0.00     0.000 O
BRANCH 33 37
ATOM     34  C1  GCU B   3      19.432  35.011  16.4600  0.00  0.00     0.000 C
ATOM     35  C2  GCU B   3      19.390  33.619  15.8290  0.00  0.00     0.000 C
ATOM     36  C3  GCU B   3      20.755  32.972  15.9340  0.00  0.00     0.000 C
ATOM     37  C4  GCU B   3      21.802  33.886  15.3130  0.00  0.00     0.000 C
ATOM     38  C5  GCU B   3      21.773  35.249  16.0070  0.00  0.00     0.000 C
ATOM     39  O5  GCU B   3      20.462  35.805  15.8630  0.00  0.00     0.000 O
ATOM     40   O  GCU B   3      18.415  32.829  16.5150  0.00  0.00     0.000 O
ATOM     42  HD  GCU B   3      18.302  32.060  16.8960  0.00  0.00     0.000 HD
ATOM     42   O  GCU B   3      20.771  31.688  15.2850  0.00  0.00     0.000 O
ATOM     44  HD  GCU B   3      20.658  30.919  15.6670  0.00  0.00     0.000 HD
BRANCH 38 44
ATOM     44   C  GCU B   3      22.770  36.219  15.4250  0.00  0.00     0.000 C
ATOM     45   O  GCU B   3      23.895  36.296  15.9430  0.00  0.00     0.000 OA
ATOM     46   O  GCU B   3      22.453  36.918  14.4440  0.00  0.00     0.000 OA
ENDBRANCH 38 44
BRANCH 34 47
ATOM     47  O3  NAG B   4      18.301  35.642  16.1800  0.00  0.00     0.000 O
BRANCH 47 50
ATOM     48  C1  NAG B   4      14.975  36.963  17.1540  0.00  0.00     0.000 C
ATOM     49  C2  NAG B   4      16.076  35.931  16.9360  0.00  0.00     0.000 C
ATOM     50  C3  NAG B   4      17.441  36.589  16.8110  0.00  0.00     0.000 C
ATOM     51  C4  NAG B   4      17.428  37.887  15.9950  0.00  0.00     0.000 C
ATOM     52  C5  NAG B   4      16.503  38.920  16.6180  0.00  0.00     0.000 C
ATOM     53  O5  NAG B   4      15.251  38.379  17.0940  0.00  0.00     0.000 O
BRANCH 49 56
ATOM     54   N  NAG B   4      16.206  35.487  18.3350  0.00  0.00     0.000 N
ATOM     56  HD  NAG B   4      16.479  35.974  18.9970  0.00  0.00     0.000 HD
ATOM     56   C  NAG B   4      16.181  34.003  20.2560  0.00  0.00     0.000 C
ATOM     57   O  NAG B   4      15.960  33.245  18.0470  0.00  0.00     0.000 OA
ATOM     58   C  NAG B   4      16.113  34.216  18.7740  0.00  0.00     0.000 C
ENDBRANCH 49 56
ATOM     59   O  NAG B   4      15.695  41.219  16.2240  0.00  0.00     0.000 O
ATOM     61  HD  NAG B   4      15.583  40.367  16.1210  0.00  0.00     0.000 HD
ATOM     61   O  NAG B   4      15.695  41.219  16.2240  0.00  0.00     0.000 O
ATOM     63  HD  NAG B   4      15.583  40.367  16.1210  0.00  0.00     0.000 HD
ENDBRANCH 47 50
ENDBRANCH 34 47
ENDBRANCH 33 37
ENDBRANCH 17 33
ENDBRANCH 16 19
ENDBRANCH 1 16
TORSDOF 10
ENDMDL
MODEL 86
REMARK VINA RESULT:      -5.1     10.316     18.604
ROOT
ATOM      1  C1  GCU B   1      10.771  11.786  28.2770  0.00  0.00     0.000 C
ATOM      2  C2  GCU B   1      10.294  12.742  29.3600  0.00  0.00     0.000 C
ATOM      3  C3  GCU B   1      10.760  12.270  30.7290  0.00  0.00     0.000 C
ATOM      4  C4  GCU B   1      10.382  10.812  30.9380  0.00  0.00     0.000 C
ATOM      5  C5  GCU B   1      10.853   9.947  29.7670  0.00  0.00     0.000 C
ATOM      6  O5  GCU B   1      10.293  10.459  28.5510  0.00  0.00     0.000 O
ATOM      7   O  GCU B   1      10.823  14.030  29.0640  0.00  0.00     0.000 O
ATOM      9  HD  GCU B   1      10.371  14.767  29.0050  0.00  0.00     0.000 HD
ATOM      9   O  GCU B   1      10.183  13.072  31.7620  0.00  0.00     0.000 O
ATOM     11  HD  GCU B   1       9.731  13.809  31.7040  0.00  0.00     0.000 HD
ATOM     11   O  GCU B   1      10.979  10.350  32.1510  0.00  0.00     0.000 O
ATOM     13  HD  GCU B   1      10.527  11.086  32.0920  0.00  0.00     0.000 HD
ENDROOT
BRANCH 5 13
ATOM     13   C  GCU B   1      10.477   8.505  30.0090  0.00  0.00     0.000 C
ATOM     14   O  GCU B   1       9.364   8.073  29.6450  0.00  0.00     0.000 OA
ATOM     15   O  GCU B   1      11.327   7.774  30.5540  0.00  0.00     0.000 OA
ENDBRANCH 5 13
BRANCH 1 16
ATOM     16  O3  NAG B   2      10.217  11.570  27.0820  0.00  0.00     0.000 O
BRANCH 16 19
ATOM     17  C1  NAG B   2      12.160  11.703  23.8510  0.00  0.00     0.000 C
ATOM     18  C2  NAG B   2      11.763  12.096  25.2680  0.00  0.00     0.000 C
ATOM     19  C3  NAG B   2      10.735  11.112  25.8230  0.00  0.00     0.000 C
ATOM     20  C4  NAG B   2       9.563  10.964  24.8530  0.00  0.00     0.000 C
ATOM     21  C5  NAG B   2      10.079  10.567  23.4770  0.00  0.00     0.000 C
ATOM     22  O5  NAG B   2      10.998  11.572  23.0170  0.00  0.00     0.000 O
ATOM     23   O  NAG B   2       8.666   9.977  25.3760  0.00  0.00     0.000 O
ATOM     25  HD  NAG B   2       8.385  10.796  25.3580  0.00  0.00     0.000 HD
ATOM     25   C  NAG B   2       8.958  10.384  22.4560  0.00  0.00     0.000 C
ATOM     26   O  NAG B   2       8.399  11.644  22.0510  0.00  0.00     0.000 O
ATOM     28  HD  NAG B   2       8.118  12.462  22.0330  0.00  0.00     0.000 HD
BRANCH 18 30
ATOM     28   N  NAG B   2      13.111  12.301  25.7620  0.00  0.00     0.000 N
ATOM     30  HD  NAG B   2      12.656  12.911  26.1740  0.00  0.00     0.000 HD
ATOM     30   C  NAG B   2      13.469  13.318  26.5550  0.00  0.00     0.000 C
ATOM     31   C  NAG B   2      14.917  13.420  26.9470  0.00  0.00     0.000 C
ATOM     32   O  NAG B   2      12.664  14.139  26.9480  0.00  0.00     0.000 OA
ENDBRANCH 18 30
BRANCH 17 33
ATOM     33  O4  GCU B   3      13.100  12.686  23.3740  0.00  0.00     0.000 O
BRANCH 33 37
ATOM     34  C1  GCU B   3      15.668  12.632  20.0970  0.00  0.00     0.000 C
ATOM     35  C2  GCU B   3      14.217  13.047  19.8550  0.00  0.00     0.000 C
ATOM     36  C3  GCU B   3      13.568  13.417  21.1720  0.00  0.00     0.000 C
ATOM     37  C4  GCU B   3      13.711  12.263  22.1540  0.00  0.00     0.000 C
ATOM     38  C5  GCU B   3      15.191  11.921  22.3340  0.00  0.00     0.000 C
ATOM     39  O5  GCU B   3      15.738  11.574  21.0580  0.00  0.00     0.000 O
ATOM     40   O  GCU B   3      14.198  14.164  18.9630  0.00  0.00     0.000 O
ATOM     42  HD  GCU B   3      13.865  14.959  18.8680  0.00  0.00     0.000 HD
ATOM     42   O  GCU B   3      12.179  13.744  20.9910  0.00  0.00     0.000 O
ATOM     44  HD  GCU B   3      11.847  14.538  20.8950  0.00  0.00     0.000 HD
BRANCH 38 44
ATOM     44   C  GCU B   3      15.410  10.765  23.2780  0.00  0.00     0.000 C
ATOM     45   O  GCU B   3      15.714  11.009  24.4560  0.00  0.00     0.000 OA
ATOM     46   O  GCU B   3      15.280   9.597  22.8650  0.00  0.00     0.000 OA
ENDBRANCH 38 44
BRANCH 34 47
ATOM     47  O3  NAG B   4      16.158  12.117  18.9780  0.00  0.00     0.000 O
BRANCH 47 50
ATOM     48  C1  NAG B   4      18.323  14.561  17.2180  0.00  0.00     0.000 C
ATOM     49  C2  NAG B   4      17.692  13.823  18.3940  0.00  0.00     0.000 C
ATOM     50  C3  NAG B   4      17.080  12.501  17.9590  0.00  0.00     0.000 C
ATOM     51  C4  NAG B   4      16.350  12.573  16.6130  0.00  0.00     0.000 C
ATOM     52  C5  NAG B   4      17.290  13.004  15.4990  0.00  0.00     0.000 C
ATOM     53  O5  NAG B   4      18.188  14.073  15.8670  0.00  0.00     0.000 O
BRANCH 49 56
ATOM     54   N  NAG B   4      18.931  13.272  18.9710  0.00  0.00     0.000 N
ATOM     56  HD  NAG B   4      19.443  12.681  18.6000  0.00  0.00     0.000 HD
ATOM     56   C  NAG B   4      20.701  12.873  20.5840  0.00  0.00     0.000 C
ATOM     57   O  NAG B   4      18.737  14.046  21.1000  0.00  0.00     0.000 OA
ATOM     58   C  NAG B   4      19.360  13.445  20.2380  0.00  0.00     0.000 C
ENDBRANCH 49 56
ATOM     59   O  NAG B   4      17.265  13.465  13.0740  0.00  0.00     0.000 O
ATOM     61  HD  NAG B   4      17.195  13.760  13.8850  0.00  0.00     0.000 HD
ATOM     61   O  NAG B   4      17.265  13.465  13.0740  0.00  0.00     0.000 O
ATOM     63  HD  NAG B   4      17.195  13.760  13.8850  0.00  0.00     0.000 HD
ENDBRANCH 47 50
ENDBRANCH 34 47
ENDBRANCH 33 37
ENDBRANCH 17 33
ENDBRANCH 16 19
ENDBRANCH 1 16
TORSDOF 10
ENDMDL
MODEL 87
REMARK VINA RESULT:      -5.1     19.031     23.067
ROOT
ATOM      1  C1  GCU B   1      26.086  40.994   9.3900  0.00  0.00     0.000 C
ATOM      2  C2  GCU B   1      27.485  40.885   8.8030  0.00  0.00     0.000 C
ATOM      3  C3  GCU B   1      27.432  40.263   7.4160  0.00  0.00     0.000 C
ATOM      4  C4  GCU B   1      26.641  38.964   7.4520  0.00  0.00     0.000 C
ATOM      5  C5  GCU B   1      25.278  39.169   8.1150  0.00  0.00     0.000 C
ATOM      6  O5  GCU B   1      25.472  39.696   9.4340  0.00  0.00     0.000 O
ATOM      7   O  GCU B   1      28.034  42.198   8.7460  0.00  0.00     0.000 O
ATOM      9  HD  GCU B   1      28.800  42.445   9.0660  0.00  0.00     0.000 HD
ATOM      9   O  GCU B   1      28.752  40.012   6.9250  0.00  0.00     0.000 O
ATOM     11  HD  GCU B   1      29.517  40.260   7.2450  0.00  0.00     0.000 HD
ATOM     11   O  GCU B   1      26.463  38.495   6.1150  0.00  0.00     0.000 O
ATOM     13  HD  GCU B   1      27.229  38.743   6.4350  0.00  0.00     0.000 HD
ENDROOT
BRANCH 5 13
ATOM     13   C  GCU B   1      24.511  37.868   8.1240  0.00  0.00     0.000 C
ATOM     14   O  GCU B   1      23.264  37.871   8.0660  0.00  0.00     0.000 OA
ATOM     15   O  GCU B   1      25.172  36.813   8.1630  0.00  0.00     0.000 OA
ENDBRANCH 5 13
BRANCH 1 16
ATOM     16  O3  NAG B   2      25.746  41.026  10.6810  0.00  0.00     0.000 O
BRANCH 16 19
ATOM     17  C1  NAG B   2      22.638  42.288  12.4050  0.00  0.00     0.000 C
ATOM     18  C2  NAG B   2      23.867  42.345  11.5070  0.00  0.00     0.000 C
ATOM     19  C3  NAG B   2      24.490  40.957  11.3720  0.00  0.00     0.000 C
ATOM     20  C4  NAG B   2      24.740  40.350  12.7530  0.00  0.00     0.000 C
ATOM     21  C5  NAG B   2      23.447  40.342  13.5550  0.00  0.00     0.000 C
ATOM     22  O5  NAG B   2      22.963  41.692  13.6710  0.00  0.00     0.000 O
ATOM     23   O  NAG B   2      25.250  39.023  12.5770  0.00  0.00     0.000 O
ATOM     25  HD  NAG B   2      25.793  39.615  12.9020  0.00  0.00     0.000 HD
ATOM     25   C  NAG B   2      23.618  39.733  14.9450  0.00  0.00     0.000 C
ATOM     26   O  NAG B   2      24.337  40.611  15.8240  0.00  0.00     0.000 O
ATOM     28  HD  NAG B   2      24.879  41.203  16.1490  0.00  0.00     0.000 HD
BRANCH 18 30
ATOM     28   N  NAG B   2      24.007  43.723  11.0740  0.00  0.00     0.000 N
ATOM     30  HD  NAG B   2      23.737  43.317  10.3580  0.00  0.00     0.000 HD
ATOM     30   C  NAG B   2      23.864  44.124   9.8050  0.00  0.00     0.000 C
ATOM     31   C  NAG B   2      24.084  45.581   9.5060  0.00  0.00     0.000 C
ATOM     32   O  NAG B   2      23.570  43.349   8.9170  0.00  0.00     0.000 OA
ENDBRANCH 18 30
BRANCH 17 33
ATOM     33  O4  GCU B   3      22.120  43.629  12.5200  0.00  0.00     0.000 O
BRANCH 33 37
ATOM     34  C1  GCU B   3      18.231  45.015  13.0520  0.00  0.00     0.000 C
ATOM     35  C2  GCU B   3      18.867  44.229  14.1990  0.00  0.00     0.000 C
ATOM     36  C3  GCU B   3      20.369  44.185  14.0120  0.00  0.00     0.000 C
ATOM     37  C4  GCU B   3      20.696  43.621  12.6360  0.00  0.00     0.000 C
ATOM     38  C5  GCU B   3      20.022  44.470  11.5570  0.00  0.00     0.000 C
ATOM     39  O5  GCU B   3      18.609  44.463  11.7880  0.00  0.00     0.000 O
ATOM     40   O  GCU B   3      18.541  44.868  15.4350  0.00  0.00     0.000 O
ATOM     42  HD  GCU B   3      18.897  45.162  16.1680  0.00  0.00     0.000 HD
ATOM     42   O  GCU B   3      20.995  43.390  15.0350  0.00  0.00     0.000 O
ATOM     44  HD  GCU B   3      21.350  43.684  15.7680  0.00  0.00     0.000 HD
BRANCH 38 44
ATOM     44   C  GCU B   3      20.282  43.955  10.1640  0.00  0.00     0.000 C
ATOM     45   O  GCU B   3      20.425  44.775   9.2450  0.00  0.00     0.000 OA
ATOM     46   O  GCU B   3      20.351  42.728   9.9620  0.00  0.00     0.000 OA
ENDBRANCH 38 44
BRANCH 34 47
ATOM     47  O3  NAG B   4      16.915  44.872  13.1140  0.00  0.00     0.000 O
BRANCH 47 50
ATOM     48  C1  NAG B   4      13.432  45.743  12.1840  0.00  0.00     0.000 C
ATOM     49  C2  NAG B   4      14.593  44.872  12.6520  0.00  0.00     0.000 C
ATOM     50  C3  NAG B   4      15.764  45.715  13.1310  0.00  0.00     0.000 C
ATOM     51  C4  NAG B   4      16.028  46.954  12.2670  0.00  0.00     0.000 C
ATOM     52  C5  NAG B   4      14.816  47.871  12.2350  0.00  0.00     0.000 C
ATOM     53  O5  NAG B   4      13.556  47.178  12.1010  0.00  0.00     0.000 O
BRANCH 49 56
ATOM     54   N  NAG B   4      13.916  44.504  13.9070  0.00  0.00     0.000 N
ATOM     56  HD  NAG B   4      13.436  45.034  14.3970  0.00  0.00     0.000 HD
ATOM     56   C  NAG B   4      13.226  43.153  15.8010  0.00  0.00     0.000 C
ATOM     57   O  NAG B   4      14.892  42.488  14.2910  0.00  0.00     0.000 OA
ATOM     58   C  NAG B   4      14.092  43.360  14.5970  0.00  0.00     0.000 C
ENDBRANCH 49 56
ATOM     59   O  NAG B   4      14.084  50.005  11.2330  0.00  0.00     0.000 O
ATOM     61  HD  NAG B   4      14.126  49.141  11.1880  0.00  0.00     0.000 HD
ATOM     61   O  NAG B   4      14.084  50.005  11.2330  0.00  0.00     0.000 O
ATOM     63  HD  NAG B   4      14.126  49.141  11.1880  0.00  0.00     0.000 HD
ENDBRANCH 47 50
ENDBRANCH 34 47
ENDBRANCH 33 37
ENDBRANCH 17 33
ENDBRANCH 16 19
ENDBRANCH 1 16
TORSDOF 10
ENDMDL
MODEL 88
REMARK VINA RESULT:      -5.0     12.676     15.399
ROOT
ATOM      1  C1  GCU B   1      22.329  38.645  14.6580  0.00  0.00     0.000 C
ATOM      2  C2  GCU B   1      22.891  40.024  14.9690  0.00  0.00     0.000 C
ATOM      3  C3  GCU B   1      23.143  40.797  13.6840  0.00  0.00     0.000 C
ATOM      4  C4  GCU B   1      23.974  39.960  12.7220  0.00  0.00     0.000 C
ATOM      5  C5  GCU B   1      23.357  38.574  12.5260  0.00  0.00     0.000 C
ATOM      6  O5  GCU B   1      23.234  37.930  13.8010  0.00  0.00     0.000 O
ATOM      7   O  GCU B   1      21.943  40.702  15.7880  0.00  0.00     0.000 O
ATOM      9  HD  GCU B   1      22.106  41.086  16.5470  0.00  0.00     0.000 HD
ATOM      9   O  GCU B   1      23.817  42.027  13.9600  0.00  0.00     0.000 O
ATOM     11  HD  GCU B   1      23.980  42.411  14.7190  0.00  0.00     0.000 HD
ATOM     11   O  GCU B   1      24.049  40.638  11.4680  0.00  0.00     0.000 O
ATOM     13  HD  GCU B   1      24.212  41.022  12.2270  0.00  0.00     0.000 HD
ENDROOT
BRANCH 5 13
ATOM     13   C  GCU B   1      24.194  37.773  11.5580  0.00  0.00     0.000 C
ATOM     14   O  GCU B   1      25.107  38.322  10.9080  0.00  0.00     0.000 OA
ATOM     15   O  GCU B   1      23.951  36.554  11.4620  0.00  0.00     0.000 OA
ENDBRANCH 5 13
BRANCH 1 16
ATOM     16  O3  NAG B   2      22.417  37.543  15.4070  0.00  0.00     0.000 O
BRANCH 16 19
ATOM     17  C1  NAG B   2      19.841  35.573  17.3330  0.00  0.00     0.000 C
ATOM     18  C2  NAG B   2      20.660  36.790  16.9250  0.00  0.00     0.000 C
ATOM     19  C3  NAG B   2      21.507  36.470  15.6940  0.00  0.00     0.000 C
ATOM     20  C4  NAG B   2      22.327  35.201  15.9280  0.00  0.00     0.000 C
ATOM     21  C5  NAG B   2      21.406  34.057  16.3240  0.00  0.00     0.000 C
ATOM     22  O5  NAG B   2      20.689  34.428  17.5160  0.00  0.00     0.000 O
ATOM     23   O  NAG B   2      23.042  34.898  14.7240  0.00  0.00     0.000 O
ATOM     25  HD  NAG B   2      23.509  35.149  15.4090  0.00  0.00     0.000 HD
ATOM     25   C  NAG B   2      22.157  32.748  16.5590  0.00  0.00     0.000 C
ATOM     26   O  NAG B   2      22.901  32.777  17.7870  0.00  0.00     0.000 O
ATOM     28  HD  NAG B   2      23.368  33.027  18.4720  0.00  0.00     0.000 HD
BRANCH 18 30
ATOM     28   N  NAG B   2      19.581  37.758  16.9690  0.00  0.00     0.000 N
ATOM     30  HD  NAG B   2      20.257  38.202  17.2760  0.00  0.00     0.000 HD
ATOM     30   C  NAG B   2      19.692  38.976  17.5130  0.00  0.00     0.000 C
ATOM     31   C  NAG B   2      18.469  39.849  17.5220  0.00  0.00     0.000 C
ATOM     32   O  NAG B   2      20.737  39.371  17.9890  0.00  0.00     0.000 OA
ENDBRANCH 18 30
BRANCH 17 33
ATOM     33  O4  GCU B   3      19.095  35.926  18.5160  0.00  0.00     0.000 O
BRANCH 33 37
ATOM     34  C1  GCU B   3      16.444  33.709  20.8360  0.00  0.00     0.000 C
ATOM     35  C2  GCU B   3      17.915  33.292  20.8450  0.00  0.00     0.000 C
ATOM     36  C3  GCU B   3      18.767  34.426  20.3160  0.00  0.00     0.000 C
ATOM     37  C4  GCU B   3      18.265  34.845  18.9420  0.00  0.00     0.000 C
ATOM     38  C5  GCU B   3      16.791  35.246  19.0320  0.00  0.00     0.000 C
ATOM     39  O5  GCU B   3      16.045  34.130  19.5290  0.00  0.00     0.000 O
ATOM     40   O  GCU B   3      18.297  32.969  22.1840  0.00  0.00     0.000 O
ATOM     42  HD  GCU B   3      18.906  33.128  22.7790  0.00  0.00     0.000 HD
ATOM     42   O  GCU B   3      20.151  34.043  20.2420  0.00  0.00     0.000 O
ATOM     44  HD  GCU B   3      20.760  34.201  20.8370  0.00  0.00     0.000 HD
BRANCH 38 44
ATOM     44   C  GCU B   3      16.215  35.650  17.6980  0.00  0.00     0.000 C
ATOM     45   O  GCU B   3      15.331  34.941  17.1940  0.00  0.00     0.000 OA
ATOM     46   O  GCU B   3      16.631  36.679  17.1320  0.00  0.00     0.000 OA
ENDBRANCH 38 44
BRANCH 34 47
ATOM     47  O3  NAG B   4      15.697  32.647  21.1020  0.00  0.00     0.000 O
BRANCH 47 50
ATOM     48  C1  NAG B   4      14.782  29.248  22.2710  0.00  0.00     0.000 C
ATOM     49  C2  NAG B   4      15.294  30.325  21.3200  0.00  0.00     0.000 C
ATOM     50  C3  NAG B   4      15.669  31.595  22.0660  0.00  0.00     0.000 C
ATOM     51  C4  NAG B   4      14.695  31.961  23.1910  0.00  0.00     0.000 C
ATOM     52  C5  NAG B   4      14.613  30.855  24.2310  0.00  0.00     0.000 C
ATOM     53  O5  NAG B   4      14.571  29.523  23.6720  0.00  0.00     0.000 O
BRANCH 49 56
ATOM     54   N  NAG B   4      16.377  29.650  20.5830  0.00  0.00     0.000 N
ATOM     56  HD  NAG B   4      16.277  29.151  19.8820  0.00  0.00     0.000 HD
ATOM     56   C  NAG B   4      18.614  28.888  20.0310  0.00  0.00     0.000 C
ATOM     57   O  NAG B   4      18.080  29.934  22.0610  0.00  0.00     0.000 OA
ATOM     58   C  NAG B   4      17.657  29.533  20.9860  0.00  0.00     0.000 C
ENDBRANCH 49 56
ATOM     59   O  NAG B   4      13.448  30.323  26.3410  0.00  0.00     0.000 O
ATOM     61  HD  NAG B   4      13.478  30.270  25.4770  0.00  0.00     0.000 HD
ATOM     61   O  NAG B   4      13.448  30.323  26.3410  0.00  0.00     0.000 O
ATOM     63  HD  NAG B   4      13.478  30.270  25.4770  0.00  0.00     0.000 HD
ENDBRANCH 47 50
ENDBRANCH 34 47
ENDBRANCH 33 37
ENDBRANCH 17 33
ENDBRANCH 16 19
ENDBRANCH 1 16
TORSDOF 10
ENDMDL
MODEL 89
REMARK VINA RESULT:      -5.0     14.417     20.665
ROOT
ATOM      1  C1  GCU B   1      19.738  36.136  17.0060  0.00  0.00     0.000 C
ATOM      2  C2  GCU B   1      19.640  34.978  16.0260  0.00  0.00     0.000 C
ATOM      3  C3  GCU B   1      20.651  33.897  16.3760  0.00  0.00     0.000 C
ATOM      4  C4  GCU B   1      22.038  34.504  16.5250  0.00  0.00     0.000 C
ATOM      5  C5  GCU B   1      22.017  35.697  17.4820  0.00  0.00     0.000 C
ATOM      6  O5  GCU B   1      21.074  36.666  17.0040  0.00  0.00     0.000 O
ATOM      7   O  GCU B   1      18.312  34.466  16.0930  0.00  0.00     0.000 O
ATOM      9  HD  GCU B   1      17.779  34.340  15.4220  0.00  0.00     0.000 HD
ATOM      9   O  GCU B   1      20.673  32.882  15.3700  0.00  0.00     0.000 O
ATOM     11  HD  GCU B   1      20.140  32.756  14.6990  0.00  0.00     0.000 HD
ATOM     11   O  GCU B   1      22.929  33.504  17.0190  0.00  0.00     0.000 O
ATOM     13  HD  GCU B   1      22.396  33.378  16.3480  0.00  0.00     0.000 HD
ENDROOT
BRANCH 5 13
ATOM     13   C  GCU B   1      23.407  36.269  17.6210  0.00  0.00     0.000 C
ATOM     14   O  GCU B   1      24.254  35.703  18.3420  0.00  0.00     0.000 OA
ATOM     15   O  GCU B   1      23.671  37.299  16.9710  0.00  0.00     0.000 OA
ENDBRANCH 5 13
BRANCH 1 16
ATOM     16  O3  NAG B   2      19.401  37.410  16.7960  0.00  0.00     0.000 O
BRANCH 16 19
ATOM     17  C1  NAG B   2      16.672  39.641  18.1390  0.00  0.00     0.000 C
ATOM     18  C2  NAG B   2      17.281  38.448  17.4140  0.00  0.00     0.000 C
ATOM     19  C3  NAG B   2      18.794  38.420  17.6180  0.00  0.00     0.000 C
ATOM     20  C4  NAG B   2      19.407  39.769  17.2440  0.00  0.00     0.000 C
ATOM     21  C5  NAG B   2      18.726  40.880  18.0300  0.00  0.00     0.000 C
ATOM     22  O5  NAG B   2      17.317  40.861  17.7380  0.00  0.00     0.000 O
ATOM     23   O  NAG B   2      20.810  39.720  17.5240  0.00  0.00     0.000 O
ATOM     25  HD  NAG B   2      20.575  39.764  16.6920  0.00  0.00     0.000 HD
ATOM     25   C  NAG B   2      19.299  42.261  17.7190  0.00  0.00     0.000 C
ATOM     26   O  NAG B   2      18.895  42.723  16.4210  0.00  0.00     0.000 O
ATOM     28  HD  NAG B   2      18.659  42.766  15.5880  0.00  0.00     0.000 HD
BRANCH 18 30
ATOM     28   N  NAG B   2      16.119  37.773  16.8660  0.00  0.00     0.000 N
ATOM     30  HD  NAG B   2      16.437  37.195  17.4260  0.00  0.00     0.000 HD
ATOM     30   C  NAG B   2      15.800  36.501  17.1340  0.00  0.00     0.000 C
ATOM     31   C  NAG B   2      14.588  35.929  16.4520  0.00  0.00     0.000 C
ATOM     32   O  NAG B   2      16.458  35.822  17.8960  0.00  0.00     0.000 OA
ENDBRANCH 18 30
BRANCH 17 33
ATOM     33  O4  GCU B   3      15.254  39.632  17.8800  0.00  0.00     0.000 O
BRANCH 33 37
ATOM     34  C1  GCU B   3      12.064  40.877  20.2480  0.00  0.00     0.000 C
ATOM     35  C2  GCU B   3      12.710  41.912  19.3270  0.00  0.00     0.000 C
ATOM     36  C3  GCU B   3      13.530  41.206  18.2670  0.00  0.00     0.000 C
ATOM     37  C4  GCU B   3      14.535  40.277  18.9320  0.00  0.00     0.000 C
ATOM     38  C5  GCU B   3      13.799  39.279  19.8280  0.00  0.00     0.000 C
ATOM     39  O5  GCU B   3      13.054  40.010  20.8080  0.00  0.00     0.000 O
ATOM     40   O  GCU B   3      11.682  42.695  18.7160  0.00  0.00     0.000 O
ATOM     42  HD  GCU B   3      11.410  42.989  17.9480  0.00  0.00     0.000 HD
ATOM     42   O  GCU B   3      14.212  42.153  17.4240  0.00  0.00     0.000 O
ATOM     44  HD  GCU B   3      13.939  42.446  16.6570  0.00  0.00     0.000 HD
BRANCH 38 44
ATOM     44   C  GCU B   3      14.736  38.339  20.5440  0.00  0.00     0.000 C
ATOM     45   O  GCU B   3      14.702  37.133  20.2540  0.00  0.00     0.000 OA
ATOM     46   O  GCU B   3      15.523  38.784  21.4010  0.00  0.00     0.000 OA
ENDBRANCH 38 44
BRANCH 34 47
ATOM     47  O3  NAG B   4      11.525  41.504  21.2840  0.00  0.00     0.000 O
BRANCH 47 50
ATOM     48  C1  NAG B   4       8.537  41.879  23.4490  0.00  0.00     0.000 C
ATOM     49  C2  NAG B   4       9.340  41.755  22.1580  0.00  0.00     0.000 C
ATOM     50  C3  NAG B   4      10.719  41.170  22.4120  0.00  0.00     0.000 C
ATOM     51  C4  NAG B   4      11.387  41.696  23.6880  0.00  0.00     0.000 C
ATOM     52  C5  NAG B   4      10.549  41.385  24.9170  0.00  0.00     0.000 C
ATOM     53  O5  NAG B   4       9.131  41.592  24.7320  0.00  0.00     0.000 O
BRANCH 49 56
ATOM     54   N  NAG B   4       8.809  40.515  21.5660  0.00  0.00     0.000 N
ATOM     56  HD  NAG B   4       9.101  39.715  21.7220  0.00  0.00     0.000 HD
ATOM     56   C  NAG B   4       7.449  39.067  20.1710  0.00  0.00     0.000 C
ATOM     57   O  NAG B   4       7.489  41.401  19.9410  0.00  0.00     0.000 OA
ATOM     58   C  NAG B   4       7.928  40.435  20.5490  0.00  0.00     0.000 C
ENDBRANCH 49 56
ATOM     59   O  NAG B   4      10.576  41.725  27.3620  0.00  0.00     0.000 O
ATOM     61  HD  NAG B   4      10.329  41.999  26.5790  0.00  0.00     0.000 HD
ATOM     61   O  NAG B   4      10.576  41.725  27.3620  0.00  0.00     0.000 O
ATOM     63  HD  NAG B   4      10.329  41.999  26.5790  0.00  0.00     0.000 HD
ENDBRANCH 47 50
ENDBRANCH 34 47
ENDBRANCH 33 37
ENDBRANCH 17 33
ENDBRANCH 16 19
ENDBRANCH 1 16
TORSDOF 10
ENDMDL
MODEL 90
REMARK VINA RESULT:      -4.9      9.948     16.024
ROOT
ATOM      1  C1  GCU B   1      16.844  39.884  19.6830  0.00  0.00     0.000 C
ATOM      2  C2  GCU B   1      15.638  40.497  20.3780  0.00  0.00     0.000 C
ATOM      3  C3  GCU B   1      15.190  41.757  19.6540  0.00  0.00     0.000 C
ATOM      4  C4  GCU B   1      16.370  42.696  19.4570  0.00  0.00     0.000 C
ATOM      5  C5  GCU B   1      17.550  41.969  18.8080  0.00  0.00     0.000 C
ATOM      6  O5  GCU B   1      17.911  40.844  19.6200  0.00  0.00     0.000 O
ATOM      7   O  GCU B   1      14.599  39.522  20.3820  0.00  0.00     0.000 O
ATOM      9  HD  GCU B   1      14.152  39.255  21.0740  0.00  0.00     0.000 HD
ATOM      9   O  GCU B   1      14.161  42.423  20.3900  0.00  0.00     0.000 O
ATOM     11  HD  GCU B   1      13.714  42.155  21.0820  0.00  0.00     0.000 HD
ATOM     11   O  GCU B   1      15.960  43.785  18.6290  0.00  0.00     0.000 O
ATOM     13  HD  GCU B   1      15.513  43.518  19.3210  0.00  0.00     0.000 HD
ENDROOT
BRANCH 5 13
ATOM     13   C  GCU B   1      18.700  42.927  18.6120  0.00  0.00     0.000 C
ATOM     14   O  GCU B   1      18.736  43.672  17.6110  0.00  0.00     0.000 OA
ATOM     15   O  GCU B   1      19.578  42.958  19.4950  0.00  0.00     0.000 OA
ENDBRANCH 5 13
BRANCH 1 16
ATOM     16  O3  NAG B   2      17.785  39.106  20.2230  0.00  0.00     0.000 O
BRANCH 16 19
ATOM     17  C1  NAG B   2      19.054  35.845  18.8150  0.00  0.00     0.000 C
ATOM     18  C2  NAG B   2      18.027  36.898  19.2150  0.00  0.00     0.000 C
ATOM     19  C3  NAG B   2      18.729  38.174  19.6740  0.00  0.00     0.000 C
ATOM     20  C4  NAG B   2      19.764  37.854  20.7530  0.00  0.00     0.000 C
ATOM     21  C5  NAG B   2      20.733  36.799  20.2410  0.00  0.00     0.000 C
ATOM     22  O5  NAG B   2      19.991  35.620  19.8800  0.00  0.00     0.000 O
ATOM     23   O  NAG B   2      20.448  39.065  21.0950  0.00  0.00     0.000 O
ATOM     25  HD  NAG B   2      19.931  38.720  21.6970  0.00  0.00     0.000 HD
ATOM     25   C  NAG B   2      21.809  36.440  21.2640  0.00  0.00     0.000 C
ATOM     26   O  NAG B   2      21.277  35.649  22.3380  0.00  0.00     0.000 O
ATOM     28  HD  NAG B   2      20.760  35.304  22.9400  0.00  0.00     0.000 HD
BRANCH 18 30
ATOM     28   N  NAG B   2      17.185  36.741  18.0440  0.00  0.00     0.000 N
ATOM     30  HD  NAG B   2      16.617  36.917  18.6740  0.00  0.00     0.000 HD
ATOM     30   C  NAG B   2      15.847  36.746  18.0820  0.00  0.00     0.000 C
ATOM     31   C  NAG B   2      15.112  36.526  16.7900  0.00  0.00     0.000 C
ATOM     32   O  NAG B   2      15.236  36.918  19.1180  0.00  0.00     0.000 OA
ENDBRANCH 18 30
BRANCH 17 33
ATOM     33  O4  GCU B   3      18.332  34.658  18.4280  0.00  0.00     0.000 O
BRANCH 33 37
ATOM     34  C1  GCU B   3      19.367  31.834  15.5500  0.00  0.00     0.000 C
ATOM     35  C2  GCU B   3      19.487  31.427  17.0190  0.00  0.00     0.000 C
ATOM     36  C3  GCU B   3      18.687  32.384  17.8770  0.00  0.00     0.000 C
ATOM     37  C4  GCU B   3      19.139  33.812  17.6070  0.00  0.00     0.000 C
ATOM     38  C5  GCU B   3      18.981  34.129  16.1180  0.00  0.00     0.000 C
ATOM     39  O5  GCU B   3      19.766  33.195  15.3680  0.00  0.00     0.000 O
ATOM     40   O  GCU B   3      18.992  30.094  17.1720  0.00  0.00     0.000 O
ATOM     42  HD  GCU B   3      18.453  29.615  17.6520  0.00  0.00     0.000 HD
ATOM     42   O  GCU B   3      18.835  32.074  19.2740  0.00  0.00     0.000 O
ATOM     44  HD  GCU B   3      18.297  31.595  19.7540  0.00  0.00     0.000 HD
BRANCH 38 44
ATOM     44   C  GCU B   3      19.434  35.524  15.7690  0.00  0.00     0.000 C
ATOM     45   O  GCU B   3      20.648  35.778  15.7970  0.00  0.00     0.000 OA
ATOM     46   O  GCU B   3      18.592  36.387  15.4570  0.00  0.00     0.000 OA
ENDBRANCH 38 44
BRANCH 34 47
ATOM     47  O3  NAG B   4      20.229  31.122  14.8380  0.00  0.00     0.000 O
BRANCH 47 50
ATOM     48  C1  NAG B   4      21.627  28.438  12.6930  0.00  0.00     0.000 C
ATOM     49  C2  NAG B   4      21.245  29.163  13.9790  0.00  0.00     0.000 C
ATOM     50  C3  NAG B   4      20.190  30.229  13.7260  0.00  0.00     0.000 C
ATOM     51  C4  NAG B   4      20.409  31.019  12.4300  0.00  0.00     0.000 C
ATOM     52  C5  NAG B   4      20.401  30.102  11.2180  0.00  0.00     0.000 C
ATOM     53  O5  NAG B   4      21.116  28.862  11.4120  0.00  0.00     0.000 O
BRANCH 49 56
ATOM     54   N  NAG B   4      20.811  28.186  14.9930  0.00  0.00     0.000 N
ATOM     56  HD  NAG B   4      21.232  27.997  15.7250  0.00  0.00     0.000 HD
ATOM     56   C  NAG B   4      19.476  26.459  16.0540  0.00  0.00     0.000 C
ATOM     57   O  NAG B   4      19.156  27.144  13.8340  0.00  0.00     0.000 OA
ATOM     58   C  NAG B   4      19.809  27.294  14.8560  0.00  0.00     0.000 C
ENDBRANCH 49 56
ATOM     59   O  NAG B   4      20.658  30.205   8.7650  0.00  0.00     0.000 O
ATOM     61  HD  NAG B   4      21.019  30.091   9.5440  0.00  0.00     0.000 HD
ATOM     61   O  NAG B   4      20.658  30.205   8.7650  0.00  0.00     0.000 O
ATOM     63  HD  NAG B   4      21.019  30.091   9.5440  0.00  0.00     0.000 HD
ENDBRANCH 47 50
ENDBRANCH 34 47
ENDBRANCH 33 37
ENDBRANCH 17 33
ENDBRANCH 16 19
ENDBRANCH 1 16
TORSDOF 10
ENDMDL
MODEL 91
REMARK VINA RESULT:      -4.9     13.403     16.387
ROOT
ATOM      1  C1  GCU B   1      23.369  39.157  13.9360  0.00  0.00     0.000 C
ATOM      2  C2  GCU B   1      24.264  40.385  13.8720  0.00  0.00     0.000 C
ATOM      3  C3  GCU B   1      24.174  41.039  12.5020  0.00  0.00     0.000 C
ATOM      4  C4  GCU B   1      24.411  40.006  11.4110  0.00  0.00     0.000 C
ATOM      5  C5  GCU B   1      23.507  38.787  11.6010  0.00  0.00     0.000 C
ATOM      6  O5  GCU B   1      23.736  38.230  12.9020  0.00  0.00     0.000 O
ATOM      7   O  GCU B   1      23.837  41.286  14.8900  0.00  0.00     0.000 O
ATOM      9  HD  GCU B   1      24.339  41.648  15.4950  0.00  0.00     0.000 HD
ATOM      9   O  GCU B   1      25.129  42.096  12.3840  0.00  0.00     0.000 O
ATOM     11  HD  GCU B   1      25.632  42.458  12.9890  0.00  0.00     0.000 HD
ATOM     11   O  GCU B   1      24.152  40.608  10.1420  0.00  0.00     0.000 O
ATOM     13  HD  GCU B   1      24.654  40.970  10.7470  0.00  0.00     0.000 HD
ENDROOT
BRANCH 5 13
ATOM     13   C  GCU B   1      23.754  37.787  10.4970  0.00  0.00     0.000 C
ATOM     14   O  GCU B   1      22.823  37.072  10.0730  0.00  0.00     0.000 OA
ATOM     15   O  GCU B   1      24.904  37.731  10.0200  0.00  0.00     0.000 OA
ENDBRANCH 5 13
BRANCH 1 16
ATOM     16  O3  NAG B   2      23.507  38.090  14.7250  0.00  0.00     0.000 O
BRANCH 16 19
ATOM     17  C1  NAG B   2      21.085  36.522  17.1550  0.00  0.00     0.000 C
ATOM     18  C2  NAG B   2      21.911  37.629  16.5120  0.00  0.00     0.000 C
ATOM     19  C3  NAG B   2      22.585  37.117  15.2410  0.00  0.00     0.000 C
ATOM     20  C4  NAG B   2      23.362  35.833  15.5300  0.00  0.00     0.000 C
ATOM     21  C5  NAG B   2      22.437  34.803  16.1630  0.00  0.00     0.000 C
ATOM     22  O5  NAG B   2      21.890  35.352  17.3750  0.00  0.00     0.000 O
ATOM     23   O  NAG B   2      23.909  35.350  14.2980  0.00  0.00     0.000 O
ATOM     25  HD  NAG B   2      24.468  35.645  14.8900  0.00  0.00     0.000 HD
ATOM     25   C  NAG B   2      23.143  33.483  16.4660  0.00  0.00     0.000 C
ATOM     26   O  NAG B   2      24.031  33.602  17.5890  0.00  0.00     0.000 O
ATOM     28  HD  NAG B   2      24.590  33.897  18.1810  0.00  0.00     0.000 HD
BRANCH 18 30
ATOM     28   N  NAG B   2      20.883  38.642  16.6520  0.00  0.00     0.000 N
ATOM     30  HD  NAG B   2      21.617  39.097  16.7080  0.00  0.00     0.000 HD
ATOM     30   C  NAG B   2      21.134  39.925  16.9410  0.00  0.00     0.000 C
ATOM     31   C  NAG B   2      19.957  40.847  17.0980  0.00  0.00     0.000 C
ATOM     32   O  NAG B   2      22.267  40.341  17.0760  0.00  0.00     0.000 OA
ENDBRANCH 18 30
BRANCH 17 33
ATOM     33  O4  GCU B   3      20.507  37.054  18.3630  0.00  0.00     0.000 O
BRANCH 33 37
ATOM     34  C1  GCU B   3      17.420  35.624  20.7620  0.00  0.00     0.000 C
ATOM     35  C2  GCU B   3      18.823  35.067  21.0040  0.00  0.00     0.000 C
ATOM     36  C3  GCU B   3      19.848  35.981  20.3670  0.00  0.00     0.000 C
ATOM     37  C4  GCU B   3      19.519  36.169  18.8930  0.00  0.00     0.000 C
ATOM     38  C5  GCU B   3      18.102  36.730  18.7500  0.00  0.00     0.000 C
ATOM     39  O5  GCU B   3      17.187  35.817  19.3640  0.00  0.00     0.000 O
ATOM     40   O  GCU B   3      19.049  34.977  22.4130  0.00  0.00     0.000 O
ATOM     42  HD  GCU B   3      19.620  35.186  23.0290  0.00  0.00     0.000 HD
ATOM     42   O  GCU B   3      21.177  35.449  20.5130  0.00  0.00     0.000 O
ATOM     44  HD  GCU B   3      21.749  35.658  21.1290  0.00  0.00     0.000 HD
BRANCH 38 44
ATOM     44   C  GCU B   3      17.695  36.920  17.3100  0.00  0.00     0.000 C
ATOM     45   O  GCU B   3      17.243  35.947  16.6880  0.00  0.00     0.000 OA
ATOM     46   O  GCU B   3      17.814  38.040  16.7770  0.00  0.00     0.000 OA
ENDBRANCH 38 44
BRANCH 34 47
ATOM     47  O3  NAG B   4      16.529  34.718  21.1400  0.00  0.00     0.000 O
BRANCH 47 50
ATOM     48  C1  NAG B   4      15.196  31.262  21.3230  0.00  0.00     0.000 C
ATOM     49  C2  NAG B   4      15.646  32.570  20.6810  0.00  0.00     0.000 C
ATOM     50  C3  NAG B   4      16.534  33.373  21.6170  0.00  0.00     0.000 C
ATOM     51  C4  NAG B   4      16.073  33.349  23.0790  0.00  0.00     0.000 C
ATOM     52  C5  NAG B   4      16.038  31.931  23.6230  0.00  0.00     0.000 C
ATOM     53  O5  NAG B   4      15.497  30.959  22.7010  0.00  0.00     0.000 O
BRANCH 49 56
ATOM     54   N  NAG B   4      16.680  31.962  19.8270  0.00  0.00     0.000 N
ATOM     56  HD  NAG B   4      17.331  31.460  20.1000  0.00  0.00     0.000 HD
ATOM     56   C  NAG B   4      17.947  31.434  17.8250  0.00  0.00     0.000 C
ATOM     57   O  NAG B   4      16.294  33.095  17.8950  0.00  0.00     0.000 OA
ATOM     58   C  NAG B   4      16.901  32.244  18.5270  0.00  0.00     0.000 C
ENDBRANCH 49 56
ATOM     59   O  NAG B   4      15.477  30.711  25.6940  0.00  0.00     0.000 O
ATOM     61  HD  NAG B   4      15.228  31.014  24.9230  0.00  0.00     0.000 HD
ATOM     61   O  NAG B   4      15.477  30.711  25.6940  0.00  0.00     0.000 O
ATOM     63  HD  NAG B   4      15.228  31.014  24.9230  0.00  0.00     0.000 HD
ENDBRANCH 47 50
ENDBRANCH 34 47
ENDBRANCH 33 37
ENDBRANCH 17 33
ENDBRANCH 16 19
ENDBRANCH 1 16
TORSDOF 10
ENDMDL
MODEL 92
REMARK VINA RESULT:      -4.9     22.314     25.586
ROOT
ATOM      1  C1  GCU B   1      15.040  24.778  36.4090  0.00  0.00     0.000 C
ATOM      2  C2  GCU B   1      15.827  25.900  37.0690  0.00  0.00     0.000 C
ATOM      3  C3  GCU B   1      15.016  27.186  37.0740  0.00  0.00     0.000 C
ATOM      4  C4  GCU B   1      14.503  27.490  35.6750  0.00  0.00     0.000 C
ATOM      5  C5  GCU B   1      13.782  26.280  35.0790  0.00  0.00     0.000 C
ATOM      6  O5  GCU B   1      14.674  25.157  35.0730  0.00  0.00     0.000 O
ATOM      7   O  GCU B   1      16.132  25.490  38.3980  0.00  0.00     0.000 O
ATOM      9  HD  GCU B   1      16.917  25.488  38.7640  0.00  0.00     0.000 HD
ATOM      9   O  GCU B   1      15.807  28.279  37.5470  0.00  0.00     0.000 O
ATOM     11  HD  GCU B   1      16.592  28.277  37.9130  0.00  0.00     0.000 HD
ATOM     11   O  GCU B   1      13.608  28.601  35.7420  0.00  0.00     0.000 O
ATOM     13  HD  GCU B   1      14.393  28.598  36.1080  0.00  0.00     0.000 HD
ENDROOT
BRANCH 5 13
ATOM     13   C  GCU B   1      13.272  26.615  33.6980  0.00  0.00     0.000 C
ATOM     14   O  GCU B   1      12.081  26.948  33.5280  0.00  0.00     0.000 OA
ATOM     15   O  GCU B   1      14.089  26.571  32.7580  0.00  0.00     0.000 OA
ENDBRANCH 5 13
BRANCH 1 16
ATOM     16  O3  NAG B   2      15.525  23.693  35.8000  0.00  0.00     0.000 O
BRANCH 16 19
ATOM     17  C1  NAG B   2      14.197  20.188  36.2190  0.00  0.00     0.000 C
ATOM     18  C2  NAG B   2      14.627  21.586  36.6420  0.00  0.00     0.000 C
ATOM     19  C3  NAG B   2      14.947  22.437  35.4140  0.00  0.00     0.000 C
ATOM     20  C4  NAG B   2      15.944  21.712  34.5100  0.00  0.00     0.000 C
ATOM     21  C5  NAG B   2      15.407  20.334  34.1510  0.00  0.00     0.000 C
ATOM     22  O5  NAG B   2      15.184  19.591  35.3620  0.00  0.00     0.000 O
ATOM     23   O  NAG B   2      16.153  22.509  33.3390  0.00  0.00     0.000 O
ATOM     25  HD  NAG B   2      16.818  22.431  33.8870  0.00  0.00     0.000 HD
ATOM     25   C  NAG B   2      16.348  19.556  33.2330  0.00  0.00     0.000 C
ATOM     26   O  NAG B   2      17.509  19.088  33.9360  0.00  0.00     0.000 O
ATOM     28  HD  NAG B   2      18.175  19.010  34.4840  0.00  0.00     0.000 HD
BRANCH 18 30
ATOM     28   N  NAG B   2      13.543  21.826  37.5770  0.00  0.00     0.000 N
ATOM     30  HD  NAG B   2      14.222  22.203  37.9600  0.00  0.00     0.000 HD
ATOM     30   C  NAG B   2      13.707  22.384  38.7820  0.00  0.00     0.000 C
ATOM     31   C  NAG B   2      12.493  22.525  39.6560  0.00  0.00     0.000 C
ATOM     32   O  NAG B   2      14.794  22.765  39.1700  0.00  0.00     0.000 OA
ENDBRANCH 18 30
BRANCH 17 33
ATOM     33  O4  GCU B   3      13.946  19.427  37.4180  0.00  0.00     0.000 O
BRANCH 33 37
ATOM     34  C1  GCU B   3      11.661  15.999  38.0180  0.00  0.00     0.000 C
ATOM     35  C2  GCU B   3      13.128  15.815  37.6290  0.00  0.00     0.000 C
ATOM     36  C3  GCU B   3      13.883  17.105  37.8710  0.00  0.00     0.000 C
ATOM     37  C4  GCU B   3      13.198  18.245  37.1290  0.00  0.00     0.000 C
ATOM     38  C5  GCU B   3      11.742  18.354  37.5840  0.00  0.00     0.000 C
ATOM     39  O5  GCU B   3      11.088  17.108  37.3210  0.00  0.00     0.000 O
ATOM     40   O  GCU B   3      13.688  14.761  38.4140  0.00  0.00     0.000 O
ATOM     42  HD  GCU B   3      14.366  14.567  38.9170  0.00  0.00     0.000 HD
ATOM     42   O  GCU B   3      15.253  16.991  37.4460  0.00  0.00     0.000 O
ATOM     44  HD  GCU B   3      15.931  16.797  37.9490  0.00  0.00     0.000 HD
BRANCH 38 44
ATOM     44   C  GCU B   3      10.990  19.449  36.8720  0.00  0.00     0.000 C
ATOM     45   O  GCU B   3      10.831  20.535  37.4510  0.00  0.00     0.000 OA
ATOM     46   O  GCU B   3      10.548  19.250  35.7240  0.00  0.00     0.000 OA
ENDBRANCH 38 44
BRANCH 34 47
ATOM     47  O3  NAG B   4      10.975  14.941  37.6120  0.00  0.00     0.000 O
BRANCH 47 50
ATOM     48  C1  NAG B   4       8.205  14.155  39.9490  0.00  0.00     0.000 C
ATOM     49  C2  NAG B   4       9.068  14.994  39.0130  0.00  0.00     0.000 C
ATOM     50  C3  NAG B   4       9.917  14.120  38.1040  0.00  0.00     0.000 C
ATOM     51  C4  NAG B   4      10.509  12.892  38.8050  0.00  0.00     0.000 C
ATOM     52  C5  NAG B   4       9.416  11.999  39.3690  0.00  0.00     0.000 C
ATOM     53  O5  NAG B   4       8.337  12.719  40.0070  0.00  0.00     0.000 O
BRANCH 49 56
ATOM     54   N  NAG B   4       8.078  15.343  37.9790  0.00  0.00     0.000 N
ATOM     56  HD  NAG B   4       7.807  14.823  37.3420  0.00  0.00     0.000 HD
ATOM     56   C  NAG B   4       6.513  16.684  36.6960  0.00  0.00     0.000 C
ATOM     57   O  NAG B   4       7.946  17.587  38.3190  0.00  0.00     0.000 OA
ATOM     58   C  NAG B   4       7.586  16.574  37.7360  0.00  0.00     0.000 C
ENDBRANCH 49 56
ATOM     59   O  NAG B   4       9.154   9.898  40.6390  0.00  0.00     0.000 O
ATOM     61  HD  NAG B   4       9.220  10.762  40.6400  0.00  0.00     0.000 HD
ATOM     61   O  NAG B   4       9.154   9.898  40.6390  0.00  0.00     0.000 O
ATOM     63  HD  NAG B   4       9.220  10.762  40.6400  0.00  0.00     0.000 HD
ENDBRANCH 47 50
ENDBRANCH 34 47
ENDBRANCH 33 37
ENDBRANCH 17 33
ENDBRANCH 16 19
ENDBRANCH 1 16
TORSDOF 10
ENDMDL
MODEL 93
REMARK VINA RESULT:      -4.9     18.890     23.067
ROOT
ATOM      1  C1  GCU B   1      26.665  40.112   8.4990  0.00  0.00     0.000 C
ATOM      2  C2  GCU B   1      27.994  39.841   7.8120  0.00  0.00     0.000 C
ATOM      3  C3  GCU B   1      27.770  39.409   6.3710  0.00  0.00     0.000 C
ATOM      4  C4  GCU B   1      26.767  38.267   6.3160  0.00  0.00     0.000 C
ATOM      5  C5  GCU B   1      25.492  38.616   7.0860  0.00  0.00     0.000 C
ATOM      6  O5  GCU B   1      25.836  38.940   8.4400  0.00  0.00     0.000 O
ATOM      7   O  GCU B   1      28.761  41.040   7.8650  0.00  0.00     0.000 O
ATOM      9  HD  GCU B   1      29.572  41.115   8.1590  0.00  0.00     0.000 HD
ATOM      9   O  GCU B   1      29.001  39.001   5.7700  0.00  0.00     0.000 O
ATOM     11  HD  GCU B   1      29.812  39.075   6.0640  0.00  0.00     0.000 HD
ATOM     11   O  GCU B   1      26.447  37.999   4.9500  0.00  0.00     0.000 O
ATOM     13  HD  GCU B   1      27.259  38.074   5.2440  0.00  0.00     0.000 HD
ENDROOT
BRANCH 5 13
ATOM     13   C  GCU B   1      24.511  37.472   7.0020  0.00  0.00     0.000 C
ATOM     14   O  GCU B   1      23.300  37.660   7.2410  0.00  0.00     0.000 OA
ATOM     15   O  GCU B   1      24.955  36.359   6.6610  0.00  0.00     0.000 OA
ENDBRANCH 5 13
BRANCH 1 16
ATOM     16  O3  NAG B   2      26.395  40.046   9.8050  0.00  0.00     0.000 O
BRANCH 16 19
ATOM     17  C1  NAG B   2      23.555  41.445  11.8550  0.00  0.00     0.000 C
ATOM     18  C2  NAG B   2      24.736  41.466  10.8930  0.00  0.00     0.000 C
ATOM     19  C3  NAG B   2      25.175  40.041  10.5620  0.00  0.00     0.000 C
ATOM     20  C4  NAG B   2      25.416  39.246  11.8450  0.00  0.00     0.000 C
ATOM     21  C5  NAG B   2      24.172  39.293  12.7210  0.00  0.00     0.000 C
ATOM     22  O5  NAG B   2      23.865  40.666  13.0210  0.00  0.00     0.000 O
ATOM     23   O  NAG B   2      25.748  37.900  11.4870  0.00  0.00     0.000 O
ATOM     25  HD  NAG B   2      26.375  38.380  11.8430  0.00  0.00     0.000 HD
ATOM     25   C  NAG B   2      24.334  38.504  14.0190  0.00  0.00     0.000 C
ATOM     26   O  NAG B   2      25.198  39.179  14.9460  0.00  0.00     0.000 O
ATOM     28  HD  NAG B   2      25.825  39.659  15.3010  0.00  0.00     0.000 HD
BRANCH 18 30
ATOM     28   N  NAG B   2      24.893  42.885  10.6340  0.00  0.00     0.000 N
ATOM     30  HD  NAG B   2      24.704  42.561   9.8530  0.00  0.00     0.000 HD
ATOM     30   C  NAG B   2      24.870  43.426   9.4100  0.00  0.00     0.000 C
ATOM     31   C  NAG B   2      25.093  44.909   9.3000  0.00  0.00     0.000 C
ATOM     32   O  NAG B   2      24.681  42.755   8.4150  0.00  0.00     0.000 OA
ENDBRANCH 18 30
BRANCH 17 33
ATOM     33  O4  GCU B   3      23.213  42.813  12.1550  0.00  0.00     0.000 O
BRANCH 33 37
ATOM     34  C1  GCU B   3      19.518  44.644  12.7230  0.00  0.00     0.000 C
ATOM     35  C2  GCU B   3      20.096  43.835  13.8860  0.00  0.00     0.000 C
ATOM     36  C3  GCU B   3      21.577  43.617  13.6640  0.00  0.00     0.000 C
ATOM     37  C4  GCU B   3      21.801  42.968  12.3060  0.00  0.00     0.000 C
ATOM     38  C5  GCU B   3      21.194  43.846  11.2100  0.00  0.00     0.000 C
ATOM     39  O5  GCU B   3      19.797  44.005  11.4740  0.00  0.00     0.000 O
ATOM     40   O  GCU B   3      19.878  44.553  15.1020  0.00  0.00     0.000 O
ATOM     42  HD  GCU B   3      20.284  44.833  15.8140  0.00  0.00     0.000 HD
ATOM     42   O  GCU B   3      22.141  42.797  14.7030  0.00  0.00     0.000 O
ATOM     44  HD  GCU B   3      22.547  43.077  15.4150  0.00  0.00     0.000 HD
BRANCH 38 44
ATOM     44   C  GCU B   3      21.356  43.253   9.8330  0.00  0.00     0.000 C
ATOM     45   O  GCU B   3      21.509  44.020   8.8700  0.00  0.00     0.000 OA
ATOM     46   O  GCU B   3      21.337  42.016   9.6870  0.00  0.00     0.000 OA
ENDBRANCH 38 44
BRANCH 34 47
ATOM     47  O3  NAG B   4      18.196  44.650  12.8230  0.00  0.00     0.000 O
BRANCH 47 50
ATOM     48  C1  NAG B   4      16.348  47.768  12.0340  0.00  0.00     0.000 C
ATOM     49  C2  NAG B   4      17.543  46.829  12.1670  0.00  0.00     0.000 C
ATOM     50  C3  NAG B   4      17.103  45.377  12.2650  0.00  0.00     0.000 C
ATOM     51  C4  NAG B   4      15.856  45.167  13.1330  0.00  0.00     0.000 C
ATOM     52  C5  NAG B   4      14.669  45.945  12.5890  0.00  0.00     0.000 C
ATOM     53  O5  NAG B   4      14.995  47.280  12.1410  0.00  0.00     0.000 O
BRANCH 49 56
ATOM     54   N  NAG B   4      17.951  46.783  10.7520  0.00  0.00     0.000 N
ATOM     56  HD  NAG B   4      17.520  46.387  10.1140  0.00  0.00     0.000 HD
ATOM     56   C  NAG B   4      19.310  47.125   8.7710  0.00  0.00     0.000 C
ATOM     57   O  NAG B   4      20.077  47.565  10.9430  0.00  0.00     0.000 OA
ATOM     58   C  NAG B   4      19.145  47.169  10.2590  0.00  0.00     0.000 C
ENDBRANCH 49 56
ATOM     59   O  NAG B   4      12.295  46.383  13.1060  0.00  0.00     0.000 O
ATOM     61  HD  NAG B   4      13.126  46.619  13.1800  0.00  0.00     0.000 HD
ATOM     61   O  NAG B   4      12.295  46.383  13.1060  0.00  0.00     0.000 O
ATOM     63  HD  NAG B   4      13.126  46.619  13.1800  0.00  0.00     0.000 HD
ENDBRANCH 47 50
ENDBRANCH 34 47
ENDBRANCH 33 37
ENDBRANCH 17 33
ENDBRANCH 16 19
ENDBRANCH 1 16
TORSDOF 10
ENDMDL
MODEL 94
REMARK VINA RESULT:      -4.9     16.608     24.455
ROOT
ATOM      1  C1  GCU B   1      22.649  38.727  14.9250  0.00  0.00     0.000 C
ATOM      2  C2  GCU B   1      23.566  37.681  15.5390  0.00  0.00     0.000 C
ATOM      3  C3  GCU B   1      22.928  36.302  15.4610  0.00  0.00     0.000 C
ATOM      4  C4  GCU B   1      21.518  36.343  16.0300  0.00  0.00     0.000 C
ATOM      5  C5  GCU B   1      20.699  37.465  15.3900  0.00  0.00     0.000 C
ATOM      6  O5  GCU B   1      21.376  38.713  15.5910  0.00  0.00     0.000 O
ATOM      7   O  GCU B   1      24.796  37.709  14.8230  0.00  0.00     0.000 O
ATOM      9  HD  GCU B   1      25.587  37.786  15.1680  0.00  0.00     0.000 HD
ATOM      9   O  GCU B   1      23.711  35.343  16.1770  0.00  0.00     0.000 O
ATOM     11  HD  GCU B   1      24.501  35.421  16.5220  0.00  0.00     0.000 HD
ATOM     11   O  GCU B   1      20.886  35.085  15.7870  0.00  0.00     0.000 O
ATOM     13  HD  GCU B   1      21.677  35.163  16.1320  0.00  0.00     0.000 HD
ENDROOT
BRANCH 5 13
ATOM     13   C  GCU B   1      19.302  37.473  15.9630  0.00  0.00     0.000 C
ATOM     14   O  GCU B   1      18.386  36.839  15.4000  0.00  0.00     0.000 OA
ATOM     15   O  GCU B   1      19.118  38.106  17.0200  0.00  0.00     0.000 OA
ENDBRANCH 5 13
BRANCH 1 16
ATOM     16  O3  NAG B   2      22.603  40.032  15.2010  0.00  0.00     0.000 O
BRANCH 16 19
ATOM     17  C1  NAG B   2      22.599  42.885  12.7330  0.00  0.00     0.000 C
ATOM     18  C2  NAG B   2      23.040  41.565  13.3530  0.00  0.00     0.000 C
ATOM     19  C3  NAG B   2      22.099  41.174  14.4910  0.00  0.00     0.000 C
ATOM     20  C4  NAG B   2      21.957  42.326  15.4850  0.00  0.00     0.000 C
ATOM     21  C5  NAG B   2      21.510  43.585  14.7550  0.00  0.00     0.000 C
ATOM     22  O5  NAG B   2      22.478  43.903  13.7390  0.00  0.00     0.000 O
ATOM     23   O  NAG B   2      21.009  41.944  16.4880  0.00  0.00     0.000 O
ATOM     25  HD  NAG B   2      21.835  42.027  16.7360  0.00  0.00     0.000 HD
ATOM     25   C  NAG B   2      21.331  44.778  15.6910  0.00  0.00     0.000 C
ATOM     26   O  NAG B   2      22.594  45.300  16.1330  0.00  0.00     0.000 O
ATOM     28  HD  NAG B   2      23.420  45.383  16.3810  0.00  0.00     0.000 HD
BRANCH 18 30
ATOM     28   N  NAG B   2      23.213  40.841  12.1080  0.00  0.00     0.000 N
ATOM     30  HD  NAG B   2      23.857  40.540  12.6030  0.00  0.00     0.000 HD
ATOM     30   C  NAG B   2      24.248  40.032  11.8530  0.00  0.00     0.000 C
ATOM     31   C  NAG B   2      24.311  39.387  10.4970  0.00  0.00     0.000 C
ATOM     32   O  NAG B   2      25.114  39.820  12.6780  0.00  0.00     0.000 OA
ENDBRANCH 18 30
BRANCH 17 33
ATOM     33  O4  GCU B   3      23.543  43.216  11.6950  0.00  0.00     0.000 O
BRANCH 33 37
ATOM     34  C1  GCU B   3      23.130  45.675   8.3620  0.00  0.00     0.000 C
ATOM     35  C2  GCU B   3      23.659  46.308   9.6490  0.00  0.00     0.000 C
ATOM     36  C3  GCU B   3      24.138  45.221  10.5880  0.00  0.00     0.000 C
ATOM     37  C4  GCU B   3      23.018  44.218  10.8230  0.00  0.00     0.000 C
ATOM     38  C5  GCU B   3      22.557  43.638   9.4850  0.00  0.00     0.000 C
ATOM     39  O5  GCU B   3      22.111  44.714   8.6520  0.00  0.00     0.000 O
ATOM     40   O  GCU B   3      24.735  47.190   9.3240  0.00  0.00     0.000 O
ATOM     42  HD  GCU B   3      25.551  47.385   9.5420  0.00  0.00     0.000 HD
ATOM     42   O  GCU B   3      24.576  45.776  11.8420  0.00  0.00     0.000 O
ATOM     44  HD  GCU B   3      25.391  45.971  12.0600  0.00  0.00     0.000 HD
BRANCH 38 44
ATOM     44   C  GCU B   3      21.427  42.651   9.6360  0.00  0.00     0.000 C
ATOM     45   O  GCU B   3      21.689  41.439   9.6070  0.00  0.00     0.000 OA
ATOM     46   O  GCU B   3      20.262  43.065   9.7900  0.00  0.00     0.000 OA
ENDBRANCH 38 44
BRANCH 34 47
ATOM     47  O3  NAG B   4      22.529  46.612   7.6410  0.00  0.00     0.000 O
BRANCH 47 50
ATOM     48  C1  NAG B   4      22.415  48.767   4.6250  0.00  0.00     0.000 C
ATOM     49  C2  NAG B   4      22.985  48.143   5.8950  0.00  0.00     0.000 C
ATOM     50  C3  NAG B   4      22.252  46.864   6.2650  0.00  0.00     0.000 C
ATOM     51  C4  NAG B   4      20.735  46.939   6.0560  0.00  0.00     0.000 C
ATOM     52  C5  NAG B   4      20.392  47.232   4.6050  0.00  0.00     0.000 C
ATOM     53  O5  NAG B   4      21.235  48.232   3.9900  0.00  0.00     0.000 O
BRANCH 49 56
ATOM     54   N  NAG B   4      24.176  47.575   5.2390  0.00  0.00     0.000 N
ATOM     56  HD  NAG B   4      24.174  47.072   4.5340  0.00  0.00     0.000 HD
ATOM     56   C  NAG B   4      26.509  47.027   4.8520  0.00  0.00     0.000 C
ATOM     57   O  NAG B   4      25.734  48.010   6.8360  0.00  0.00     0.000 OA
ATOM     58   C  NAG B   4      25.430  47.576   5.7340  0.00  0.00     0.000 C
ENDBRANCH 49 56
ATOM     59   O  NAG B   4      18.423  47.582   3.1580  0.00  0.00     0.000 O
ATOM     61  HD  NAG B   4      19.043  47.919   3.6600  0.00  0.00     0.000 HD
ATOM     61   O  NAG B   4      18.423  47.582   3.1580  0.00  0.00     0.000 O
ATOM     63  HD  NAG B   4      19.043  47.919   3.6600  0.00  0.00     0.000 HD
ENDBRANCH 47 50
ENDBRANCH 34 47
ENDBRANCH 33 37
ENDBRANCH 17 33
ENDBRANCH 16 19
ENDBRANCH 1 16
TORSDOF 10
ENDMDL
MODEL 95
REMARK VINA RESULT:      -4.9     25.456     28.676
ROOT
ATOM      1  C1  GCU B   1      14.573  14.904  38.2040  0.00  0.00     0.000 C
ATOM      2  C2  GCU B   1      16.039  15.311  38.2320  0.00  0.00     0.000 C
ATOM      3  C3  GCU B   1      16.884  14.310  37.4600  0.00  0.00     0.000 C
ATOM      4  C4  GCU B   1      16.595  12.896  37.9410  0.00  0.00     0.000 C
ATOM      5  C5  GCU B   1      15.092  12.609  37.9320  0.00  0.00     0.000 C
ATOM      6  O5  GCU B   1      14.423  13.582  38.7450  0.00  0.00     0.000 O
ATOM      7   O  GCU B   1      16.138  16.608  37.6530  0.00  0.00     0.000 O
ATOM      9  HD  GCU B   1      16.524  17.298  38.0080  0.00  0.00     0.000 HD
ATOM      9   O  GCU B   1      18.275  14.599  37.6150  0.00  0.00     0.000 O
ATOM     11  HD  GCU B   1      18.661  15.288  37.9700  0.00  0.00     0.000 HD
ATOM     11   O  GCU B   1      17.269  11.971  37.0870  0.00  0.00     0.000 O
ATOM     13  HD  GCU B   1      17.655  12.661  37.4410  0.00  0.00     0.000 HD
ENDROOT
BRANCH 5 13
ATOM     13   C  GCU B   1      14.837  11.196  38.4000  0.00  0.00     0.000 C
ATOM     14   O  GCU B   1      15.771  10.502  38.8520  0.00  0.00     0.000 OA
ATOM     15   O  GCU B   1      13.665  10.775  38.3410  0.00  0.00     0.000 OA
ENDBRANCH 5 13
BRANCH 1 16
ATOM     16  O3  NAG B   2      13.628  15.207  39.0960  0.00  0.00     0.000 O
BRANCH 16 19
ATOM     17  C1  NAG B   2      10.593  17.441  38.9360  0.00  0.00     0.000 C
ATOM     18  C2  NAG B   2      12.068  17.069  38.8610  0.00  0.00     0.000 C
ATOM     19  C3  NAG B   2      12.239  15.556  38.9820  0.00  0.00     0.000 C
ATOM     20  C4  NAG B   2      11.515  15.036  40.2240  0.00  0.00     0.000 C
ATOM     21  C5  NAG B   2      10.055  15.463  40.1870  0.00  0.00     0.000 C
ATOM     22  O5  NAG B   2       9.992  16.899  40.1240  0.00  0.00     0.000 O
ATOM     23   O  NAG B   2      11.637  13.609  40.2530  0.00  0.00     0.000 O
ATOM     25  HD  NAG B   2      12.058  14.054  40.8660  0.00  0.00     0.000 HD
ATOM     25   C  NAG B   2       9.263  14.964  41.3930  0.00  0.00     0.000 C
ATOM     26   O  NAG B   2       9.603  15.686  42.5870  0.00  0.00     0.000 O
ATOM     28  HD  NAG B   2      10.023  16.131  43.2000  0.00  0.00     0.000 HD
BRANCH 18 30
ATOM     28   N  NAG B   2      12.432  17.801  37.6630  0.00  0.00     0.000 N
ATOM     30  HD  NAG B   2      13.093  17.958  38.1990  0.00  0.00     0.000 HD
ATOM     30   C  NAG B   2      13.494  18.611  37.5770  0.00  0.00     0.000 C
ATOM     31   C  NAG B   2      13.714  19.336  36.2790  0.00  0.00     0.000 C
ATOM     32   O  NAG B   2      14.259  18.766  38.5080  0.00  0.00     0.000 OA
ENDBRANCH 18 30
BRANCH 17 33
ATOM     33  O4  GCU B   3      10.501  18.878  38.8530  0.00  0.00     0.000 O
BRANCH 33 37
ATOM     34  C1  GCU B   3       7.306  21.336  37.8120  0.00  0.00     0.000 C
ATOM     35  C2  GCU B   3       7.425  20.907  39.2750  0.00  0.00     0.000 C
ATOM     36  C3  GCU B   3       8.826  20.400  39.5430  0.00  0.00     0.000 C
ATOM     37  C4  GCU B   3       9.166  19.291  38.5580  0.00  0.00     0.000 C
ATOM     38  C5  GCU B   3       9.022  19.811  37.1270  0.00  0.00     0.000 C
ATOM     39  O5  GCU B   3       7.678  20.265  36.9400  0.00  0.00     0.000 O
ATOM     40   O  GCU B   3       7.137  22.030  40.1120  0.00  0.00     0.000 O
ATOM     42  HD  GCU B   3       7.442  22.475  40.7880  0.00  0.00     0.000 HD
ATOM     42   O  GCU B   3       8.954  19.920  40.8940  0.00  0.00     0.000 O
ATOM     44  HD  GCU B   3       9.259  20.366  41.5700  0.00  0.00     0.000 HD
BRANCH 38 44
ATOM     44   C  GCU B   3       9.319  18.756  36.0920  0.00  0.00     0.000 C
ATOM     45   O  GCU B   3      10.440  18.744  35.5610  0.00  0.00     0.000 OA
ATOM     46   O  GCU B   3       8.445  17.920  35.7920  0.00  0.00     0.000 OA
ENDBRANCH 38 44
BRANCH 34 47
ATOM     47  O3  NAG B   4       6.032  21.579  37.5410  0.00  0.00     0.000 O
BRANCH 47 50
ATOM     48  C1  NAG B   4       2.897  22.235  35.6700  0.00  0.00     0.000 C
ATOM     49  C2  NAG B   4       4.163  22.550  36.4600  0.00  0.00     0.000 C
ATOM     50  C3  NAG B   4       5.132  21.379  36.4520  0.00  0.00     0.000 C
ATOM     51  C4  NAG B   4       4.450  20.013  36.6000  0.00  0.00     0.000 C
ATOM     52  C5  NAG B   4       3.461  19.767  35.4730  0.00  0.00     0.000 C
ATOM     53  O5  NAG B   4       2.657  20.918  35.1320  0.00  0.00     0.000 O
BRANCH 49 56
ATOM     54   N  NAG B   4       4.919  23.345  35.4770  0.00  0.00     0.000 N
ATOM     56  HD  NAG B   4       5.394  23.026  34.8260  0.00  0.00     0.000 HD
ATOM     56   C  NAG B   4       5.869  25.291  34.3810  0.00  0.00     0.000 C
ATOM     57   O  NAG B   4       4.816  25.385  36.4740  0.00  0.00     0.000 OA
ATOM     58   C  NAG B   4       5.158  24.670  35.5430  0.00  0.00     0.000 C
ENDBRANCH 49 56
ATOM     59   O  NAG B   4       1.859  18.054  34.7020  0.00  0.00     0.000 O
ATOM     61  HD  NAG B   4       2.011  18.775  35.1580  0.00  0.00     0.000 HD
ATOM     61   O  NAG B   4       1.859  18.054  34.7020  0.00  0.00     0.000 O
ATOM     63  HD  NAG B   4       2.011  18.775  35.1580  0.00  0.00     0.000 HD
ENDBRANCH 47 50
ENDBRANCH 34 47
ENDBRANCH 33 37
ENDBRANCH 17 33
ENDBRANCH 16 19
ENDBRANCH 1 16
TORSDOF 10
ENDMDL
MODEL 96
REMARK VINA RESULT:      -4.9     19.754     23.855
ROOT
ATOM      1  C1  GCU B   1      18.902  47.997   6.8160  0.00  0.00     0.000 C
ATOM      2  C2  GCU B   1      18.739  49.423   6.3110  0.00  0.00     0.000 C
ATOM      3  C3  GCU B   1      18.081  49.430   4.9400  0.00  0.00     0.000 C
ATOM      4  C4  GCU B   1      18.818  48.489   3.9990  0.00  0.00     0.000 C
ATOM      5  C5  GCU B   1      18.982  47.103   4.6240  0.00  0.00     0.000 C
ATOM      6  O5  GCU B   1      19.671  47.231   5.8750  0.00  0.00     0.000 O
ATOM      7   O  GCU B   1      17.942  50.128   7.2570  0.00  0.00     0.000 O
ATOM      9  HD  GCU B   1      18.141  50.883   7.6310  0.00  0.00     0.000 HD
ATOM      9   O  GCU B   1      18.070  50.751   4.3930  0.00  0.00     0.000 O
ATOM     11  HD  GCU B   1      18.269  51.506   4.7670  0.00  0.00     0.000 HD
ATOM     11   O  GCU B   1      18.081  48.386   2.7800  0.00  0.00     0.000 O
ATOM     13  HD  GCU B   1      18.280  49.141   3.1540  0.00  0.00     0.000 HD
ENDROOT
BRANCH 5 13
ATOM     13   C  GCU B   1      19.703  46.188   3.6630  0.00  0.00     0.000 C
ATOM     14   O  GCU B   1      20.591  46.638   2.9100  0.00  0.00     0.000 OA
ATOM     15   O  GCU B   1      19.395  44.981   3.6790  0.00  0.00     0.000 OA
ENDBRANCH 5 13
BRANCH 1 16
ATOM     16  O3  NAG B   2      19.804  47.541   7.6870  0.00  0.00     0.000 O
BRANCH 16 19
ATOM     17  C1  NAG B   2      19.628  45.483  10.8430  0.00  0.00     0.000 C
ATOM     18  C2  NAG B   2      19.372  46.671   9.9250  0.00  0.00     0.000 C
ATOM     19  C3  NAG B   2      19.873  46.369   8.5140  0.00  0.00     0.000 C
ATOM     20  C4  NAG B   2      21.327  45.900   8.5550  0.00  0.00     0.000 C
ATOM     21  C5  NAG B   2      21.460  44.711   9.4960  0.00  0.00     0.000 C
ATOM     22  O5  NAG B   2      21.013  45.103  10.8060  0.00  0.00     0.000 O
ATOM     23   O  NAG B   2      21.727  45.556   7.2240  0.00  0.00     0.000 O
ATOM     25  HD  NAG B   2      22.097  46.253   7.5790  0.00  0.00     0.000 HD
ATOM     25   C  NAG B   2      22.888  44.177   9.5740  0.00  0.00     0.000 C
ATOM     26   O  NAG B   2      23.743  45.057  10.3200  0.00  0.00     0.000 O
ATOM     28  HD  NAG B   2      24.113  45.755  10.6750  0.00  0.00     0.000 HD
BRANCH 18 30
ATOM     28   N  NAG B   2      18.058  46.898  10.4960  0.00  0.00     0.000 N
ATOM     30  HD  NAG B   2      18.254  47.664  10.1430  0.00  0.00     0.000 HD
ATOM     30   C  NAG B   2      17.456  48.093  10.5310  0.00  0.00     0.000 C
ATOM     31   C  NAG B   2      16.111  48.177  11.1970  0.00  0.00     0.000 C
ATOM     32   O  NAG B   2      17.968  49.083  10.0490  0.00  0.00     0.000 OA
ENDBRANCH 18 30
BRANCH 17 33
ATOM     33  O4  GCU B   3      19.168  45.842  12.1610  0.00  0.00     0.000 O
BRANCH 33 37
ATOM     34  C1  GCU B   3      17.916  43.463  15.3390  0.00  0.00     0.000 C
ATOM     35  C2  GCU B   3      19.412  43.756  15.2190  0.00  0.00     0.000 C
ATOM     36  C3  GCU B   3      19.623  44.942  14.3020  0.00  0.00     0.000 C
ATOM     37  C4  GCU B   3      18.949  44.681  12.9630  0.00  0.00     0.000 C
ATOM     38  C5  GCU B   3      17.461  44.401  13.1830  0.00  0.00     0.000 C
ATOM     39  O5  GCU B   3      17.333  43.268  14.0480  0.00  0.00     0.000 O
ATOM     40   O  GCU B   3      19.935  44.036  16.5190  0.00  0.00     0.000 O
ATOM     42  HD  GCU B   3      20.416  44.610  16.9540  0.00  0.00     0.000 HD
ATOM     42   O  GCU B   3      21.025  45.203  14.1080  0.00  0.00     0.000 O
ATOM     44  HD  GCU B   3      21.506  45.776  14.5430  0.00  0.00     0.000 HD
BRANCH 38 44
ATOM     44   C  GCU B   3      16.728  44.106  11.8980  0.00  0.00     0.000 C
ATOM     45   O  GCU B   3      17.082  43.127  11.2240  0.00  0.00     0.000 OA
ATOM     46   O  GCU B   3      15.789  44.842  11.5390  0.00  0.00     0.000 OA
ENDBRANCH 38 44
BRANCH 34 47
ATOM     47  O3  NAG B   4      17.757  42.308  15.9700  0.00  0.00     0.000 O
BRANCH 47 50
ATOM     48  C1  NAG B   4      15.451  39.666  17.1790  0.00  0.00     0.000 C
ATOM     49  C2  NAG B   4      16.709  40.270  16.5640  0.00  0.00     0.000 C
ATOM     50  C3  NAG B   4      16.851  41.742  16.9160  0.00  0.00     0.000 C
ATOM     51  C4  NAG B   4      15.527  42.515  16.8790  0.00  0.00     0.000 C
ATOM     52  C5  NAG B   4      14.520  41.930  17.8550  0.00  0.00     0.000 C
ATOM     53  O5  NAG B   4      14.488  40.486  17.8740  0.00  0.00     0.000 O
BRANCH 49 56
ATOM     54   N  NAG B   4      17.840  39.428  16.9930  0.00  0.00     0.000 N
ATOM     56  HD  NAG B   4      18.211  38.802  16.5230  0.00  0.00     0.000 HD
ATOM     56   C  NAG B   4      19.564  38.504  18.4290  0.00  0.00     0.000 C
ATOM     57   O  NAG B   4      17.890  39.952  19.2040  0.00  0.00     0.000 OA
ATOM     58   C  NAG B   4      18.347  39.356  18.2400  0.00  0.00     0.000 C
ENDBRANCH 49 56
ATOM     59   O  NAG B   4      12.200  42.283  18.6200  0.00  0.00     0.000 O
ATOM     61  HD  NAG B   4      12.751  41.882  18.0860  0.00  0.00     0.000 HD
ATOM     61   O  NAG B   4      12.200  42.283  18.6200  0.00  0.00     0.000 O
ATOM     63  HD  NAG B   4      12.751  41.882  18.0860  0.00  0.00     0.000 HD
ENDBRANCH 47 50
ENDBRANCH 34 47
ENDBRANCH 33 37
ENDBRANCH 17 33
ENDBRANCH 16 19
ENDBRANCH 1 16
TORSDOF 10
ENDMDL
MODEL 97
REMARK VINA RESULT:      -4.9     19.733     24.717
ROOT
ATOM      1  C1  GCU B   1      15.465  17.916  38.6470  0.00  0.00     0.000 C
ATOM      2  C2  GCU B   1      15.819  17.331  40.0060  0.00  0.00     0.000 C
ATOM      3  C3  GCU B   1      15.488  15.847  40.0490  0.00  0.00     0.000 C
ATOM      4  C4  GCU B   1      14.054  15.615  39.5970  0.00  0.00     0.000 C
ATOM      5  C5  GCU B   1      13.785  16.294  38.2530  0.00  0.00     0.000 C
ATOM      6  O5  GCU B   1      14.074  17.694  38.3670  0.00  0.00     0.000 O
ATOM      7   O  GCU B   1      17.211  17.544  40.2190  0.00  0.00     0.000 O
ATOM      9  HD  GCU B   1      17.571  17.913  40.9150  0.00  0.00     0.000 HD
ATOM      9   O  GCU B   1      15.669  15.329  41.3690  0.00  0.00     0.000 O
ATOM     11  HD  GCU B   1      16.029  15.699  42.0650  0.00  0.00     0.000 HD
ATOM     11   O  GCU B   1      13.828  14.210  39.4840  0.00  0.00     0.000 O
ATOM     13  HD  GCU B   1      14.187  14.580  40.1790  0.00  0.00     0.000 HD
ENDROOT
BRANCH 5 13
ATOM     13   C  GCU B   1      12.361  16.036  37.8230  0.00  0.00     0.000 C
ATOM     14   O  GCU B   1      11.523  16.961  37.8260  0.00  0.00     0.000 OA
ATOM     15   O  GCU B   1      12.075  14.883  37.4460  0.00  0.00     0.000 OA
ENDBRANCH 5 13
BRANCH 1 16
ATOM     16  O3  NAG B   2      15.159  19.183  38.3620  0.00  0.00     0.000 O
BRANCH 16 19
ATOM     17  C1  NAG B   2      16.369  21.254  35.4510  0.00  0.00     0.000 C
ATOM     18  C2  NAG B   2      16.472  20.306  36.6380  0.00  0.00     0.000 C
ATOM     19  C3  NAG B   2      15.079  19.927  37.1360  0.00  0.00     0.000 C
ATOM     20  C4  NAG B   2      14.247  21.183  37.3960  0.00  0.00     0.000 C
ATOM     21  C5  NAG B   2      14.212  22.047  36.1440  0.00  0.00     0.000 C
ATOM     22  O5  NAG B   2      15.560  22.394  35.7800  0.00  0.00     0.000 O
ATOM     23   O  NAG B   2      12.929  20.779  37.7850  0.00  0.00     0.000 O
ATOM     25  HD  NAG B   2      13.420  21.158  38.3890  0.00  0.00     0.000 HD
ATOM     25   C  NAG B   2      13.382  23.316  36.3250  0.00  0.00     0.000 C
ATOM     26   O  NAG B   2      14.055  24.276  37.1540  0.00  0.00     0.000 O
ATOM     28  HD  NAG B   2      14.546  24.656  37.7580  0.00  0.00     0.000 HD
BRANCH 18 30
ATOM     28   N  NAG B   2      17.461  19.430  36.0380  0.00  0.00     0.000 N
ATOM     30  HD  NAG B   2      17.668  19.415  36.8790  0.00  0.00     0.000 HD
ATOM     30   C  NAG B   2      18.490  18.897  36.7080  0.00  0.00     0.000 C
ATOM     31   C  NAG B   2      19.457  18.044  35.9360  0.00  0.00     0.000 C
ATOM     32   O  NAG B   2      18.650  19.091  37.8970  0.00  0.00     0.000 OA
ENDBRANCH 18 30
BRANCH 17 33
ATOM     33  O4  GCU B   3      17.711  21.601  35.0520  0.00  0.00     0.000 O
BRANCH 33 37
ATOM     34  C1  GCU B   3      19.221  22.839  31.3750  0.00  0.00     0.000 C
ATOM     35  C2  GCU B   3      18.624  23.906  32.2930  0.00  0.00     0.000 C
ATOM     36  C3  GCU B   3      18.529  23.366  33.7040  0.00  0.00     0.000 C
ATOM     37  C4  GCU B   3      17.742  22.063  33.7010  0.00  0.00     0.000 C
ATOM     38  C5  GCU B   3      18.413  21.059  32.7610  0.00  0.00     0.000 C
ATOM     39  O5  GCU B   3      18.463  21.628  31.4480  0.00  0.00     0.000 O
ATOM     40   O  GCU B   3      19.461  25.064  32.2630  0.00  0.00     0.000 O
ATOM     42  HD  GCU B   3      19.866  25.630  32.7780  0.00  0.00     0.000 HD
ATOM     42   O  GCU B   3      17.904  24.319  34.5830  0.00  0.00     0.000 O
ATOM     44  HD  GCU B   3      18.309  24.885  35.0980  0.00  0.00     0.000 HD
BRANCH 38 44
ATOM     44   C  GCU B   3      17.673  19.748  32.6860  0.00  0.00     0.000 C
ATOM     45   O  GCU B   3      18.304  18.697  32.8780  0.00  0.00     0.000 OA
ATOM     46   O  GCU B   3      16.452  19.740  32.4390  0.00  0.00     0.000 OA
ENDBRANCH 38 44
BRANCH 34 47
ATOM     47  O3  NAG B   4      19.108  23.244  30.1190  0.00  0.00     0.000 O
BRANCH 47 50
ATOM     48  C1  NAG B   4      22.219  22.722  28.1680  0.00  0.00     0.000 C
ATOM     49  C2  NAG B   4      21.180  22.488  29.2590  0.00  0.00     0.000 C
ATOM     50  C3  NAG B   4      19.844  23.121  28.9030  0.00  0.00     0.000 C
ATOM     51  C4  NAG B   4      19.970  24.498  28.2410  0.00  0.00     0.000 C
ATOM     52  C5  NAG B   4      20.771  24.418  26.9520  0.00  0.00     0.000 C
ATOM     53  O5  NAG B   4      21.938  23.571  27.0340  0.00  0.00     0.000 O
BRANCH 49 56
ATOM     54   N  NAG B   4      20.794  21.106  28.9230  0.00  0.00     0.000 N
ATOM     56  HD  NAG B   4      20.316  20.866  28.2420  0.00  0.00     0.000 HD
ATOM     56   C  NAG B   4      20.572  18.698  29.1320  0.00  0.00     0.000 C
ATOM     57   O  NAG B   4      21.386  20.065  30.8550  0.00  0.00     0.000 OA
ATOM     58   C  NAG B   4      20.948  20.026  29.7150  0.00  0.00     0.000 C
ENDBRANCH 49 56
ATOM     59   O  NAG B   4      21.601  25.882  25.1460  0.00  0.00     0.000 O
ATOM     61  HD  NAG B   4      21.739  25.495  25.9080  0.00  0.00     0.000 HD
ATOM     61   O  NAG B   4      21.601  25.882  25.1460  0.00  0.00     0.000 O
ATOM     63  HD  NAG B   4      21.739  25.495  25.9080  0.00  0.00     0.000 HD
ENDBRANCH 47 50
ENDBRANCH 34 47
ENDBRANCH 33 37
ENDBRANCH 17 33
ENDBRANCH 16 19
ENDBRANCH 1 16
TORSDOF 10
ENDMDL
MODEL 98
REMARK VINA RESULT:      -4.8     17.875     20.750
ROOT
ATOM      1  C1  GCU B   1      15.894  33.327  25.4650  0.00  0.00     0.000 C
ATOM      2  C2  GCU B   1      16.773  34.534  25.1710  0.00  0.00     0.000 C
ATOM      3  C3  GCU B   1      16.463  35.093  23.7910  0.00  0.00     0.000 C
ATOM      4  C4  GCU B   1      16.515  33.985  22.7510  0.00  0.00     0.000 C
ATOM      5  C5  GCU B   1      15.649  32.796  23.1700  0.00  0.00     0.000 C
ATOM      6  O5  GCU B   1      16.085  32.326  24.4520  0.00  0.00     0.000 O
ATOM      7   O  GCU B   1      16.521  35.508  26.1780  0.00  0.00     0.000 O
ATOM      9  HD  GCU B   1      17.116  35.903  26.6670  0.00  0.00     0.000 HD
ATOM      9   O  GCU B   1      17.391  36.124  23.4450  0.00  0.00     0.000 O
ATOM     11  HD  GCU B   1      17.987  36.520  23.9340  0.00  0.00     0.000 HD
ATOM     11   O  GCU B   1      16.055  34.501  21.5020  0.00  0.00     0.000 O
ATOM     13  HD  GCU B   1      16.651  34.897  21.9910  0.00  0.00     0.000 HD
ENDROOT
BRANCH 5 13
ATOM     13   C  GCU B   1      15.709  31.718  22.1140  0.00  0.00     0.000 C
ATOM     14   O  GCU B   1      14.697  31.036  21.8500  0.00  0.00     0.000 OA
ATOM     15   O  GCU B   1      16.788  31.566  21.5100  0.00  0.00     0.000 OA
ENDBRANCH 5 13
BRANCH 1 16
ATOM     16  O3  NAG B   2      16.155  32.314  26.2940  0.00  0.00     0.000 O
BRANCH 16 19
ATOM     17  C1  NAG B   2      14.075  30.963  29.1360  0.00  0.00     0.000 C
ATOM     18  C2  NAG B   2      14.790  32.012  28.2940  0.00  0.00     0.000 C
ATOM     19  C3  NAG B   2      15.325  31.385  27.0080  0.00  0.00     0.000 C
ATOM     20  C4  NAG B   2      16.164  30.148  27.3280  0.00  0.00     0.000 C
ATOM     21  C5  NAG B   2      15.347  29.174  28.1650  0.00  0.00     0.000 C
ATOM     22  O5  NAG B   2      14.930  29.834  29.3730  0.00  0.00     0.000 O
ATOM     23   O  NAG B   2      16.577  29.551  26.0940  0.00  0.00     0.000 O
ATOM     25  HD  NAG B   2      17.193  29.913  26.5830  0.00  0.00     0.000 HD
ATOM     25   C  NAG B   2      16.119  27.901  28.5100  0.00  0.00     0.000 C
ATOM     26   O  NAG B   2      17.127  28.146  29.5030  0.00  0.00     0.000 O
ATOM     28  HD  NAG B   2      17.743  28.508  29.9920  0.00  0.00     0.000 HD
BRANCH 18 30
ATOM     28   N  NAG B   2      13.758  33.025  28.4040  0.00  0.00     0.000 N
ATOM     30  HD  NAG B   2      14.490  33.489  28.3930  0.00  0.00     0.000 HD
ATOM     30   C  NAG B   2      14.008  34.328  28.5840  0.00  0.00     0.000 C
ATOM     31   C  NAG B   2      12.829  35.251  28.7240  0.00  0.00     0.000 C
ATOM     32   O  NAG B   2      15.141  34.762  28.6380  0.00  0.00     0.000 OA
ENDBRANCH 18 30
BRANCH 17 33
ATOM     33  O4  GCU B   3      13.627  31.606  30.3460  0.00  0.00     0.000 O
BRANCH 33 37
ATOM     34  C1  GCU B   3      10.904  30.375  33.2440  0.00  0.00     0.000 C
ATOM     35  C2  GCU B   3      12.323  29.809  33.3180  0.00  0.00     0.000 C
ATOM     36  C3  GCU B   3      13.254  30.665  32.4850  0.00  0.00     0.000 C
ATOM     37  C4  GCU B   3      12.717  30.772  31.0650  0.00  0.00     0.000 C
ATOM     38  C5  GCU B   3      11.300  31.348  31.0910  0.00  0.00     0.000 C
ATOM     39  O5  GCU B   3      10.474  30.489  31.8850  0.00  0.00     0.000 O
ATOM     40   O  GCU B   3      12.748  29.799  34.6820  0.00  0.00     0.000 O
ATOM     42  HD  GCU B   3      13.404  30.034  35.1970  0.00  0.00     0.000 HD
ATOM     42   O  GCU B   3      14.585  30.120  32.4720  0.00  0.00     0.000 O
ATOM     44  HD  GCU B   3      15.241  30.355  32.9870  0.00  0.00     0.000 HD
BRANCH 38 44
ATOM     44   C  GCU B   3      10.692  31.459  29.7160  0.00  0.00     0.000 C
ATOM     45   O  GCU B   3      10.777  32.541  29.1150  0.00  0.00     0.000 OA
ATOM     46   O  GCU B   3      10.122  30.473  29.2110  0.00  0.00     0.000 OA
ENDBRANCH 38 44
BRANCH 34 47
ATOM     47  O3  NAG B   4      10.069  29.509  33.8010  0.00  0.00     0.000 O
BRANCH 47 50
ATOM     48  C1  NAG B   4       7.360  27.047  34.3990  0.00  0.00     0.000 C
ATOM     49  C2  NAG B   4       8.316  28.197  34.7000  0.00  0.00     0.000 C
ATOM     50  C3  NAG B   4       8.897  28.787  33.4260  0.00  0.00     0.000 C
ATOM     51  C4  NAG B   4       9.261  27.738  32.3690  0.00  0.00     0.000 C
ATOM     52  C5  NAG B   4       8.045  26.926  31.9560  0.00  0.00     0.000 C
ATOM     53  O5  NAG B   4       7.189  26.546  33.0570  0.00  0.00     0.000 O
BRANCH 49 56
ATOM     54   N  NAG B   4       7.253  29.177  34.9810  0.00  0.00     0.000 N
ATOM     56  HD  NAG B   4       6.579  29.353  34.4670  0.00  0.00     0.000 HD
ATOM     56   C  NAG B   4       6.027  30.927  36.1320  0.00  0.00     0.000 C
ATOM     57   O  NAG B   4       8.191  30.262  36.7440  0.00  0.00     0.000 OA
ATOM     58   C  NAG B   4       7.260  30.092  35.9710  0.00  0.00     0.000 C
ENDBRANCH 49 56
ATOM     59   O  NAG B   4       7.430  25.067  30.4530  0.00  0.00     0.000 O
ATOM     61  HD  NAG B   4       7.678  25.334  31.2390  0.00  0.00     0.000 HD
ATOM     61   O  NAG B   4       7.430  25.067  30.4530  0.00  0.00     0.000 O
ATOM     63  HD  NAG B   4       7.678  25.334  31.2390  0.00  0.00     0.000 HD
ENDBRANCH 47 50
ENDBRANCH 34 47
ENDBRANCH 33 37
ENDBRANCH 17 33
ENDBRANCH 16 19
ENDBRANCH 1 16
TORSDOF 10
ENDMDL
MODEL 99
REMARK VINA RESULT:      -4.8     12.239     14.735
ROOT
ATOM      1  C1  GCU B   1      21.709  34.356  16.3540  0.00  0.00     0.000 C
ATOM      2  C2  GCU B   1      22.697  33.822  15.3290  0.00  0.00     0.000 C
ATOM      3  C3  GCU B   1      23.785  34.849  15.0550  0.00  0.00     0.000 C
ATOM      4  C4  GCU B   1      23.163  36.195  14.7160  0.00  0.00     0.000 C
ATOM      5  C5  GCU B   1      22.141  36.611  15.7750  0.00  0.00     0.000 C
ATOM      6  O5  GCU B   1      21.141  35.591  15.8890  0.00  0.00     0.000 O
ATOM      7   O  GCU B   1      23.258  32.622  15.8520  0.00  0.00     0.000 O
ATOM      9  HD  GCU B   1      23.292  31.856  15.4490  0.00  0.00     0.000 HD
ATOM      9   O  GCU B   1      24.624  34.420  13.9790  0.00  0.00     0.000 O
ATOM     11  HD  GCU B   1      24.658  33.654  13.5760  0.00  0.00     0.000 HD
ATOM     11   O  GCU B   1      24.199  37.175  14.6330  0.00  0.00     0.000 O
ATOM     13  HD  GCU B   1      24.234  36.409  14.2300  0.00  0.00     0.000 HD
ENDROOT
BRANCH 5 13
ATOM     13   C  GCU B   1      21.551  37.955  15.4210  0.00  0.00     0.000 C
ATOM     14   O  GCU B   1      20.968  38.637  16.2880  0.00  0.00     0.000 OA
ATOM     15   O  GCU B   1      21.697  38.355  14.2500  0.00  0.00     0.000 OA
ENDBRANCH 5 13
BRANCH 1 16
ATOM     16  O3  NAG B   2      20.430  34.007  16.5090  0.00  0.00     0.000 O
BRANCH 16 19
ATOM     17  C1  NAG B   2      18.785  32.257  19.4180  0.00  0.00     0.000 C
ATOM     18  C2  NAG B   2      19.818  32.495  18.3240  0.00  0.00     0.000 C
ATOM     19  C3  NAG B   2      19.581  33.849  17.6570  0.00  0.00     0.000 C
ATOM     20  C4  NAG B   2      18.129  33.968  17.1950  0.00  0.00     0.000 C
ATOM     21  C5  NAG B   2      17.193  33.715  18.3680  0.00  0.00     0.000 C
ATOM     22  O5  NAG B   2      17.454  32.404  18.8980  0.00  0.00     0.000 O
ATOM     23   O  NAG B   2      17.935  35.277  16.6490  0.00  0.00     0.000 O
ATOM     25  HD  NAG B   2      17.901  34.610  16.0970  0.00  0.00     0.000 HD
ATOM     25   C  NAG B   2      15.720  33.834  17.9830  0.00  0.00     0.000 C
ATOM     26   O  NAG B   2      15.285  32.713  17.1980  0.00  0.00     0.000 O
ATOM     28  HD  NAG B   2      15.250  32.046  16.6460  0.00  0.00     0.000 HD
BRANCH 18 30
ATOM     28   N  NAG B   2      21.015  32.183  19.0820  0.00  0.00     0.000 N
ATOM     30  HD  NAG B   2      21.163  31.807  18.3160  0.00  0.00     0.000 HD
ATOM     30   C  NAG B   2      21.987  31.374  18.6420  0.00  0.00     0.000 C
ATOM     31   C  NAG B   2      23.145  31.111  19.5630  0.00  0.00     0.000 C
ATOM     32   O  NAG B   2      21.944  30.861  17.5420  0.00  0.00     0.000 OA
ENDBRANCH 18 30
BRANCH 17 33
ATOM     33  O4  GCU B   3      19.039  30.955  19.9810  0.00  0.00     0.000 O
BRANCH 33 37
ATOM     34  C1  GCU B   3      17.229  28.950  23.1500  0.00  0.00     0.000 C
ATOM     35  C2  GCU B   3      16.510  28.940  21.8000  0.00  0.00     0.000 C
ATOM     36  C3  GCU B   3      17.482  29.325  20.7050  0.00  0.00     0.000 C
ATOM     37  C4  GCU B   3      18.123  30.665  21.0390  0.00  0.00     0.000 C
ATOM     38  C5  GCU B   3      18.817  30.579  22.4000  0.00  0.00     0.000 C
ATOM     39  O5  GCU B   3      17.844  30.220  23.3860  0.00  0.00     0.000 O
ATOM     40   O  GCU B   3      15.992  27.630  21.5620  0.00  0.00     0.000 O
ATOM     42  HD  GCU B   3      15.961  27.004  20.9640  0.00  0.00     0.000 HD
ATOM     42   O  GCU B   3      16.823  29.397  19.4280  0.00  0.00     0.000 O
ATOM     44  HD  GCU B   3      16.792  28.770  18.8310  0.00  0.00     0.000 HD
BRANCH 38 44
ATOM     44   C  GCU B   3      19.456  31.882  22.8100  0.00  0.00     0.000 C
ATOM     45   O  GCU B   3      20.693  31.966  22.8000  0.00  0.00     0.000 OA
ATOM     46   O  GCU B   3      18.738  32.843  23.1460  0.00  0.00     0.000 OA
ENDBRANCH 38 44
BRANCH 34 47
ATOM     47  O3  NAG B   4      16.329  28.816  24.1140  0.00  0.00     0.000 O
BRANCH 47 50
ATOM     48  C1  NAG B   4      15.774  31.971  25.9820  0.00  0.00     0.000 C
ATOM     49  C2  NAG B   4      15.800  31.022  24.7890  0.00  0.00     0.000 C
ATOM     50  C3  NAG B   4      15.865  29.570  25.2320  0.00  0.00     0.000 C
ATOM     51  C4  NAG B   4      16.794  29.330  26.4280  0.00  0.00     0.000 C
ATOM     52  C5  NAG B   4      16.351  30.135  27.6390  0.00  0.00     0.000 C
ATOM     53  O5  NAG B   4      15.939  31.485  27.3310  0.00  0.00     0.000 O
BRANCH 49 56
ATOM     54   N  NAG B   4      14.364  31.028  24.4610  0.00  0.00     0.000 N
ATOM     56  HD  NAG B   4      13.737  30.651  24.9260  0.00  0.00     0.000 HD
ATOM     56   C  NAG B   4      12.322  31.448  23.2170  0.00  0.00     0.000 C
ATOM     57   O  NAG B   4      14.462  31.818  22.3320  0.00  0.00     0.000 OA
ATOM     58   C  NAG B   4      13.818  31.439  23.2990  0.00  0.00     0.000 C
ENDBRANCH 49 56
ATOM     59   O  NAG B   4      17.022  30.562  29.9770  0.00  0.00     0.000 O
ATOM     61  HD  NAG B   4      17.057  30.790  29.1420  0.00  0.00     0.000 HD
ATOM     61   O  NAG B   4      17.022  30.562  29.9770  0.00  0.00     0.000 O
ATOM     63  HD  NAG B   4      17.057  30.790  29.1420  0.00  0.00     0.000 HD
ENDBRANCH 47 50
ENDBRANCH 34 47
ENDBRANCH 33 37
ENDBRANCH 17 33
ENDBRANCH 16 19
ENDBRANCH 1 16
TORSDOF 10
ENDMDL
MODEL 100
REMARK VINA RESULT:      -4.8     20.914     24.473
ROOT
ATOM      1  C1  GCU B   1      20.020  19.507  32.0880  0.00  0.00     0.000 C
ATOM      2  C2  GCU B   1      20.904  18.513  31.3500  0.00  0.00     0.000 C
ATOM      3  C3  GCU B   1      21.239  17.331  32.2460  0.00  0.00     0.000 C
ATOM      4  C4  GCU B   1      21.786  17.820  33.5780  0.00  0.00     0.000 C
ATOM      5  C5  GCU B   1      20.855  18.859  34.2070  0.00  0.00     0.000 C
ATOM      6  O5  GCU B   1      20.675  19.945  33.2890  0.00  0.00     0.000 O
ATOM      7   O  GCU B   1      20.197  18.083  30.1910  0.00  0.00     0.000 O
ATOM      9  HD  GCU B   1      20.496  18.091  29.3780  0.00  0.00     0.000 HD
ATOM      9   O  GCU B   1      22.195  16.475  31.6160  0.00  0.00     0.000 O
ATOM     11  HD  GCU B   1      22.493  16.483  30.8030  0.00  0.00     0.000 HD
ATOM     11   O  GCU B   1      21.928  16.704  34.4570  0.00  0.00     0.000 O
ATOM     13  HD  GCU B   1      22.227  16.712  33.6440  0.00  0.00     0.000 HD
ENDROOT
BRANCH 5 13
ATOM     13   C  GCU B   1      21.416  19.315  35.5330  0.00  0.00     0.000 C
ATOM     14   O  GCU B   1      22.587  19.028  35.8560  0.00  0.00     0.000 OA
ATOM     15   O  GCU B   1      20.676  20.004  36.2620  0.00  0.00     0.000 OA
ENDBRANCH 5 13
BRANCH 1 16
ATOM     16  O3  NAG B   2      19.904  20.817  31.8600  0.00  0.00     0.000 O
BRANCH 16 19
ATOM     17  C1  NAG B   2      17.464  23.138  33.5580  0.00  0.00     0.000 C
ATOM     18  C2  NAG B   2      17.949  21.866  32.8750  0.00  0.00     0.000 C
ATOM     19  C3  NAG B   2      19.460  21.923  32.6620  0.00  0.00     0.000 C
ATOM     20  C4  NAG B   2      19.848  23.216  31.9450  0.00  0.00     0.000 C
ATOM     21  C5  NAG B   2      19.316  24.414  32.7180  0.00  0.00     0.000 C
ATOM     22  O5  NAG B   2      17.886  24.300  32.8260  0.00  0.00     0.000 O
ATOM     23   O  NAG B   2      21.275  23.261  31.8370  0.00  0.00     0.000 O
ATOM     25  HD  NAG B   2      20.827  23.163  31.1030  0.00  0.00     0.000 HD
ATOM     25   C  NAG B   2      19.680  25.746  32.0670  0.00  0.00     0.000 C
ATOM     26   O  NAG B   2      18.914  25.982  30.8750  0.00  0.00     0.000 O
ATOM     28  HD  NAG B   2      18.466  25.884  30.1410  0.00  0.00     0.000 HD
BRANCH 18 30
ATOM     28   N  NAG B   2      16.784  21.025  32.6770  0.00  0.00     0.000 N
ATOM     30  HD  NAG B   2      17.212  20.622  33.3120  0.00  0.00     0.000 HD
ATOM     30   C  NAG B   2      16.599  19.850  33.2910  0.00  0.00     0.000 C
ATOM     31   C  NAG B   2      15.359  19.072  32.9480  0.00  0.00     0.000 C
ATOM     32   O  NAG B   2      17.397  19.416  34.0970  0.00  0.00     0.000 OA
ENDBRANCH 18 30
BRANCH 17 33
ATOM     33  O4  GCU B   3      16.032  23.039  33.6980  0.00  0.00     0.000 O
BRANCH 33 37
ATOM     34  C1  GCU B   3      13.462  24.507  36.6260  0.00  0.00     0.000 C
ATOM     35  C2  GCU B   3      14.082  25.513  35.6570  0.00  0.00     0.000 C
ATOM     36  C3  GCU B   3      14.617  24.785  34.4430  0.00  0.00     0.000 C
ATOM     37  C4  GCU B   3      15.585  23.696  34.8850  0.00  0.00     0.000 C
ATOM     38  C5  GCU B   3      14.878  22.739  35.8470  0.00  0.00     0.000 C
ATOM     39  O5  GCU B   3      14.406  23.489  36.9710  0.00  0.00     0.000 O
ATOM     40   O  GCU B   3      13.081  26.456  35.2660  0.00  0.00     0.000 O
ATOM     42  HD  GCU B   3      12.730  26.832  34.5690  0.00  0.00     0.000 HD
ATOM     42   O  GCU B   3      15.274  25.694  33.5410  0.00  0.00     0.000 O
ATOM     44  HD  GCU B   3      14.922  26.069  32.8440  0.00  0.00     0.000 HD
BRANCH 38 44
ATOM     44   C  GCU B   3      15.786  21.644  36.3500  0.00  0.00     0.000 C
ATOM     45   O  GCU B   3      16.950  21.935  36.6630  0.00  0.00     0.000 OA
ATOM     46   O  GCU B   3      15.354  20.479  36.4450  0.00  0.00     0.000 OA
ENDBRANCH 38 44
BRANCH 34 47
ATOM     47  O3  NAG B   4      13.186  25.125  37.7660  0.00  0.00     0.000 O
BRANCH 47 50
ATOM     48  C1  NAG B   4       9.682  24.517  38.8200  0.00  0.00     0.000 C
ATOM     49  C2  NAG B   4      11.042  24.218  38.1980  0.00  0.00     0.000 C
ATOM     50  C3  NAG B   4      12.108  25.180  38.6990  0.00  0.00     0.000 C
ATOM     51  C4  NAG B   4      11.621  26.627  38.8300  0.00  0.00     0.000 C
ATOM     52  C5  NAG B   4      10.454  26.730  39.7980  0.00  0.00     0.000 C
ATOM     53  O5  NAG B   4       9.479  25.672  39.6600  0.00  0.00     0.000 O
BRANCH 49 56
ATOM     54   N  NAG B   4      11.422  23.078  39.0500  0.00  0.00     0.000 N
ATOM     56  HD  NAG B   4      11.620  23.120  39.8920  0.00  0.00     0.000 HD
ATOM     56   C  NAG B   4      11.984  20.801  39.6750  0.00  0.00     0.000 C
ATOM     57   O  NAG B   4      11.757  21.500  37.4480  0.00  0.00     0.000 OA
ATOM     58   C  NAG B   4      11.716  21.833  38.6230  0.00  0.00     0.000 C
ENDBRANCH 49 56
ATOM     59   O  NAG B   4       8.920  28.419  40.7410  0.00  0.00     0.000 O
ATOM     61  HD  NAG B   4       9.084  27.825  40.1330  0.00  0.00     0.000 HD
ATOM     61   O  NAG B   4       8.920  28.419  40.7410  0.00  0.00     0.000 O
ATOM     63  HD  NAG B   4       9.084  27.825  40.1330  0.00  0.00     0.000 HD
ENDBRANCH 47 50
ENDBRANCH 34 47
ENDBRANCH 33 37
ENDBRANCH 17 33
ENDBRANCH 16 19
ENDBRANCH 1 16
TORSDOF 10
ENDMDL
