MODEL 1
REMARK VINA RESULT:      -9.3      0.000      0.000
ROOT
ATOM      1  C1  IDS C   1     167.015  12.460  72.4840  0.00  0.00     0.000 C
ATOM      2  C2  IDS C   1     167.951  11.408  71.8830  0.00  0.00     0.000 C
ATOM      3  C3  IDS C   1     168.033  11.559  70.3710  0.00  0.00     0.000 C
ATOM      4  C4  IDS C   1     166.654  11.422  69.7420  0.00  0.00     0.000 C
ATOM      5  C5  IDS C   1     165.609  12.111  70.6140  0.00  0.00     0.000 C
ATOM      6  O5  IDS C   1     166.236  13.072  71.4630  0.00  0.00     0.000 O
ATOM      7   O  IDS C   1     168.918  10.567  69.8320  0.00  0.00     0.000 O
ATOM      9  HD  IDS C   1     169.570  10.451  70.3900  0.00  0.00     0.000 HD
ENDROOT
BRANCH 2 9
ATOM      9   O  IDS C   1     169.322  11.554  72.4210  0.00  0.00     0.000 O
ATOM     10   S  IDS C   1     170.004  10.323  73.1710  0.00  0.00     0.000 S
ATOM     11   O  IDS C   1     171.323  10.775  73.5570  0.00  0.00     0.000 OA
ATOM     12   O  IDS C   1     169.151  10.037  74.3070  0.00  0.00     0.000 OA
ATOM     13   O  IDS C   1     170.041   9.245  72.2080  0.00  0.00     0.000 OA
ENDBRANCH 2 9
BRANCH 5 14
ATOM     14   C  IDS C   1     164.548  12.817  69.7890  0.00  0.00     0.000 C
ATOM     15   O  IDS C   1     164.562  12.710  68.5870  0.00  0.00     0.000 OA
ATOM     16   O  IDS C   1     163.694  13.487  70.3450  0.00  0.00     0.000 OA
ENDBRANCH 5 14
BRANCH 1 17
ATOM     17  O4  SGN C   2     167.301  13.136  73.6000  0.00  0.00     0.000 O
BRANCH 17 21
ATOM     18  C1  SGN C   2     168.897  16.389  75.6980  0.00  0.00     0.000 C
ATOM     19  C2  SGN C   2     168.855  16.511  74.1700  0.00  0.00     0.000 C
ATOM     20  C3  SGN C   2     167.886  15.472  73.5920  0.00  0.00     0.000 C
ATOM     21  C4  SGN C   2     168.249  14.079  74.0930  0.00  0.00     0.000 C
ATOM     22  C5  SGN C   2     168.253  14.084  75.6180  0.00  0.00     0.000 C
ATOM     23  O5  SGN C   2     169.195  15.069  76.1020  0.00  0.00     0.000 O
ATOM     24   O  SGN C   2     167.911  15.525  72.1750  0.00  0.00     0.000 O
ATOM     26  HD  SGN C   2     167.552  15.464  72.9610  0.00  0.00     0.000 HD
BRANCH 19 28
ATOM     26   N  SGN C   2     169.442  17.716  73.5680  0.00  0.00     0.000 N
ATOM     28  HD  SGN C   2     170.012  17.093  73.3770  0.00  0.00     0.000 HD
ATOM     28   O  SGN C   2     169.115  19.923  72.4510  0.00  0.00     0.000 OA
ATOM     29   S  SGN C   2     168.837  18.396  72.2420  0.00  0.00     0.000 S
ATOM     30   O  SGN C   2     169.603  17.943  71.1450  0.00  0.00     0.000 OA
ATOM     31   O  SGN C   2     167.431  18.185  72.2520  0.00  0.00     0.000 OA
ENDBRANCH 19 28
BRANCH 22 32
ATOM     32   C  SGN C   2     168.659  12.761  76.2200  0.00  0.00     0.000 C
ATOM     33   S  SGN C   2     169.221  11.774  78.5330  0.00  0.00     0.000 S
ATOM     34   O  SGN C   2     170.533  12.370  78.5450  0.00  0.00     0.000 OA
ATOM     35   O  SGN C   2     168.563  11.791  79.8240  0.00  0.00     0.000 OA
ATOM     36   O  SGN C   2     169.163  10.490  77.8760  0.00  0.00     0.000 OA
ATOM     37   O  SGN C   2     168.352  12.753  77.6190  0.00  0.00     0.000 O
ENDBRANCH 22 32
BRANCH 18 38
ATOM     38  O4  IDS C   3     168.036  16.824  76.6210  0.00  0.00     0.000 O
BRANCH 38 42
ATOM     39  C1  IDS C   3     166.337  18.479  79.1700  0.00  0.00     0.000 C
ATOM     40  C2  IDS C   3     166.492  16.950  79.1850  0.00  0.00     0.000 C
ATOM     41  C3  IDS C   3     166.029  16.335  77.8650  0.00  0.00     0.000 C
ATOM     42  C4  IDS C   3     166.627  17.071  76.6740  0.00  0.00     0.000 C
ATOM     43  C5  IDS C   3     166.365  18.576  76.8090  0.00  0.00     0.000 C
ATOM     44  O5  IDS C   3     166.949  19.044  78.0230  0.00  0.00     0.000 O
ATOM     45   O  IDS C   3     164.603  16.383  77.7940  0.00  0.00     0.000 O
ATOM     47  HD  IDS C   3     164.008  17.009  77.8580  0.00  0.00     0.000 HD
BRANCH 40 47
ATOM     47   O  IDS C   3     167.912  16.573  79.3780  0.00  0.00     0.000 O
ATOM     48   S  IDS C   3     168.404  16.023  80.7970  0.00  0.00     0.000 S
ATOM     49   O  IDS C   3     168.520  17.183  81.6540  0.00  0.00     0.000 OA
ATOM     50   O  IDS C   3     169.682  15.396  80.5390  0.00  0.00     0.000 OA
ATOM     51   O  IDS C   3     167.398  15.097  81.2440  0.00  0.00     0.000 OA
ENDBRANCH 40 47
BRANCH 43 52
ATOM     52   C  IDS C   3     166.909  19.373  75.6440  0.00  0.00     0.000 C
ATOM     53   O  IDS C   3     168.058  19.751  75.6550  0.00  0.00     0.000 OA
ATOM     54   O  IDS C   3     166.194  19.626  74.7080  0.00  0.00     0.000 OA
ENDBRANCH 43 52
BRANCH 39 55
ATOM     55  O4  SGN C   4     165.232  19.113  79.5630  0.00  0.00     0.000 O
BRANCH 55 59
ATOM     56  C1  SGN C   4     165.799  21.703  82.8000  0.00  0.00     0.000 C
ATOM     57  C2  SGN C   4     165.293  20.288  83.1320  0.00  0.00     0.000 C
ATOM     58  C3  SGN C   4     165.506  19.346  81.9500  0.00  0.00     0.000 C
ATOM     59  C4  SGN C   4     164.935  19.951  80.6720  0.00  0.00     0.000 C
ATOM     60  C5  SGN C   4     165.554  21.331  80.4620  0.00  0.00     0.000 C
ATOM     61  O5  SGN C   4     165.210  22.157  81.5920  0.00  0.00     0.000 O
ATOM     62   O  SGN C   4     164.898  18.091  82.2260  0.00  0.00     0.000 O
ATOM     64  HD  SGN C   4     165.107  18.407  83.0050  0.00  0.00     0.000 HD
BRANCH 57 66
ATOM     64   N  SGN C   4     165.995  20.104  84.4120  0.00  0.00     0.000 N
ATOM     66  HD  SGN C   4     165.987  20.484  85.1900  0.00  0.00     0.000 HD
ATOM     66   S  SGN C   4     165.175  19.920  85.7680  0.00  0.00     0.000 S
ATOM     67   O  SGN C   4     166.116  19.829  86.8250  0.00  0.00     0.000 OA
ATOM     68   O  SGN C   4     164.186  20.942  85.7990  0.00  0.00     0.000 OA
ATOM     69   O  SGN C   4     164.464  18.541  85.5870  0.00  0.00     0.000 OA
ENDBRANCH 57 66
BRANCH 60 70
ATOM     70   C  SGN C   4     165.071  22.034  79.2120  0.00  0.00     0.000 C
ATOM     71   O  SGN C   4     162.268  24.522  78.9640  0.00  0.00     0.000 OA
ATOM     72   O  SGN C   4     164.643  24.976  79.0040  0.00  0.00     0.000 OA
ATOM     73   O  SGN C   4     163.849  22.751  79.4760  0.00  0.00     0.000 O
ATOM     74   S  SGN C   4     163.592  24.067  78.6060  0.00  0.00     0.000 S
ATOM     75   O  SGN C   4     163.699  23.628  77.2290  0.00  0.00     0.000 OA
ENDBRANCH 60 70
BRANCH 56 76
ATOM     76  O4  IDS C   5     166.951  22.377  82.9700  0.00  0.00     0.000 O
BRANCH 76 80
ATOM     77  C1  IDS C   5     167.572  25.030  86.0090  0.00  0.00     0.000 C
ATOM     78  C2  IDS C   5     167.001  25.649  84.7330  0.00  0.00     0.000 C
ATOM     79  C3  IDS C   5     166.406  24.564  83.8570  0.00  0.00     0.000 C
ATOM     80  C4  IDS C   5     167.515  23.634  83.3730  0.00  0.00     0.000 C
ATOM     81  C5  IDS C   5     168.534  23.427  84.5030  0.00  0.00     0.000 C
ATOM     82  O5  IDS C   5     167.928  23.668  85.7760  0.00  0.00     0.000 O
BRANCH 78 83
ATOM     83   O  IDS C   5     165.935  26.626  85.0560  0.00  0.00     0.000 O
ATOM     84   S  IDS C   5     166.048  28.127  84.5280  0.00  0.00     0.000 S
ATOM     85   O  IDS C   5     167.377  28.564  84.8610  0.00  0.00     0.000 OA
ATOM     86   O  IDS C   5     165.816  28.046  83.1050  0.00  0.00     0.000 OA
ATOM     87   O  IDS C   5     165.017  28.863  85.2190  0.00  0.00     0.000 OA
ENDBRANCH 78 83
BRANCH 81 88
ATOM     88   C  IDS C   5     169.139  22.035  84.5400  0.00  0.00     0.000 C
ATOM     89   O  IDS C   5     168.715  21.219  85.3130  0.00  0.00     0.000 OA
ATOM     90   O  IDS C   5     170.044  21.755  83.7870  0.00  0.00     0.000 OA
ENDBRANCH 81 88
ENDBRANCH 76 80
ENDBRANCH 56 76
ENDBRANCH 55 59
ENDBRANCH 39 55
ENDBRANCH 38 42
ENDBRANCH 18 38
ENDBRANCH 17 21
ENDBRANCH 1 17
TORSDOF 18
ENDMDL
MODEL 2
REMARK VINA RESULT:      -9.3      1.671      2.385
ROOT
ATOM      1  C1  IDS C   1     167.066  12.381  72.4020  0.00  0.00     0.000 C
ATOM      2  C2  IDS C   1     168.004  11.337  71.7910  0.00  0.00     0.000 C
ATOM      3  C3  IDS C   1     168.099  11.513  70.2820  0.00  0.00     0.000 C
ATOM      4  C4  IDS C   1     166.725  11.391  69.6390  0.00  0.00     0.000 C
ATOM      5  C5  IDS C   1     165.675  12.068  70.5150  0.00  0.00     0.000 C
ATOM      6  O5  IDS C   1     166.298  13.013  71.3860  0.00  0.00     0.000 O
ATOM      7   O  IDS C   1     168.986  10.528  69.7340  0.00  0.00     0.000 O
ATOM      9  HD  IDS C   1     169.633  10.401  70.2950  0.00  0.00     0.000 HD
ENDROOT
BRANCH 2 9
ATOM      9   O  IDS C   1     169.371  11.469  72.3430  0.00  0.00     0.000 O
ATOM     10   S  IDS C   1     170.021  10.243  73.1280  0.00  0.00     0.000 S
ATOM     11   O  IDS C   1     171.343  10.679  73.5200  0.00  0.00     0.000 OA
ATOM     12   O  IDS C   1     169.150   9.998  74.2580  0.00  0.00     0.000 OA
ATOM     13   O  IDS C   1     170.049   9.143  72.1890  0.00  0.00     0.000 OA
ENDBRANCH 2 9
BRANCH 5 14
ATOM     14   C  IDS C   1     164.622  12.792  69.6930  0.00  0.00     0.000 C
ATOM     15   O  IDS C   1     164.624  12.676  68.4920  0.00  0.00     0.000 OA
ATOM     16   O  IDS C   1     163.788  13.483  70.2520  0.00  0.00     0.000 OA
ENDBRANCH 5 14
BRANCH 1 17
ATOM     17  O4  SGN C   2     167.345  13.037  73.5320  0.00  0.00     0.000 O
BRANCH 17 21
ATOM     18  C1  SGN C   2     168.864  16.312  75.6520  0.00  0.00     0.000 C
ATOM     19  C2  SGN C   2     168.846  16.432  74.1230  0.00  0.00     0.000 C
ATOM     20  C3  SGN C   2     167.900  15.381  73.5300  0.00  0.00     0.000 C
ATOM     21  C4  SGN C   2     168.273  13.993  74.0390  0.00  0.00     0.000 C
ATOM     22  C5  SGN C   2     168.251  13.999  75.5640  0.00  0.00     0.000 C
ATOM     23  O5  SGN C   2     169.172  14.997  76.0630  0.00  0.00     0.000 O
ATOM     24   O  SGN C   2     167.948  15.432  72.1140  0.00  0.00     0.000 O
ATOM     26  HD  SGN C   2     167.576  15.367  72.8940  0.00  0.00     0.000 HD
BRANCH 19 28
ATOM     26   N  SGN C   2     169.427  17.642  73.5240  0.00  0.00     0.000 N
ATOM     28  HD  SGN C   2     170.004  17.023  73.3380  0.00  0.00     0.000 HD
ATOM     28   O  SGN C   2     169.092  19.845  72.4030  0.00  0.00     0.000 OA
ATOM     29   S  SGN C   2     168.827  18.316  72.1940  0.00  0.00     0.000 S
ATOM     30   O  SGN C   2     169.605  17.868  71.1020  0.00  0.00     0.000 OA
ATOM     31   O  SGN C   2     167.423  18.094  72.1930  0.00  0.00     0.000 OA
ENDBRANCH 19 28
BRANCH 22 32
ATOM     32   C  SGN C   2     168.663  12.682  76.1740  0.00  0.00     0.000 C
ATOM     33   S  SGN C   2     169.229  11.713  78.4950  0.00  0.00     0.000 S
ATOM     34   O  SGN C   2     170.538  12.316  78.5040  0.00  0.00     0.000 OA
ATOM     35   O  SGN C   2     168.571  11.735  79.7840  0.00  0.00     0.000 OA
ATOM     36   O  SGN C   2     169.178  10.425  77.8450  0.00  0.00     0.000 OA
ATOM     37   O  SGN C   2     168.356  12.682  77.5740  0.00  0.00     0.000 O
ENDBRANCH 22 32
BRANCH 18 38
ATOM     38  O4  IDS C   3     167.982  16.737  76.5590  0.00  0.00     0.000 O
BRANCH 38 42
ATOM     39  C1  IDS C   3     166.214  18.414  79.0480  0.00  0.00     0.000 C
ATOM     40  C2  IDS C   3     166.415  16.891  79.1080  0.00  0.00     0.000 C
ATOM     41  C3  IDS C   3     165.981  16.224  77.8040  0.00  0.00     0.000 C
ATOM     42  C4  IDS C   3     166.566  16.944  76.5960  0.00  0.00     0.000 C
ATOM     43  C5  IDS C   3     166.258  18.443  76.6850  0.00  0.00     0.000 C
ATOM     44  O5  IDS C   3     166.818  18.964  77.8890  0.00  0.00     0.000 O
ATOM     45   O  IDS C   3     164.555  16.227  77.7230  0.00  0.00     0.000 O
ATOM     47  HD  IDS C   3     163.940  16.836  77.7640  0.00  0.00     0.000 HD
BRANCH 40 47
ATOM     47   O  IDS C   3     167.845  16.563  79.3210  0.00  0.00     0.000 O
ATOM     48   S  IDS C   3     168.341  16.061  80.7560  0.00  0.00     0.000 S
ATOM     49   O  IDS C   3     168.413  17.243  81.5880  0.00  0.00     0.000 OA
ATOM     50   O  IDS C   3     169.640  15.468  80.5240  0.00  0.00     0.000 OA
ATOM     51   O  IDS C   3     167.361  15.114  81.2170  0.00  0.00     0.000 OA
ENDBRANCH 40 47
BRANCH 43 52
ATOM     52   C  IDS C   3     166.786  19.221  75.5010  0.00  0.00     0.000 C
ATOM     53   O  IDS C   3     166.072  19.423  74.5450  0.00  0.00     0.000 OA
ATOM     54   O  IDS C   3     167.916  19.637  75.5150  0.00  0.00     0.000 OA
ENDBRANCH 43 52
BRANCH 39 55
ATOM     55  O4  SGN C   4     165.088  19.025  79.4150  0.00  0.00     0.000 O
BRANCH 55 59
ATOM     56  C1  SGN C   4     165.654  21.918  82.3840  0.00  0.00     0.000 C
ATOM     57  C2  SGN C   4     165.039  20.582  82.8340  0.00  0.00     0.000 C
ATOM     58  C3  SGN C   4     165.251  19.504  81.7750  0.00  0.00     0.000 C
ATOM     59  C4  SGN C   4     164.789  19.996  80.4080  0.00  0.00     0.000 C
ATOM     60  C5  SGN C   4     165.508  21.306  80.0890  0.00  0.00     0.000 C
ATOM     61  O5  SGN C   4     165.161  22.271  81.1020  0.00  0.00     0.000 O
ATOM     62   O  SGN C   4     164.549  18.326  82.1470  0.00  0.00     0.000 O
ATOM     64  HD  SGN C   4     164.737  18.713  82.8990  0.00  0.00     0.000 HD
BRANCH 57 66
ATOM     64   N  SGN C   4     164.499  21.190  84.0610  0.00  0.00     0.000 N
ATOM     66  HD  SGN C   4     164.008  20.928  84.7250  0.00  0.00     0.000 HD
ATOM     66   S  SGN C   4     164.760  20.516  85.4840  0.00  0.00     0.000 S
ATOM     67   O  SGN C   4     164.070  21.288  86.4520  0.00  0.00     0.000 OA
ATOM     68   O  SGN C   4     164.460  19.132  85.3500  0.00  0.00     0.000 OA
ATOM     69   O  SGN C   4     166.300  20.676  85.6930  0.00  0.00     0.000 OA
ENDBRANCH 57 66
BRANCH 60 70
ATOM     70   C  SGN C   4     165.138  21.893  78.7440  0.00  0.00     0.000 C
ATOM     71   O  SGN C   4     165.436  25.487  77.6940  0.00  0.00     0.000 OA
ATOM     72   O  SGN C   4     166.923  23.662  77.1410  0.00  0.00     0.000 OA
ATOM     73   O  SGN C   4     165.196  23.332  78.7890  0.00  0.00     0.000 O
ATOM     74   S  SGN C   4     165.566  24.074  77.4220  0.00  0.00     0.000 S
ATOM     75   O  SGN C   4     164.602  23.580  76.4590  0.00  0.00     0.000 OA
ENDBRANCH 60 70
BRANCH 56 76
ATOM     76  O4  IDS C   5     166.838  22.537  82.5490  0.00  0.00     0.000 O
BRANCH 76 80
ATOM     77  C1  IDS C   5     166.750  26.333  81.0510  0.00  0.00     0.000 C
ATOM     78  C2  IDS C   5     168.009  25.541  80.7000  0.00  0.00     0.000 C
ATOM     79  C3  IDS C   5     167.761  24.060  80.9080  0.00  0.00     0.000 C
ATOM     80  C4  IDS C   5     167.531  23.784  82.3900  0.00  0.00     0.000 C
ATOM     81  C5  IDS C   5     166.715  24.932  83.0010  0.00  0.00     0.000 C
ATOM     82  O5  IDS C   5     165.959  25.605  81.9900  0.00  0.00     0.000 O
BRANCH 78 83
ATOM     83   O  IDS C   5     168.386  25.759  79.2840  0.00  0.00     0.000 O
ATOM     84   S  IDS C   5     169.818  26.367  78.9290  0.00  0.00     0.000 S
ATOM     85   O  IDS C   5     169.977  27.522  79.7720  0.00  0.00     0.000 OA
ATOM     86   O  IDS C   5     170.760  25.314  79.2240  0.00  0.00     0.000 OA
ATOM     87   O  IDS C   5     169.768  26.690  77.5240  0.00  0.00     0.000 OA
ENDBRANCH 78 83
BRANCH 81 88
ATOM     88   C  IDS C   5     165.745  24.491  84.0820  0.00  0.00     0.000 C
ATOM     89   O  IDS C   5     164.562  24.512  83.8690  0.00  0.00     0.000 OA
ATOM     90   O  IDS C   5     166.169  24.120  85.1520  0.00  0.00     0.000 OA
ENDBRANCH 81 88
ENDBRANCH 76 80
ENDBRANCH 56 76
ENDBRANCH 55 59
ENDBRANCH 39 55
ENDBRANCH 38 42
ENDBRANCH 18 38
ENDBRANCH 17 21
ENDBRANCH 1 17
TORSDOF 18
ENDMDL
MODEL 3
REMARK VINA RESULT:      -8.7     41.466     47.121
ROOT
ATOM      1  C1  IDS C   1     134.612  33.502  45.5590  0.00  0.00     0.000 C
ATOM      2  C2  IDS C   1     133.994  32.132  45.8510  0.00  0.00     0.000 C
ATOM      3  C3  IDS C   1     132.574  32.053  45.3080  0.00  0.00     0.000 C
ATOM      4  C4  IDS C   1     131.702  33.139  45.9240  0.00  0.00     0.000 C
ATOM      5  C5  IDS C   1     132.497  34.434  46.0580  0.00  0.00     0.000 C
ATOM      6  O5  IDS C   1     133.606  34.425  45.1600  0.00  0.00     0.000 O
ATOM      7   O  IDS C   1     132.019  30.761  45.5890  0.00  0.00     0.000 O
ATOM      9  HD  IDS C   1     132.649  30.171  45.5150  0.00  0.00     0.000 HD
ENDROOT
BRANCH 2 9
ATOM      9   O  IDS C   1     134.778  31.053  45.2090  0.00  0.00     0.000 O
ATOM     10   S  IDS C   1     135.352  29.864  46.1040  0.00  0.00     0.000 S
ATOM     11   O  IDS C   1     136.046  28.982  45.1920  0.00  0.00     0.000 OA
ATOM     12   O  IDS C   1     136.237  30.491  47.0640  0.00  0.00     0.000 OA
ATOM     13   O  IDS C   1     134.202  29.241  46.7200  0.00  0.00     0.000 OA
ENDBRANCH 2 9
BRANCH 5 14
ATOM     14   C  IDS C   1     131.648  35.660  45.7620  0.00  0.00     0.000 C
ATOM     15   O  IDS C   1     131.891  36.328  44.7870  0.00  0.00     0.000 OA
ATOM     16   O  IDS C   1     130.733  35.958  46.5110  0.00  0.00     0.000 OA
ENDBRANCH 5 14
BRANCH 1 17
ATOM     17  O4  SGN C   2     135.868  33.658  45.1310  0.00  0.00     0.000 O
BRANCH 17 21
ATOM     18  C1  SGN C   2     138.800  34.564  42.2840  0.00  0.00     0.000 C
ATOM     19  C2  SGN C   2     137.358  34.947  41.9300  0.00  0.00     0.000 C
ATOM     20  C3  SGN C   2     136.495  34.950  43.1980  0.00  0.00     0.000 C
ATOM     21  C4  SGN C   2     136.622  33.615  43.9230  0.00  0.00     0.000 C
ATOM     22  C5  SGN C   2     138.095  33.350  44.2230  0.00  0.00     0.000 C
ATOM     23  O5  SGN C   2     138.852  33.343  42.9910  0.00  0.00     0.000 O
ATOM     24   O  SGN C   2     135.144  35.217  42.8610  0.00  0.00     0.000 O
ATOM     26  HD  SGN C   2     135.873  35.278  43.3240  0.00  0.00     0.000 HD
BRANCH 19 28
ATOM     26   N  SGN C   2     136.694  35.617  40.8030  0.00  0.00     0.000 N
ATOM     28  HD  SGN C   2     136.042  35.241  41.2320  0.00  0.00     0.000 HD
ATOM     28   O  SGN C   2     136.608  37.529  39.2040  0.00  0.00     0.000 OA
ATOM     29   S  SGN C   2     136.519  37.214  40.7350  0.00  0.00     0.000 S
ATOM     30   O  SGN C   2     135.215  37.518  41.1840  0.00  0.00     0.000 OA
ATOM     31   O  SGN C   2     137.640  37.798  41.3850  0.00  0.00     0.000 OA
ENDBRANCH 19 28
BRANCH 22 32
ATOM     32   C  SGN C   2     138.339  32.019  44.8920  0.00  0.00     0.000 C
ATOM     33   S  SGN C   2     139.874  29.967  44.6220  0.00  0.00     0.000 S
ATOM     34   O  SGN C   2     139.110  29.456  43.5110  0.00  0.00     0.000 OA
ATOM     35   O  SGN C   2     141.304  29.789  44.4740  0.00  0.00     0.000 OA
ATOM     36   O  SGN C   2     139.376  29.564  45.9150  0.00  0.00     0.000 OA
ATOM     37   O  SGN C   2     139.650  31.546  44.5590  0.00  0.00     0.000 O
ENDBRANCH 22 32
BRANCH 18 38
ATOM     38  O4  IDS C   3     139.776  35.295  42.8280  0.00  0.00     0.000 O
BRANCH 38 42
ATOM     39  C1  IDS C   3     142.883  35.911  44.2750  0.00  0.00     0.000 C
ATOM     40  C2  IDS C   3     141.661  36.775  44.6250  0.00  0.00     0.000 C
ATOM     41  C3  IDS C   3     140.985  37.312  43.3640  0.00  0.00     0.000 C
ATOM     42  C4  IDS C   3     140.769  36.205  42.3410  0.00  0.00     0.000 C
ATOM     43  C5  IDS C   3     142.087  35.459  42.0970  0.00  0.00     0.000 C
ATOM     44  O5  IDS C   3     142.548  34.909  43.3290  0.00  0.00     0.000 O
ATOM     45   O  IDS C   3     141.794  38.343  42.7950  0.00  0.00     0.000 O
ATOM     47  HD  IDS C   3     142.617  38.400  42.5320  0.00  0.00     0.000 HD
BRANCH 40 47
ATOM     47   O  IDS C   3     140.655  35.978  45.3650  0.00  0.00     0.000 O
ATOM     48   S  IDS C   3     140.819  35.753  46.9400  0.00  0.00     0.000 S
ATOM     49   O  IDS C   3     141.841  34.740  47.0930  0.00  0.00     0.000 OA
ATOM     50   O  IDS C   3     139.522  35.305  47.3980  0.00  0.00     0.000 OA
ATOM     51   O  IDS C   3     141.206  37.023  47.4940  0.00  0.00     0.000 OA
ENDBRANCH 40 47
BRANCH 43 52
ATOM     52   C  IDS C   3     141.955  34.359  41.0670  0.00  0.00     0.000 C
ATOM     53   O  IDS C   3     142.147  33.208  41.3860  0.00  0.00     0.000 OA
ATOM     54   O  IDS C   3     141.660  34.636  39.9320  0.00  0.00     0.000 OA
ENDBRANCH 43 52
BRANCH 39 55
ATOM     55  O4  SGN C   4     144.117  36.397  44.1360  0.00  0.00     0.000 O
BRANCH 55 59
ATOM     56  C1  SGN C   4     147.968  34.856  44.6790  0.00  0.00     0.000 C
ATOM     57  C2  SGN C   4     146.851  34.229  45.5300  0.00  0.00     0.000 C
ATOM     58  C3  SGN C   4     145.477  34.586  44.9680  0.00  0.00     0.000 C
ATOM     59  C4  SGN C   4     145.357  36.091  44.7560  0.00  0.00     0.000 C
ATOM     60  C5  SGN C   4     146.511  36.555  43.8700  0.00  0.00     0.000 C
ATOM     61  O5  SGN C   4     147.749  36.251  44.5430  0.00  0.00     0.000 O
ATOM     62   O  SGN C   4     144.466  34.122  45.8520  0.00  0.00     0.000 O
ATOM     64  HD  SGN C   4     145.128  33.578  45.9760  0.00  0.00     0.000 HD
BRANCH 57 66
ATOM     64   N  SGN C   4     147.751  33.713  46.5740  0.00  0.00     0.000 N
ATOM     66  HD  SGN C   4     147.668  33.237  47.2920  0.00  0.00     0.000 HD
ATOM     66   S  SGN C   4     147.776  32.157  46.9270  0.00  0.00     0.000 S
ATOM     67   O  SGN C   4     148.686  31.980  48.0000  0.00  0.00     0.000 OA
ATOM     68   O  SGN C   4     146.424  31.744  47.0820  0.00  0.00     0.000 OA
ATOM     69   O  SGN C   4     148.358  31.493  45.6380  0.00  0.00     0.000 OA
ENDBRANCH 57 66
BRANCH 60 70
ATOM     70   C  SGN C   4     146.497  38.040  43.5780  0.00  0.00     0.000 C
ATOM     71   O  SGN C   4     144.029  39.895  41.4400  0.00  0.00     0.000 OA
ATOM     72   O  SGN C   4     144.093  39.779  43.8540  0.00  0.00     0.000 OA
ATOM     73   O  SGN C   4     145.529  38.344  42.5560  0.00  0.00     0.000 O
ATOM     74   S  SGN C   4     144.851  39.791  42.6230  0.00  0.00     0.000 S
ATOM     75   O  SGN C   4     145.962  40.721  42.6390  0.00  0.00     0.000 OA
ENDBRANCH 60 70
BRANCH 56 76
ATOM     76  O4  IDS C   5     148.722  34.459  43.6370  0.00  0.00     0.000 O
BRANCH 76 80
ATOM     77  C1  IDS C   5     147.562  35.724  39.9340  0.00  0.00     0.000 C
ATOM     78  C2  IDS C   5     147.208  34.271  40.2470  0.00  0.00     0.000 C
ATOM     79  C3  IDS C   5     147.272  34.037  41.7440  0.00  0.00     0.000 C
ATOM     80  C4  IDS C   5     148.710  34.198  42.2260  0.00  0.00     0.000 C
ATOM     81  C5  IDS C   5     149.377  35.351  41.4610  0.00  0.00     0.000 C
ATOM     82  O5  IDS C   5     148.391  36.261  40.9650  0.00  0.00     0.000 O
BRANCH 78 83
ATOM     83   O  IDS C   5     145.838  33.953  39.7810  0.00  0.00     0.000 O
ATOM     84   S  IDS C   5     145.609  33.434  38.2900  0.00  0.00     0.000 S
ATOM     85   O  IDS C   5     146.332  34.341  37.4400  0.00  0.00     0.000 OA
ATOM     86   O  IDS C   5     146.140  32.092  38.2700  0.00  0.00     0.000 OA
ATOM     87   O  IDS C   5     144.182  33.470  38.0790  0.00  0.00     0.000 OA
ENDBRANCH 78 83
BRANCH 81 88
ATOM     88   C  IDS C   5     150.362  36.152  42.2930  0.00  0.00     0.000 C
ATOM     89   O  IDS C   5     150.103  37.284  42.6020  0.00  0.00     0.000 OA
ATOM     90   O  IDS C   5     151.404  35.645  42.6400  0.00  0.00     0.000 OA
ENDBRANCH 81 88
ENDBRANCH 76 80
ENDBRANCH 56 76
ENDBRANCH 55 59
ENDBRANCH 39 55
ENDBRANCH 38 42
ENDBRANCH 18 38
ENDBRANCH 17 21
ENDBRANCH 1 17
TORSDOF 18
ENDMDL
MODEL 4
REMARK VINA RESULT:      -8.4     23.389     29.006
ROOT
ATOM      1  C1  IDS C   1     148.346  35.861  71.8980  0.00  0.00     0.000 C
ATOM      2  C2  IDS C   1     149.447  36.898  72.1400  0.00  0.00     0.000 C
ATOM      3  C3  IDS C   1     148.993  38.281  71.6990  0.00  0.00     0.000 C
ATOM      4  C4  IDS C   1     148.621  38.279  70.2230  0.00  0.00     0.000 C
ATOM      5  C5  IDS C   1     147.893  36.986  69.8680  0.00  0.00     0.000 C
ATOM      6  O5  IDS C   1     147.342  36.395  71.0450  0.00  0.00     0.000 O
ATOM      7   O  IDS C   1     150.038  39.234  71.9400  0.00  0.00     0.000 O
ATOM      9  HD  IDS C   1     150.440  39.017  72.6750  0.00  0.00     0.000 HD
ENDROOT
BRANCH 2 9
ATOM      9   O  IDS C   1     149.788  36.977  73.5780  0.00  0.00     0.000 O
ATOM     10   S  IDS C   1     151.277  36.653  74.0500  0.00  0.00     0.000 S
ATOM     11   O  IDS C   1     151.286  36.832  75.4850  0.00  0.00     0.000 OA
ATOM     12   O  IDS C   1     151.522  35.282  73.6500  0.00  0.00     0.000 OA
ATOM     13   O  IDS C   1     152.125  37.601  73.3610  0.00  0.00     0.000 OA
ENDBRANCH 2 9
BRANCH 5 14
ATOM     14   C  IDS C   1     146.769  37.216  68.8720  0.00  0.00     0.000 C
ATOM     15   O  IDS C   1     146.602  38.318  68.4090  0.00  0.00     0.000 OA
ATOM     16   O  IDS C   1     146.045  36.288  68.5520  0.00  0.00     0.000 OA
ENDBRANCH 5 14
BRANCH 1 17
ATOM     17  O4  SGN C   2     148.033  34.912  72.7840  0.00  0.00     0.000 O
BRANCH 17 21
ATOM     18  C1  SGN C   2     145.951  33.570  76.1590  0.00  0.00     0.000 C
ATOM     19  C2  SGN C   2     145.697  35.020  75.7270  0.00  0.00     0.000 C
ATOM     20  C3  SGN C   2     146.174  35.222  74.2840  0.00  0.00     0.000 C
ATOM     21  C4  SGN C   2     147.626  34.779  74.1440  0.00  0.00     0.000 C
ATOM     22  C5  SGN C   2     147.749  33.327  74.5970  0.00  0.00     0.000 C
ATOM     23  O5  SGN C   2     147.301  33.203  75.9660  0.00  0.00     0.000 O
ATOM     24   O  SGN C   2     146.021  36.582  73.9120  0.00  0.00     0.000 O
ATOM     26  HD  SGN C   2     145.988  35.723  73.8090  0.00  0.00     0.000 HD
BRANCH 19 28
ATOM     26   N  SGN C   2     144.459  35.332  76.4550  0.00  0.00     0.000 N
ATOM     28  HD  SGN C   2     144.916  34.860  77.0190  0.00  0.00     0.000 HD
ATOM     28   O  SGN C   2     142.590  36.920  76.9080  0.00  0.00     0.000 OA
ATOM     29   S  SGN C   2     144.147  36.803  77.0260  0.00  0.00     0.000 S
ATOM     30   O  SGN C   2     144.498  36.812  78.3940  0.00  0.00     0.000 OA
ATOM     31   O  SGN C   2     144.741  37.744  76.1410  0.00  0.00     0.000 OA
ENDBRANCH 19 28
BRANCH 22 32
ATOM     32   C  SGN C   2     149.164  32.804  74.5530  0.00  0.00     0.000 C
ATOM     33   S  SGN C   2     150.666  31.404  72.9950  0.00  0.00     0.000 S
ATOM     34   O  SGN C   2     150.045  30.167  73.3960  0.00  0.00     0.000 OA
ATOM     35   O  SGN C   2     150.987  31.463  71.5840  0.00  0.00     0.000 OA
ATOM     36   O  SGN C   2     151.751  31.823  73.8500  0.00  0.00     0.000 OA
ATOM     37   O  SGN C   2     149.524  32.501  73.2000  0.00  0.00     0.000 O
ENDBRANCH 22 32
BRANCH 18 38
ATOM     38  O4  IDS C   3     145.269  32.456  75.8820  0.00  0.00     0.000 O
BRANCH 38 42
ATOM     39  C1  IDS C   3     143.172  29.676  75.8770  0.00  0.00     0.000 C
ATOM     40  C2  IDS C   3     144.654  29.551  75.4870  0.00  0.00     0.000 C
ATOM     41  C3  IDS C   3     145.028  30.564  74.4060  0.00  0.00     0.000 C
ATOM     42  C4  IDS C   3     144.530  31.958  74.7610  0.00  0.00     0.000 C
ATOM     43  C5  IDS C   3     143.036  31.904  75.1030  0.00  0.00     0.000 C
ATOM     44  O5  IDS C   3     142.840  31.015  76.2010  0.00  0.00     0.000 O
ATOM     45   O  IDS C   3     144.465  30.154  73.1580  0.00  0.00     0.000 O
ATOM     47  HD  IDS C   3     143.668  29.961  72.8810  0.00  0.00     0.000 HD
BRANCH 40 47
ATOM     47   O  IDS C   3     145.524  29.809  76.6590  0.00  0.00     0.000 O
ATOM     48   S  IDS C   3     147.079  29.443  76.5920  0.00  0.00     0.000 S
ATOM     49   O  IDS C   3     147.156  28.007  76.7590  0.00  0.00     0.000 OA
ATOM     50   O  IDS C   3     147.687  30.161  77.6910  0.00  0.00     0.000 OA
ATOM     51   O  IDS C   3     147.544  29.880  75.3030  0.00  0.00     0.000 OA
ENDBRANCH 40 47
BRANCH 43 52
ATOM     52   C  IDS C   3     142.462  33.263  75.4400  0.00  0.00     0.000 C
ATOM     53   O  IDS C   3     142.030  33.476  76.5500  0.00  0.00     0.000 OA
ATOM     54   O  IDS C   3     142.440  34.127  74.6010  0.00  0.00     0.000 OA
ENDBRANCH 43 52
BRANCH 39 55
ATOM     55  O4  SGN C   4     142.191  29.003  75.2750  0.00  0.00     0.000 O
BRANCH 55 59
ATOM     56  C1  SGN C   4     138.867  28.325  77.7240  0.00  0.00     0.000 C
ATOM     57  C2  SGN C   4     139.843  27.149  77.5490  0.00  0.00     0.000 C
ATOM     58  C3  SGN C   4     141.176  27.632  76.9820  0.00  0.00     0.000 C
ATOM     59  C4  SGN C   4     140.954  28.475  75.7310  0.00  0.00     0.000 C
ATOM     60  C5  SGN C   4     139.995  29.614  76.0720  0.00  0.00     0.000 C
ATOM     61  O5  SGN C   4     138.746  29.040  76.5050  0.00  0.00     0.000 O
ATOM     62   O  SGN C   4     142.003  26.513  76.6910  0.00  0.00     0.000 O
ATOM     64  HD  SGN C   4     141.495  26.244  77.3390  0.00  0.00     0.000 HD
BRANCH 57 66
ATOM     64   N  SGN C   4     139.617  26.616  78.9020  0.00  0.00     0.000 N
ATOM     66  HD  SGN C   4     138.971  26.216  79.3170  0.00  0.00     0.000 HD
ATOM     66   S  SGN C   4     139.151  25.104  79.1110  0.00  0.00     0.000 S
ATOM     67   O  SGN C   4     138.959  24.908  80.5020  0.00  0.00     0.000 OA
ATOM     68   O  SGN C   4     138.069  24.875  78.2170  0.00  0.00     0.000 OA
ATOM     69   O  SGN C   4     140.381  24.267  78.6340  0.00  0.00     0.000 OA
ENDBRANCH 57 66
BRANCH 60 70
ATOM     70   C  SGN C   4     139.701  30.534  74.9060  0.00  0.00     0.000 C
ATOM     71   O  SGN C   4     136.766  32.850  74.5450  0.00  0.00     0.000 OA
ATOM     72   O  SGN C   4     139.027  33.424  75.1820  0.00  0.00     0.000 OA
ATOM     73   O  SGN C   4     138.385  31.106  75.0340  0.00  0.00     0.000 O
ATOM     74   S  SGN C   4     138.174  32.558  74.3990  0.00  0.00     0.000 S
ATOM     75   O  SGN C   4     138.596  32.425  73.0200  0.00  0.00     0.000 OA
ENDBRANCH 60 70
BRANCH 56 76
ATOM     76  O4  IDS C   5     138.544  29.166  78.7230  0.00  0.00     0.000 O
BRANCH 76 80
ATOM     77  C1  IDS C   5     137.701  30.935  82.3030  0.00  0.00     0.000 C
ATOM     78  C2  IDS C   5     137.177  29.506  82.1630  0.00  0.00     0.000 C
ATOM     79  C3  IDS C   5     137.897  28.804  81.0280  0.00  0.00     0.000 C
ATOM     80  C4  IDS C   5     137.545  29.477  79.7050  0.00  0.00     0.000 C
ATOM     81  C5  IDS C   5     137.454  30.995  79.9160  0.00  0.00     0.000 C
ATOM     82  O5  IDS C   5     138.222  31.392  81.0550  0.00  0.00     0.000 O
BRANCH 78 83
ATOM     83   O  IDS C   5     137.406  28.739  83.4090  0.00  0.00     0.000 O
ATOM     84   S  IDS C   5     136.176  28.041  84.1480  0.00  0.00     0.000 S
ATOM     85   O  IDS C   5     135.152  29.046  84.2470  0.00  0.00     0.000 OA
ATOM     86   O  IDS C   5     135.805  26.933  83.3000  0.00  0.00     0.000 OA
ATOM     87   O  IDS C   5     136.682  27.615  85.4300  0.00  0.00     0.000 OA
ENDBRANCH 78 83
BRANCH 81 88
ATOM     88   C  IDS C   5     137.938  31.811  78.7310  0.00  0.00     0.000 C
ATOM     89   O  IDS C   5     137.173  32.099  77.8500  0.00  0.00     0.000 OA
ATOM     90   O  IDS C   5     139.092  32.169  78.6820  0.00  0.00     0.000 OA
ENDBRANCH 81 88
ENDBRANCH 76 80
ENDBRANCH 56 76
ENDBRANCH 55 59
ENDBRANCH 39 55
ENDBRANCH 38 42
ENDBRANCH 18 38
ENDBRANCH 17 21
ENDBRANCH 1 17
TORSDOF 18
ENDMDL
MODEL 5
REMARK VINA RESULT:      -8.2     23.530     29.296
ROOT
ATOM      1  C1  IDS C   1     147.912  35.075  72.3830  0.00  0.00     0.000 C
ATOM      2  C2  IDS C   1     149.434  35.075  72.2100  0.00  0.00     0.000 C
ATOM      3  C3  IDS C   1     149.991  36.486  72.3340  0.00  0.00     0.000 C
ATOM      4  C4  IDS C   1     149.367  37.403  71.2910  0.00  0.00     0.000 C
ATOM      5  C5  IDS C   1     147.885  37.079  71.1300  0.00  0.00     0.000 C
ATOM      6  O5  IDS C   1     147.402  36.398  72.2880  0.00  0.00     0.000 O
ATOM      7   O  IDS C   1     151.417  36.460  72.1730  0.00  0.00     0.000 O
ATOM      9  HD  IDS C   1     151.719  35.736  72.5400  0.00  0.00     0.000 HD
ENDROOT
BRANCH 2 9
ATOM      9   O  IDS C   1     150.083  34.246  73.2510  0.00  0.00     0.000 O
ATOM     10   S  IDS C   1     150.966  32.991  72.8160  0.00  0.00     0.000 S
ATOM     11   O  IDS C   1     151.462  32.411  74.0450  0.00  0.00     0.000 OA
ATOM     12   O  IDS C   1     150.065  32.111  72.1000  0.00  0.00     0.000 OA
ATOM     13   O  IDS C   1     152.020  33.521  71.9800  0.00  0.00     0.000 OA
ENDBRANCH 2 9
BRANCH 5 14
ATOM     14   C  IDS C   1     147.046  38.328  70.9200  0.00  0.00     0.000 C
ATOM     15   O  IDS C   1     147.585  39.407  70.8830  0.00  0.00     0.000 OA
ATOM     16   O  IDS C   1     145.836  38.231  70.7950  0.00  0.00     0.000 OA
ENDBRANCH 5 14
BRANCH 1 17
ATOM     17  O4  SGN C   2     147.263  34.160  73.1090  0.00  0.00     0.000 O
BRANCH 17 21
ATOM     18  C1  SGN C   2     144.787  32.979  76.2720  0.00  0.00     0.000 C
ATOM     19  C2  SGN C   2     144.946  34.488  76.0510  0.00  0.00     0.000 C
ATOM     20  C3  SGN C   2     145.508  34.752  74.6490  0.00  0.00     0.000 C
ATOM     21  C4  SGN C   2     146.791  33.956  74.4380  0.00  0.00     0.000 C
ATOM     22  C5  SGN C   2     146.504  32.477  74.6800  0.00  0.00     0.000 C
ATOM     23  O5  SGN C   2     145.995  32.290  76.0210  0.00  0.00     0.000 O
ATOM     24   O  SGN C   2     145.737  36.140  74.4740  0.00  0.00     0.000 O
ATOM     26  HD  SGN C   2     145.478  35.344  74.2510  0.00  0.00     0.000 HD
BRANCH 19 28
ATOM     26   N  SGN C   2     143.828  35.024  76.8400  0.00  0.00     0.000 N
ATOM     28  HD  SGN C   2     144.147  34.391  77.3380  0.00  0.00     0.000 HD
ATOM     28   O  SGN C   2     142.427  36.976  77.5090  0.00  0.00     0.000 OA
ATOM     29   S  SGN C   2     143.901  36.453  77.5740  0.00  0.00     0.000 S
ATOM     30   O  SGN C   2     144.239  36.220  78.9250  0.00  0.00     0.000 OA
ATOM     31   O  SGN C   2     144.720  37.303  76.7810  0.00  0.00     0.000 OA
ENDBRANCH 19 28
BRANCH 22 32
ATOM     32   C  SGN C   2     147.728  31.602  74.5540  0.00  0.00     0.000 C
ATOM     33   S  SGN C   2     149.085  29.949  75.9920  0.00  0.00     0.000 S
ATOM     34   O  SGN C   2     149.717  31.009  76.7360  0.00  0.00     0.000 OA
ATOM     35   O  SGN C   2     148.743  28.797  76.7990  0.00  0.00     0.000 OA
ATOM     36   O  SGN C   2     149.762  29.609  74.7620  0.00  0.00     0.000 OA
ATOM     37   O  SGN C   2     147.683  30.566  75.5420  0.00  0.00     0.000 O
ENDBRANCH 22 32
BRANCH 18 38
ATOM     38  O4  IDS C   3     143.841  32.140  75.8430  0.00  0.00     0.000 O
BRANCH 38 42
ATOM     39  C1  IDS C   3     140.872  30.320  75.8780  0.00  0.00     0.000 C
ATOM     40  C2  IDS C   3     141.684  30.535  77.1650  0.00  0.00     0.000 C
ATOM     41  C3  IDS C   3     143.144  30.127  76.9730  0.00  0.00     0.000 C
ATOM     42  C4  IDS C   3     143.719  30.722  75.6940  0.00  0.00     0.000 C
ATOM     43  C5  IDS C   3     142.798  30.397  74.5110  0.00  0.00     0.000 C
ATOM     44  O5  IDS C   3     141.502  30.935  74.7670  0.00  0.00     0.000 O
ATOM     45   O  IDS C   3     143.234  28.702  76.9240  0.00  0.00     0.000 O
ATOM     47  HD  IDS C   3     142.864  28.081  76.4470  0.00  0.00     0.000 HD
BRANCH 40 47
ATOM     47   O  IDS C   3     141.670  31.965  77.5560  0.00  0.00     0.000 O
ATOM     48   S  IDS C   3     141.755  32.368  79.1020  0.00  0.00     0.000 S
ATOM     49   O  IDS C   3     140.435  32.131  79.6470  0.00  0.00     0.000 OA
ATOM     50   O  IDS C   3     142.113  33.770  79.1100  0.00  0.00     0.000 OA
ATOM     51   O  IDS C   3     142.760  31.523  79.6880  0.00  0.00     0.000 OA
ENDBRANCH 40 47
BRANCH 43 52
ATOM     52   C  IDS C   3     143.321  30.934  73.1970  0.00  0.00     0.000 C
ATOM     53   O  IDS C   3     143.513  30.181  72.2710  0.00  0.00     0.000 OA
ATOM     54   O  IDS C   3     143.544  32.113  73.0800  0.00  0.00     0.000 OA
ENDBRANCH 43 52
BRANCH 39 55
ATOM     55  O4  SGN C   4     140.242  29.183  75.5840  0.00  0.00     0.000 O
BRANCH 55 59
ATOM     56  C1  SGN C   4     137.797  27.769  78.6700  0.00  0.00     0.000 C
ATOM     57  C2  SGN C   4     138.888  26.810  78.1640  0.00  0.00     0.000 C
ATOM     58  C3  SGN C   4     139.934  27.564  77.3470  0.00  0.00     0.000 C
ATOM     59  C4  SGN C   4     139.267  28.408  76.2670  0.00  0.00     0.000 C
ATOM     60  C5  SGN C   4     138.240  29.326  76.9260  0.00  0.00     0.000 C
ATOM     61  O5  SGN C   4     137.256  28.505  77.5850  0.00  0.00     0.000 O
ATOM     62   O  SGN C   4     140.844  26.638  76.7690  0.00  0.00     0.000 O
ATOM     64  HD  SGN C   4     140.567  26.247  77.4910  0.00  0.00     0.000 HD
BRANCH 57 66
ATOM     64   N  SGN C   4     138.181  25.667  78.7630  0.00  0.00     0.000 N
ATOM     66  HD  SGN C   4     138.272  24.806  78.7650  0.00  0.00     0.000 HD
ATOM     66   S  SGN C   4     138.968  24.600  79.6500  0.00  0.00     0.000 S
ATOM     67   O  SGN C   4     138.042  23.597  80.0310  0.00  0.00     0.000 OA
ATOM     68   O  SGN C   4     140.134  24.234  78.9220  0.00  0.00     0.000 OA
ATOM     69   O  SGN C   4     139.401  25.413  80.9120  0.00  0.00     0.000 OA
ENDBRANCH 57 66
BRANCH 60 70
ATOM     70   C  SGN C   4     137.512  30.227  75.9510  0.00  0.00     0.000 C
ATOM     71   O  SGN C   4     137.177  33.962  76.1520  0.00  0.00     0.000 OA
ATOM     72   O  SGN C   4     138.684  32.691  74.7530  0.00  0.00     0.000 OA
ATOM     73   O  SGN C   4     137.425  31.567  76.4720  0.00  0.00     0.000 O
ATOM     74   S  SGN C   4     137.391  32.750  75.3960  0.00  0.00     0.000 S
ATOM     75   O  SGN C   4     136.291  32.417  74.5140  0.00  0.00     0.000 OA
ENDBRANCH 60 70
BRANCH 56 76
ATOM     76  O4  IDS C   5     137.591  28.486  79.7910  0.00  0.00     0.000 O
BRANCH 76 80
ATOM     77  C1  IDS C   5     137.340  30.102  83.5300  0.00  0.00     0.000 C
ATOM     78  C2  IDS C   5     137.320  28.574  83.4970  0.00  0.00     0.000 C
ATOM     79  C3  IDS C   5     137.850  28.081  82.1640  0.00  0.00     0.000 C
ATOM     80  C4  IDS C   5     136.900  28.506  81.0490  0.00  0.00     0.000 C
ATOM     81  C5  IDS C   5     136.364  29.914  81.3440  0.00  0.00     0.000 C
ATOM     82  O5  IDS C   5     137.263  30.623  82.2030  0.00  0.00     0.000 O
BRANCH 78 83
ATOM     83   O  IDS C   5     138.170  28.015  84.5740  0.00  0.00     0.000 O
ATOM     84   S  IDS C   5     137.570  26.925  85.5730  0.00  0.00     0.000 S
ATOM     85   O  IDS C   5     136.309  27.452  86.0210  0.00  0.00     0.000 OA
ATOM     86   O  IDS C   5     137.436  25.723  84.7840  0.00  0.00     0.000 OA
ATOM     87   O  IDS C   5     138.541  26.790  86.6320  0.00  0.00     0.000 OA
ENDBRANCH 78 83
BRANCH 81 88
ATOM     88   C  IDS C   5     136.150  30.764  80.1050  0.00  0.00     0.000 C
ATOM     89   O  IDS C   5     135.194  30.569  79.4040  0.00  0.00     0.000 OA
ATOM     90   O  IDS C   5     136.944  31.635  79.8320  0.00  0.00     0.000 OA
ENDBRANCH 81 88
ENDBRANCH 76 80
ENDBRANCH 56 76
ENDBRANCH 55 59
ENDBRANCH 39 55
ENDBRANCH 38 42
ENDBRANCH 18 38
ENDBRANCH 17 21
ENDBRANCH 1 17
TORSDOF 18
ENDMDL
MODEL 6
REMARK VINA RESULT:      -7.9     27.290     34.294
ROOT
ATOM      1  C1  IDS C   1     139.039  43.644  68.5020  0.00  0.00     0.000 C
ATOM      2  C2  IDS C   1     137.689  44.074  69.0820  0.00  0.00     0.000 C
ATOM      3  C3  IDS C   1     136.644  42.985  68.8870  0.00  0.00     0.000 C
ATOM      4  C4  IDS C   1     136.475  42.662  67.4090  0.00  0.00     0.000 C
ATOM      5  C5  IDS C   1     137.831  42.682  66.7110  0.00  0.00     0.000 C
ATOM      6  O5  IDS C   1     138.878  42.505  67.6650  0.00  0.00     0.000 O
ATOM      7   O  IDS C   1     135.391  43.409  69.4430  0.00  0.00     0.000 O
ATOM      9  HD  IDS C   1     135.553  43.868  70.1590  0.00  0.00     0.000 HD
ENDROOT
BRANCH 2 9
ATOM      9   O  IDS C   1     137.799  44.332  70.5360  0.00  0.00     0.000 O
ATOM     10   S  IDS C   1     137.569  45.810  71.0890  0.00  0.00     0.000 S
ATOM     11   O  IDS C   1     137.730  45.726  72.5240  0.00  0.00     0.000 OA
ATOM     12   O  IDS C   1     138.585  46.625  70.4550  0.00  0.00     0.000 OA
ATOM     13   O  IDS C   1     136.226  46.175  70.6950  0.00  0.00     0.000 OA
ENDBRANCH 2 9
BRANCH 5 14
ATOM     14   C  IDS C   1     137.950  41.593  65.6580  0.00  0.00     0.000 C
ATOM     15   O  IDS C   1     136.955  41.189  65.1060  0.00  0.00     0.000 OA
ATOM     16   O  IDS C   1     139.046  41.134  65.3830  0.00  0.00     0.000 OA
ENDBRANCH 5 14
BRANCH 1 17
ATOM     17  O4  SGN C   2     140.200  43.852  69.1280  0.00  0.00     0.000 O
BRANCH 17 21
ATOM     18  C1  SGN C   2     143.088  42.453  71.8170  0.00  0.00     0.000 C
ATOM     19  C2  SGN C   2     141.762  41.682  71.7700  0.00  0.00     0.000 C
ATOM     20  C3  SGN C   2     141.004  42.031  70.4830  0.00  0.00     0.000 C
ATOM     21  C4  SGN C   2     140.847  43.542  70.3600  0.00  0.00     0.000 C
ATOM     22  C5  SGN C   2     142.226  44.192  70.4150  0.00  0.00     0.000 C
ATOM     23  O5  SGN C   2     142.883  43.841  71.6540  0.00  0.00     0.000 O
ATOM     24   O  SGN C   2     139.741  41.387  70.4790  0.00  0.00     0.000 O
ATOM     26  HD  SGN C   2     140.490  41.668  70.1460  0.00  0.00     0.000 HD
BRANCH 19 28
ATOM     26   N  SGN C   2     142.121  40.433  72.4560  0.00  0.00     0.000 N
ATOM     28  HD  SGN C   2     142.519  41.045  72.9220  0.00  0.00     0.000 HD
ATOM     28   O  SGN C   2     141.500  38.115  73.1360  0.00  0.00     0.000 OA
ATOM     29   S  SGN C   2     141.064  39.605  73.3400  0.00  0.00     0.000 S
ATOM     30   O  SGN C   2     141.273  39.956  74.6920  0.00  0.00     0.000 OA
ATOM     31   O  SGN C   2     139.779  39.785  72.7580  0.00  0.00     0.000 OA
ENDBRANCH 19 28
BRANCH 22 32
ATOM     32   C  SGN C   2     142.180  45.700  70.3590  0.00  0.00     0.000 C
ATOM     33   S  SGN C   2     142.388  47.707  71.9620  0.00  0.00     0.000 S
ATOM     34   O  SGN C   2     141.055  47.520  72.4780  0.00  0.00     0.000 OA
ATOM     35   O  SGN C   2     143.351  48.097  72.9700  0.00  0.00     0.000 OA
ATOM     36   O  SGN C   2     142.449  48.513  70.7660  0.00  0.00     0.000 OA
ATOM     37   O  SGN C   2     142.841  46.245  71.5060  0.00  0.00     0.000 O
ENDBRANCH 22 32
BRANCH 18 38
ATOM     38  O4  IDS C   3     144.243  42.220  71.1910  0.00  0.00     0.000 O
BRANCH 38 42
ATOM     39  C1  IDS C   3     147.478  41.292  70.2950  0.00  0.00     0.000 C
ATOM     40  C2  IDS C   3     146.917  42.673  69.9190  0.00  0.00     0.000 C
ATOM     41  C3  IDS C   3     145.572  42.548  69.2050  0.00  0.00     0.000 C
ATOM     42  C4  IDS C   3     144.635  41.611  69.9560  0.00  0.00     0.000 C
ATOM     43  C5  IDS C   3     145.344  40.279  70.2310  0.00  0.00     0.000 C
ATOM     44  O5  IDS C   3     146.518  40.526  71.0030  0.00  0.00     0.000 O
ATOM     45   O  IDS C   3     145.783  42.058  67.8800  0.00  0.00     0.000 O
ATOM     47  HD  IDS C   3     146.173  41.364  67.5380  0.00  0.00     0.000 HD
BRANCH 40 47
ATOM     47   O  IDS C   3     146.702  43.495  71.1330  0.00  0.00     0.000 O
ATOM     48   S  IDS C   3     147.254  44.995  71.1870  0.00  0.00     0.000 S
ATOM     49   O  IDS C   3     148.678  44.886  71.4250  0.00  0.00     0.000 OA
ATOM     50   O  IDS C   3     146.556  45.619  72.2890  0.00  0.00     0.000 OA
ATOM     51   O  IDS C   3     146.945  45.588  69.9130  0.00  0.00     0.000 OA
ENDBRANCH 40 47
BRANCH 43 52
ATOM     52   C  IDS C   3     144.462  39.284  70.9520  0.00  0.00     0.000 C
ATOM     53   O  IDS C   3     144.770  38.892  72.0540  0.00  0.00     0.000 OA
ATOM     54   O  IDS C   3     143.454  38.887  70.4240  0.00  0.00     0.000 OA
ENDBRANCH 43 52
BRANCH 39 55
ATOM     55  O4  SGN C   4     148.265  40.572  69.4960  0.00  0.00     0.000 O
BRANCH 55 59
ATOM     56  C1  SGN C   4     150.814  37.759  71.2540  0.00  0.00     0.000 C
ATOM     57  C2  SGN C   4     151.229  39.235  71.3790  0.00  0.00     0.000 C
ATOM     58  C3  SGN C   4     150.053  40.156  71.0610  0.00  0.00     0.000 C
ATOM     59  C4  SGN C   4     149.419  39.776  69.7280  0.00  0.00     0.000 C
ATOM     60  C5  SGN C   4     149.033  38.299  69.7710  0.00  0.00     0.000 C
ATOM     61  O5  SGN C   4     150.231  37.525  69.9820  0.00  0.00     0.000 O
ATOM     62   O  SGN C   4     150.499  41.505  71.0390  0.00  0.00     0.000 O
ATOM     64  HD  SGN C   4     151.038  41.108  71.5880  0.00  0.00     0.000 HD
BRANCH 57 66
ATOM     64   N  SGN C   4     152.633  38.888  71.6500  0.00  0.00     0.000 N
ATOM     66  HD  SGN C   4     153.368  39.323  71.7920  0.00  0.00     0.000 HD
ATOM     66   S  SGN C   4     153.384  39.484  72.9250  0.00  0.00     0.000 S
ATOM     67   O  SGN C   4     154.725  39.024  72.8820  0.00  0.00     0.000 OA
ATOM     68   O  SGN C   4     153.126  40.882  72.9450  0.00  0.00     0.000 OA
ATOM     69   O  SGN C   4     152.647  38.822  74.1330  0.00  0.00     0.000 OA
ENDBRANCH 57 66
BRANCH 60 70
ATOM     70   C  SGN C   4     148.380  37.802  68.4990  0.00  0.00     0.000 C
ATOM     71   O  SGN C   4     144.701  37.408  67.8590  0.00  0.00     0.000 OA
ATOM     72   O  SGN C   4     146.144  39.196  67.1080  0.00  0.00     0.000 OA
ATOM     73   O  SGN C   4     146.970  37.592  68.7050  0.00  0.00     0.000 O
ATOM     74   S  SGN C   4     146.026  37.792  67.4300  0.00  0.00     0.000 S
ATOM     75   O  SGN C   4     146.581  36.919  66.4160  0.00  0.00     0.000 OA
ENDBRANCH 60 70
BRANCH 56 76
ATOM     76  O4  IDS C   5     150.351  36.815  72.0940  0.00  0.00     0.000 O
BRANCH 76 80
ATOM     77  C1  IDS C   5     150.733  33.315  74.1580  0.00  0.00     0.000 C
ATOM     78  C2  IDS C   5     150.938  33.187  72.6490  0.00  0.00     0.000 C
ATOM     79  C3  IDS C   5     151.212  34.552  72.0500  0.00  0.00     0.000 C
ATOM     80  C4  IDS C   5     149.976  35.434  72.1990  0.00  0.00     0.000 C
ATOM     81  C5  IDS C   5     149.316  35.159  73.5580  0.00  0.00     0.000 C
ATOM     82  O5  IDS C   5     150.271  34.627  74.4810  0.00  0.00     0.000 O
BRANCH 78 83
ATOM     83   O  IDS C   5     152.089  32.304  72.3500  0.00  0.00     0.000 O
ATOM     84   S  IDS C   5     151.835  30.832  71.7900  0.00  0.00     0.000 S
ATOM     85   O  IDS C   5     150.844  30.247  72.6530  0.00  0.00     0.000 OA
ATOM     86   O  IDS C   5     151.371  31.017  70.4350  0.00  0.00     0.000 OA
ATOM     87   O  IDS C   5     153.112  30.164  71.8540  0.00  0.00     0.000 OA
ENDBRANCH 78 83
BRANCH 81 88
ATOM     88   C  IDS C   5     148.694  36.385  74.2000  0.00  0.00     0.000 C
ATOM     89   O  IDS C   5     149.339  37.057  74.9590  0.00  0.00     0.000 OA
ATOM     90   O  IDS C   5     147.549  36.680  73.9410  0.00  0.00     0.000 OA
ENDBRANCH 81 88
ENDBRANCH 76 80
ENDBRANCH 56 76
ENDBRANCH 55 59
ENDBRANCH 39 55
ENDBRANCH 38 42
ENDBRANCH 18 38
ENDBRANCH 17 21
ENDBRANCH 1 17
TORSDOF 18
ENDMDL
MODEL 7
REMARK VINA RESULT:      -7.8     40.303     45.998
ROOT
ATOM      1  C1  IDS C   1     137.539  31.169  45.0620  0.00  0.00     0.000 C
ATOM      2  C2  IDS C   1     136.031  31.428  45.0280  0.00  0.00     0.000 C
ATOM      3  C3  IDS C   1     135.456  31.460  46.4370  0.00  0.00     0.000 C
ATOM      4  C4  IDS C   1     135.724  30.145  47.1560  0.00  0.00     0.000 C
ATOM      5  C5  IDS C   1     137.120  29.635  46.8130  0.00  0.00     0.000 C
ATOM      6  O5  IDS C   1     137.935  30.712  46.3490  0.00  0.00     0.000 O
ATOM      7   O  IDS C   1     134.044  31.708  46.3790  0.00  0.00     0.000 O
ATOM      9  HD  IDS C   1     133.892  32.262  45.7310  0.00  0.00     0.000 HD
ENDROOT
BRANCH 2 9
ATOM      9   O  IDS C   1     135.735  32.733  44.3960  0.00  0.00     0.000 O
ATOM     10   S  IDS C   1     134.763  32.789  43.1330  0.00  0.00     0.000 S
ATOM     11   O  IDS C   1     134.669  34.185  42.7670  0.00  0.00     0.000 OA
ATOM     12   O  IDS C   1     135.401  31.981  42.1140  0.00  0.00     0.000 OA
ATOM     13   O  IDS C   1     133.502  32.240  43.5800  0.00  0.00     0.000 OA
ENDBRANCH 2 9
BRANCH 5 14
ATOM     14   C  IDS C   1     137.805  28.992  48.0070  0.00  0.00     0.000 C
ATOM     15   O  IDS C   1     137.139  28.433  48.8430  0.00  0.00     0.000 OA
ATOM     16   O  IDS C   1     139.019  29.048  48.1110  0.00  0.00     0.000 OA
ENDBRANCH 5 14
BRANCH 1 17
ATOM     17  O4  SGN C   2     138.409  31.830  44.2930  0.00  0.00     0.000 O
BRANCH 17 21
ATOM     18  C1  SGN C   2     140.870  35.065  43.2920  0.00  0.00     0.000 C
ATOM     19  C2  SGN C   2     140.332  35.030  44.7280  0.00  0.00     0.000 C
ATOM     20  C3  SGN C   2     139.826  33.620  45.0580  0.00  0.00     0.000 C
ATOM     21  C4  SGN C   2     138.819  33.164  44.0080  0.00  0.00     0.000 C
ATOM     22  C5  SGN C   2     139.470  33.239  42.6300  0.00  0.00     0.000 C
ATOM     23  O5  SGN C   2     139.911  34.591  42.3700  0.00  0.00     0.000 O
ATOM     24   O  SGN C   2     139.249  33.607  46.3530  0.00  0.00     0.000 O
ATOM     26  HD  SGN C   2     139.726  33.311  45.6940  0.00  0.00     0.000 HD
BRANCH 19 28
ATOM     26   N  SGN C   2     141.189  36.019  45.3950  0.00  0.00     0.000 N
ATOM     28  HD  SGN C   2     140.981  36.399  44.6450  0.00  0.00     0.000 HD
ATOM     28   O  SGN C   2     141.985  37.076  47.5100  0.00  0.00     0.000 OA
ATOM     29   S  SGN C   2     140.686  36.878  46.6580  0.00  0.00     0.000 S
ATOM     30   O  SGN C   2     140.266  38.138  46.1760  0.00  0.00     0.000 OA
ATOM     31   O  SGN C   2     139.779  36.070  47.3960  0.00  0.00     0.000 OA
ENDBRANCH 19 28
BRANCH 22 32
ATOM     32   C  SGN C   2     138.536  32.862  41.5060  0.00  0.00     0.000 C
ATOM     33   S  SGN C   2     138.668  32.133  39.0370  0.00  0.00     0.000 S
ATOM     34   O  SGN C   2     138.938  33.475  38.5840  0.00  0.00     0.000 OA
ATOM     35   O  SGN C   2     139.415  31.119  38.3240  0.00  0.00     0.000 OA
ATOM     36   O  SGN C   2     137.263  31.827  39.1690  0.00  0.00     0.000 OA
ATOM     37   O  SGN C   2     139.246  32.097  40.5250  0.00  0.00     0.000 O
ENDBRANCH 22 32
BRANCH 18 38
ATOM     38  O4  IDS C   3     142.034  34.637  42.7970  0.00  0.00     0.000 O
BRANCH 38 42
ATOM     39  C1  IDS C   3     145.424  34.388  42.0380  0.00  0.00     0.000 C
ATOM     40  C2  IDS C   3     144.706  35.748  42.0220  0.00  0.00     0.000 C
ATOM     41  C3  IDS C   3     143.448  35.699  41.1570  0.00  0.00     0.000 C
ATOM     42  C4  IDS C   3     142.597  34.481  41.4900  0.00  0.00     0.000 C
ATOM     43  C5  IDS C   3     143.461  33.215  41.4410  0.00  0.00     0.000 C
ATOM     44  O5  IDS C   3     144.529  33.342  42.3780  0.00  0.00     0.000 O
ATOM     45   O  IDS C   3     143.822  35.663  39.7780  0.00  0.00     0.000 O
ATOM     47  HD  IDS C   3     144.329  35.153  39.2950  0.00  0.00     0.000 HD
BRANCH 40 47
ATOM     47   O  IDS C   3     144.290  36.132  43.3920  0.00  0.00     0.000 O
ATOM     48   S  IDS C   3     144.773  37.526  44.0080  0.00  0.00     0.000 S
ATOM     49   O  IDS C   3     146.151  37.330  44.4040  0.00  0.00     0.000 OA
ATOM     50   O  IDS C   3     143.902  37.765  45.1380  0.00  0.00     0.000 OA
ATOM     51   O  IDS C   3     144.627  38.505  42.9640  0.00  0.00     0.000 OA
ENDBRANCH 40 47
BRANCH 43 52
ATOM     52   C  IDS C   3     142.674  31.957  41.7350  0.00  0.00     0.000 C
ATOM     53   O  IDS C   3     142.626  31.526  42.8650  0.00  0.00     0.000 OA
ATOM     54   O  IDS C   3     142.099  31.389  40.8420  0.00  0.00     0.000 OA
ENDBRANCH 43 52
BRANCH 39 55
ATOM     55  O4  SGN C   4     146.360  34.037  41.1560  0.00  0.00     0.000 O
BRANCH 55 59
ATOM     56  C1  SGN C   4     150.031  35.945  41.7790  0.00  0.00     0.000 C
ATOM     57  C2  SGN C   4     149.345  36.198  40.4250  0.00  0.00     0.000 C
ATOM     58  C3  SGN C   4     147.876  35.787  40.4770  0.00  0.00     0.000 C
ATOM     59  C4  SGN C   4     147.734  34.367  41.0150  0.00  0.00     0.000 C
ATOM     60  C5  SGN C   4     148.432  34.284  42.3700  0.00  0.00     0.000 C
ATOM     61  O5  SGN C   4     149.826  34.600  42.1820  0.00  0.00     0.000 O
ATOM     62   O  SGN C   4     147.307  35.890  39.1780  0.00  0.00     0.000 O
ATOM     64  HD  SGN C   4     147.941  36.480  39.1850  0.00  0.00     0.000 HD
BRANCH 57 66
ATOM     64   N  SGN C   4     150.387  37.236  40.3700  0.00  0.00     0.000 N
ATOM     66  HD  SGN C   4     151.089  37.393  39.8870  0.00  0.00     0.000 HD
ATOM     66   S  SGN C   4     150.692  38.009  39.0070  0.00  0.00     0.000 S
ATOM     67   O  SGN C   4     151.773  38.891  39.2520  0.00  0.00     0.000 OA
ATOM     68   O  SGN C   4     150.810  37.024  37.9880  0.00  0.00     0.000 OA
ATOM     69   O  SGN C   4     149.393  38.838  38.7530  0.00  0.00     0.000 OA
ENDBRANCH 57 66
BRANCH 60 70
ATOM     70   C  SGN C   4     148.351  32.918  43.0160  0.00  0.00     0.000 C
ATOM     71   O  SGN C   4     147.908  32.171  46.6700  0.00  0.00     0.000 OA
ATOM     72   O  SGN C   4     146.225  32.094  44.9340  0.00  0.00     0.000 OA
ATOM     73   O  SGN C   4     148.390  33.034  44.4510  0.00  0.00     0.000 O
ATOM     74   S  SGN C   4     147.616  31.907  45.2800  0.00  0.00     0.000 S
ATOM     75   O  SGN C   4     148.166  30.653  44.8030  0.00  0.00     0.000 OA
ENDBRANCH 60 70
BRANCH 56 76
ATOM     76  O4  IDS C   5     150.269  36.670  42.8870  0.00  0.00     0.000 O
BRANCH 76 80
ATOM     77  C1  IDS C   5     150.645  37.621  46.8380  0.00  0.00     0.000 C
ATOM     78  C2  IDS C   5     149.354  36.883  46.4830  0.00  0.00     0.000 C
ATOM     79  C3  IDS C   5     149.504  36.203  45.1370  0.00  0.00     0.000 C
ATOM     80  C4  IDS C   5     149.659  37.258  44.0460  0.00  0.00     0.000 C
ATOM     81  C5  IDS C   5     150.519  38.415  44.5750  0.00  0.00     0.000 C
ATOM     82  O5  IDS C   5     151.353  37.970  45.6490  0.00  0.00     0.000 O
BRANCH 78 83
ATOM     83   O  IDS C   5     149.046  35.849  47.4990  0.00  0.00     0.000 O
ATOM     84   S  IDS C   5     147.550  35.679  48.0280  0.00  0.00     0.000 S
ATOM     85   O  IDS C   5     147.098  37.001  48.3680  0.00  0.00     0.000 OA
ATOM     86   O  IDS C   5     146.823  35.096  46.9250  0.00  0.00     0.000 OA
ATOM     87   O  IDS C   5     147.637  34.797  49.1660  0.00  0.00     0.000 OA
ENDBRANCH 78 83
BRANCH 81 88
ATOM     88   C  IDS C   5     151.419  39.044  43.5270  0.00  0.00     0.000 C
ATOM     89   O  IDS C   5     150.934  39.606  42.5810  0.00  0.00     0.000 OA
ATOM     90   O  IDS C   5     152.620  38.976  43.6510  0.00  0.00     0.000 OA
ENDBRANCH 81 88
ENDBRANCH 76 80
ENDBRANCH 56 76
ENDBRANCH 55 59
ENDBRANCH 39 55
ENDBRANCH 38 42
ENDBRANCH 18 38
ENDBRANCH 17 21
ENDBRANCH 1 17
TORSDOF 18
ENDMDL
MODEL 8
REMARK VINA RESULT:      -7.8     27.828     32.389
ROOT
ATOM      1  C1  IDS C   1     159.509  34.301  51.9120  0.00  0.00     0.000 C
ATOM      2  C2  IDS C   1     158.719  33.164  51.2580  0.00  0.00     0.000 C
ATOM      3  C3  IDS C   1     157.248  33.532  51.1300  0.00  0.00     0.000 C
ATOM      4  C4  IDS C   1     156.650  33.838  52.4960  0.00  0.00     0.000 C
ATOM      5  C5  IDS C   1     157.655  34.609  53.3470  0.00  0.00     0.000 C
ATOM      6  O5  IDS C   1     158.624  35.240  52.5100  0.00  0.00     0.000 O
ATOM      7   O  IDS C   1     156.531  32.456  50.5110  0.00  0.00     0.000 O
ATOM      9  HD  IDS C   1     157.042  32.097  49.9110  0.00  0.00     0.000 HD
ENDROOT
BRANCH 2 9
ATOM      9   O  IDS C   1     159.229  32.884  49.8960  0.00  0.00     0.000 O
ATOM     10   S  IDS C   1     159.647  31.395  49.5070  0.00  0.00     0.000 S
ATOM     11   O  IDS C   1     160.082  31.453  48.1290  0.00  0.00     0.000 OA
ATOM     12   O  IDS C   1     160.713  31.039  50.4210  0.00  0.00     0.000 OA
ATOM     13   O  IDS C   1     158.458  30.592  49.6870  0.00  0.00     0.000 OA
ENDBRANCH 2 9
BRANCH 5 14
ATOM     14   C  IDS C   1     156.986  35.676  54.1970  0.00  0.00     0.000 C
ATOM     15   O  IDS C   1     157.658  36.355  54.9350  0.00  0.00     0.000 OA
ATOM     16   O  IDS C   1     155.779  35.835  54.1300  0.00  0.00     0.000 OA
ENDBRANCH 5 14
BRANCH 1 17
ATOM     17  O4  SGN C   2     160.709  34.698  51.4780  0.00  0.00     0.000 O
BRANCH 17 21
ATOM     18  C1  SGN C   2     163.395  37.445  49.8140  0.00  0.00     0.000 C
ATOM     19  C2  SGN C   2     162.028  37.993  50.2420  0.00  0.00     0.000 C
ATOM     20  C3  SGN C   2     161.345  37.003  51.1930  0.00  0.00     0.000 C
ATOM     21  C4  SGN C   2     161.286  35.619  50.5560  0.00  0.00     0.000 C
ATOM     22  C5  SGN C   2     162.699  35.183  50.1810  0.00  0.00     0.000 C
ATOM     23  O5  SGN C   2     163.283  36.145  49.2720  0.00  0.00     0.000 O
ATOM     24   O  SGN C   2     160.046  37.467  51.5210  0.00  0.00     0.000 O
ATOM     26  HD  SGN C   2     160.823  37.115  51.6680  0.00  0.00     0.000 HD
BRANCH 19 28
ATOM     26   N  SGN C   2     162.301  39.436  50.3110  0.00  0.00     0.000 N
ATOM     28  HD  SGN C   2     162.786  39.166  49.6460  0.00  0.00     0.000 HD
ATOM     28   O  SGN C   2     161.493  41.742  50.8140  0.00  0.00     0.000 OA
ATOM     29   S  SGN C   2     161.223  40.537  49.8510  0.00  0.00     0.000 S
ATOM     30   O  SGN C   2     161.550  40.929  48.5340  0.00  0.00     0.000 OA
ATOM     31   O  SGN C   2     159.929  40.016  50.1280  0.00  0.00     0.000 OA
ENDBRANCH 19 28
BRANCH 22 32
ATOM     32   C  SGN C   2     162.747  33.844  49.4870  0.00  0.00     0.000 C
ATOM     33   S  SGN C   2     164.402  32.439  48.0980  0.00  0.00     0.000 S
ATOM     34   O  SGN C   2     164.187  33.231  46.9130  0.00  0.00     0.000 OA
ATOM     35   O  SGN C   2     165.779  32.030  48.2810  0.00  0.00     0.000 OA
ATOM     36   O  SGN C   2     163.456  31.362  48.2660  0.00  0.00     0.000 OA
ATOM     37   O  SGN C   2     164.111  33.446  49.3020  0.00  0.00     0.000 O
ENDBRANCH 22 32
BRANCH 18 38
ATOM     38  O4  IDS C   3     164.558  37.423  50.4690  0.00  0.00     0.000 O
BRANCH 38 42
ATOM     39  C1  IDS C   3     167.509  37.984  52.2310  0.00  0.00     0.000 C
ATOM     40  C2  IDS C   3     167.375  38.401  50.7580  0.00  0.00     0.000 C
ATOM     41  C3  IDS C   3     166.893  37.235  49.8950  0.00  0.00     0.000 C
ATOM     42  C4  IDS C   3     165.689  36.547  50.5230  0.00  0.00     0.000 C
ATOM     43  C5  IDS C   3     165.999  36.183  51.9800  0.00  0.00     0.000 C
ATOM     44  O5  IDS C   3     166.319  37.373  52.7000  0.00  0.00     0.000 O
ATOM     45   O  IDS C   3     167.956  36.294  49.7340  0.00  0.00     0.000 O
ATOM     47  HD  IDS C   3     168.467  35.850  50.2730  0.00  0.00     0.000 HD
BRANCH 40 47
ATOM     47   O  IDS C   3     166.389  39.498  50.6150  0.00  0.00     0.000 O
ATOM     48   S  IDS C   3     166.894  40.992  50.3510  0.00  0.00     0.000 S
ATOM     49   O  IDS C   3     167.365  41.484  51.6280  0.00  0.00     0.000 OA
ATOM     50   O  IDS C   3     165.730  41.709  49.8770  0.00  0.00     0.000 OA
ATOM     51   O  IDS C   3     167.941  40.900  49.3690  0.00  0.00     0.000 OA
ENDBRANCH 40 47
BRANCH 43 52
ATOM     52   C  IDS C   3     164.854  35.468  52.6630  0.00  0.00     0.000 C
ATOM     53   O  IDS C   3     164.853  34.261  52.7310  0.00  0.00     0.000 OA
ATOM     54   O  IDS C   3     163.949  36.107  53.1360  0.00  0.00     0.000 OA
ENDBRANCH 43 52
BRANCH 39 55
ATOM     55  O4  SGN C   4     168.623  37.475  52.7570  0.00  0.00     0.000 O
BRANCH 55 59
ATOM     56  C1  SGN C   4     170.785  35.633  55.8290  0.00  0.00     0.000 C
ATOM     57  C2  SGN C   4     169.907  34.716  54.9600  0.00  0.00     0.000 C
ATOM     58  C3  SGN C   4     169.501  35.420  53.6680  0.00  0.00     0.000 C
ATOM     59  C4  SGN C   4     168.900  36.789  53.9690  0.00  0.00     0.000 C
ATOM     60  C5  SGN C   4     169.897  37.589  54.8050  0.00  0.00     0.000 C
ATOM     61  O5  SGN C   4     170.132  36.875  56.0350  0.00  0.00     0.000 O
ATOM     62   O  SGN C   4     168.574  34.611  52.9570  0.00  0.00     0.000 O
ATOM     64  HD  SGN C   4     169.053  34.047  53.4070  0.00  0.00     0.000 HD
BRANCH 57 66
ATOM     64   N  SGN C   4     169.337  33.380  55.1960  0.00  0.00     0.000 N
ATOM     66  HD  SGN C   4     169.481  32.577  54.9030  0.00  0.00     0.000 HD
ATOM     66   S  SGN C   4     170.276  32.159  55.6130  0.00  0.00     0.000 S
ATOM     67   O  SGN C   4     169.457  31.006  55.7080  0.00  0.00     0.000 OA
ATOM     68   O  SGN C   4     171.382  32.160  54.7190  0.00  0.00     0.000 OA
ATOM     69   O  SGN C   4     170.785  32.552  57.0380  0.00  0.00     0.000 OA
ENDBRANCH 57 66
BRANCH 60 70
ATOM     70   C  SGN C   4     169.416  38.979  55.1630  0.00  0.00     0.000 C
ATOM     71   O  SGN C   4     166.150  39.892  56.7770  0.00  0.00     0.000 OA
ATOM     72   O  SGN C   4     168.323  39.740  57.8280  0.00  0.00     0.000 OA
ATOM     73   O  SGN C   4     168.035  38.947  55.5720  0.00  0.00     0.000 O
ATOM     74   S  SGN C   4     167.578  40.055  56.6300  0.00  0.00     0.000 S
ATOM     75   O  SGN C   4     167.957  41.318  56.0300  0.00  0.00     0.000 OA
ENDBRANCH 60 70
BRANCH 56 76
ATOM     76  O4  IDS C   5     172.106  35.838  55.9820  0.00  0.00     0.000 O
BRANCH 76 80
ATOM     77  C1  IDS C   5     175.960  36.643  57.0570  0.00  0.00     0.000 C
ATOM     78  C2  IDS C   5     174.910  37.484  57.7820  0.00  0.00     0.000 C
ATOM     79  C3  IDS C   5     173.549  36.829  57.6550  0.00  0.00     0.000 C
ATOM     80  C4  IDS C   5     173.112  36.840  56.1930  0.00  0.00     0.000 C
ATOM     81  C5  IDS C   5     174.329  36.576  55.2960  0.00  0.00     0.000 C
ATOM     82  O5  IDS C   5     175.345  35.877  56.0210  0.00  0.00     0.000 O
BRANCH 78 83
ATOM     83   O  IDS C   5     175.239  37.606  59.2220  0.00  0.00     0.000 O
ATOM     84   S  IDS C   5     175.851  38.968  59.7830  0.00  0.00     0.000 S
ATOM     85   O  IDS C   5     176.928  39.314  58.8950  0.00  0.00     0.000 OA
ATOM     86   O  IDS C   5     174.761  39.914  59.7500  0.00  0.00     0.000 OA
ATOM     87   O  IDS C   5     176.291  38.674  61.1260  0.00  0.00     0.000 OA
ENDBRANCH 78 83
BRANCH 81 88
ATOM     88   C  IDS C   5     174.014  35.765  54.0530  0.00  0.00     0.000 C
ATOM     89   O  IDS C   5     174.189  34.576  54.0540  0.00  0.00     0.000 OA
ATOM     90   O  IDS C   5     173.587  36.321  53.0670  0.00  0.00     0.000 OA
ENDBRANCH 81 88
ENDBRANCH 76 80
ENDBRANCH 56 76
ENDBRANCH 55 59
ENDBRANCH 39 55
ENDBRANCH 38 42
ENDBRANCH 18 38
ENDBRANCH 17 21
ENDBRANCH 1 17
TORSDOF 18
ENDMDL
MODEL 9
REMARK VINA RESULT:      -7.7     24.699     30.821
ROOT
ATOM      1  C1  IDS C   1     147.438  34.941  72.6450  0.00  0.00     0.000 C
ATOM      2  C2  IDS C   1     148.942  34.915  72.3580  0.00  0.00     0.000 C
ATOM      3  C3  IDS C   1     149.529  36.318  72.4250  0.00  0.00     0.000 C
ATOM      4  C4  IDS C   1     148.842  37.236  71.4240  0.00  0.00     0.000 C
ATOM      5  C5  IDS C   1     147.348  36.936  71.3780  0.00  0.00     0.000 C
ATOM      6  O5  IDS C   1     146.943  36.272  72.5760  0.00  0.00     0.000 O
ATOM      7   O  IDS C   1     150.938  36.267  72.1580  0.00  0.00     0.000 O
ATOM      9  HD  IDS C   1     151.255  35.541  72.5080  0.00  0.00     0.000 HD
ENDROOT
BRANCH 2 9
ATOM      9   O  IDS C   1     149.654  34.085  73.3550  0.00  0.00     0.000 O
ATOM     10   S  IDS C   1     150.555  32.866  72.8590  0.00  0.00     0.000 S
ATOM     11   O  IDS C   1     151.115  32.275  74.0540  0.00  0.00     0.000 OA
ATOM     12   O  IDS C   1     149.653  31.974  72.1590  0.00  0.00     0.000 OA
ATOM     13   O  IDS C   1     151.560  33.443  71.9950  0.00  0.00     0.000 OA
ENDBRANCH 2 9
BRANCH 5 14
ATOM     14   C  IDS C   1     146.514  38.196  71.2210  0.00  0.00     0.000 C
ATOM     15   O  IDS C   1     146.092  38.497  70.1310  0.00  0.00     0.000 OA
ATOM     16   O  IDS C   1     146.281  38.893  72.1940  0.00  0.00     0.000 OA
ENDBRANCH 5 14
BRANCH 1 17
ATOM     17  O4  SGN C   2     146.831  34.044  73.4260  0.00  0.00     0.000 O
BRANCH 17 21
ATOM     18  C1  SGN C   2     144.769  32.815  76.8570  0.00  0.00     0.000 C
ATOM     19  C2  SGN C   2     144.900  34.327  76.6390  0.00  0.00     0.000 C
ATOM     20  C3  SGN C   2     145.282  34.611  75.1810  0.00  0.00     0.000 C
ATOM     21  C4  SGN C   2     146.528  33.820  74.8010  0.00  0.00     0.000 C
ATOM     22  C5  SGN C   2     146.274  32.338  75.0560  0.00  0.00     0.000 C
ATOM     23  O5  SGN C   2     145.936  32.132  76.4470  0.00  0.00     0.000 O
ATOM     24   O  SGN C   2     145.488  36.002  74.9990  0.00  0.00     0.000 O
ATOM     26  HD  SGN C   2     145.203  35.209  74.7990  0.00  0.00     0.000 HD
BRANCH 19 28
ATOM     26   N  SGN C   2     143.674  34.937  77.1710  0.00  0.00     0.000 N
ATOM     28  HD  SGN C   2     143.517  34.087  77.2150  0.00  0.00     0.000 HD
ATOM     28   O  SGN C   2     142.583  36.791  78.4340  0.00  0.00     0.000 OA
ATOM     29   S  SGN C   2     143.617  35.630  78.6200  0.00  0.00     0.000 S
ATOM     30   O  SGN C   2     143.079  34.686  79.5230  0.00  0.00     0.000 OA
ATOM     31   O  SGN C   2     144.895  36.198  78.8770  0.00  0.00     0.000 OA
ENDBRANCH 19 28
BRANCH 22 32
ATOM     32   C  SGN C   2     147.472  31.466  74.7660  0.00  0.00     0.000 C
ATOM     33   S  SGN C   2     149.028  29.832  76.0120  0.00  0.00     0.000 S
ATOM     34   O  SGN C   2     149.753  30.902  76.6500  0.00  0.00     0.000 OA
ATOM     35   O  SGN C   2     148.808  28.686  76.8690  0.00  0.00     0.000 OA
ATOM     36   O  SGN C   2     149.525  29.484  74.7020  0.00  0.00     0.000 OA
ATOM     37   O  SGN C   2     147.573  30.439  75.7600  0.00  0.00     0.000 O
ENDBRANCH 22 32
BRANCH 18 38
ATOM     38  O4  IDS C   3     143.777  31.981  76.5380  0.00  0.00     0.000 O
BRANCH 38 42
ATOM     39  C1  IDS C   3     140.738  30.635  75.4970  0.00  0.00     0.000 C
ATOM     40  C2  IDS C   3     140.786  31.846  76.4430  0.00  0.00     0.000 C
ATOM     41  C3  IDS C   3     141.678  31.568  77.6520  0.00  0.00     0.000 C
ATOM     42  C4  IDS C   3     143.017  30.981  77.2260  0.00  0.00     0.000 C
ATOM     43  C5  IDS C   3     142.786  29.775  76.3070  0.00  0.00     0.000 C
ATOM     44  O5  IDS C   3     142.044  30.196  75.1630  0.00  0.00     0.000 O
ATOM     45   O  IDS C   3     141.013  30.662  78.5330  0.00  0.00     0.000 O
ATOM     47  HD  IDS C   3     140.662  29.874  78.4510  0.00  0.00     0.000 HD
BRANCH 40 47
ATOM     47   O  IDS C   3     141.339  33.030  75.7440  0.00  0.00     0.000 O
ATOM     48   S  IDS C   3     140.376  34.247  75.3560  0.00  0.00     0.000 S
ATOM     49   O  IDS C   3     139.637  33.812  74.1900  0.00  0.00     0.000 OA
ATOM     50   O  IDS C   3     141.260  35.355  75.0700  0.00  0.00     0.000 OA
ATOM     51   O  IDS C   3     139.531  34.476  76.4970  0.00  0.00     0.000 OA
ENDBRANCH 40 47
BRANCH 43 52
ATOM     52   C  IDS C   3     144.075  29.121  75.8640  0.00  0.00     0.000 C
ATOM     53   O  IDS C   3     144.321  29.008  74.6850  0.00  0.00     0.000 OA
ATOM     54   O  IDS C   3     144.853  28.715  76.6890  0.00  0.00     0.000 OA
ENDBRANCH 43 52
BRANCH 39 55
ATOM     55  O4  SGN C   4     139.845  29.650  75.6020  0.00  0.00     0.000 O
BRANCH 55 59
ATOM     56  C1  SGN C   4     135.788  28.656  75.8330  0.00  0.00     0.000 C
ATOM     57  C2  SGN C   4     136.119  30.125  75.5210  0.00  0.00     0.000 C
ATOM     58  C3  SGN C   4     137.573  30.271  75.0780  0.00  0.00     0.000 C
ATOM     59  C4  SGN C   4     138.508  29.599  76.0780  0.00  0.00     0.000 C
ATOM     60  C5  SGN C   4     138.074  28.146  76.2560  0.00  0.00     0.000 C
ATOM     61  O5  SGN C   4     136.725  28.136  76.7630  0.00  0.00     0.000 O
ATOM     62   O  SGN C   4     137.892  31.649  74.9400  0.00  0.00     0.000 O
ATOM     64  HD  SGN C   4     137.042  31.607  74.7840  0.00  0.00     0.000 HD
BRANCH 57 66
ATOM     64   N  SGN C   4     134.876  30.268  74.7450  0.00  0.00     0.000 N
ATOM     66  HD  SGN C   4     134.035  30.369  74.9250  0.00  0.00     0.000 HD
ATOM     66   S  SGN C   4     133.899  31.504  74.9980  0.00  0.00     0.000 S
ATOM     67   O  SGN C   4     132.772  31.333  74.1550  0.00  0.00     0.000 OA
ATOM     68   O  SGN C   4     133.711  31.605  76.4040  0.00  0.00     0.000 OA
ATOM     69   O  SGN C   4     134.727  32.736  74.5130  0.00  0.00     0.000 OA
ENDBRANCH 57 66
BRANCH 60 70
ATOM     70   C  SGN C   4     138.937  27.365  77.2240  0.00  0.00     0.000 C
ATOM     71   O  SGN C   4     137.823  25.694  80.3970  0.00  0.00     0.000 OA
ATOM     72   O  SGN C   4     138.261  24.654  78.2590  0.00  0.00     0.000 OA
ATOM     73   O  SGN C   4     138.199  27.057  78.4220  0.00  0.00     0.000 O
ATOM     74   S  SGN C   4     138.605  25.710  79.1830  0.00  0.00     0.000 S
ATOM     75   O  SGN C   4     140.031  25.831  79.4160  0.00  0.00     0.000 OA
ENDBRANCH 60 70
BRANCH 56 76
ATOM     76  O4  IDS C   5     135.276  27.618  75.1470  0.00  0.00     0.000 O
BRANCH 76 80
ATOM     77  C1  IDS C   5     132.165  25.192  76.1900  0.00  0.00     0.000 C
ATOM     78  C2  IDS C   5     133.509  24.798  76.8010  0.00  0.00     0.000 C
ATOM     79  C3  IDS C   5     134.471  25.967  76.7240  0.00  0.00     0.000 C
ATOM     80  C4  IDS C   5     134.786  26.274  75.2630  0.00  0.00     0.000 C
ATOM     81  C5  IDS C   5     133.516  26.092  74.4200  0.00  0.00     0.000 C
ATOM     82  O5  IDS C   5     132.348  26.236  75.2340  0.00  0.00     0.000 O
BRANCH 78 83
ATOM     83   O  IDS C   5     133.346  24.418  78.2240  0.00  0.00     0.000 O
ATOM     84   S  IDS C   5     133.855  22.992  78.7270  0.00  0.00     0.000 S
ATOM     85   O  IDS C   5     133.334  22.033  77.7910  0.00  0.00     0.000 OA
ATOM     86   O  IDS C   5     135.297  23.078  78.7100  0.00  0.00     0.000 OA
ATOM     87   O  IDS C   5     133.324  22.836  80.0590  0.00  0.00     0.000 OA
ENDBRANCH 78 83
BRANCH 81 88
ATOM     88   C  IDS C   5     133.395  27.072  73.2680  0.00  0.00     0.000 C
ATOM     89   O  IDS C   5     132.888  28.147  73.4480  0.00  0.00     0.000 OA
ATOM     90   O  IDS C   5     133.812  26.766  72.1750  0.00  0.00     0.000 OA
ENDBRANCH 81 88
ENDBRANCH 76 80
ENDBRANCH 56 76
ENDBRANCH 55 59
ENDBRANCH 39 55
ENDBRANCH 38 42
ENDBRANCH 18 38
ENDBRANCH 17 21
ENDBRANCH 1 17
TORSDOF 18
ENDMDL
MODEL 10
REMARK VINA RESULT:      -7.6      8.569     13.700
ROOT
ATOM      1  C1  IDS C   1     168.909  27.019  77.1400  0.00  0.00     0.000 C
ATOM      2  C2  IDS C   1     170.157  27.242  76.2810  0.00  0.00     0.000 C
ATOM      3  C3  IDS C   1     171.320  26.402  76.7880  0.00  0.00     0.000 C
ATOM      4  C4  IDS C   1     171.639  26.746  78.2360  0.00  0.00     0.000 C
ATOM      5  C5  IDS C   1     170.349  26.981  79.0150  0.00  0.00     0.000 C
ATOM      6  O5  IDS C   1     169.253  26.355  78.3490  0.00  0.00     0.000 O
ATOM      7   O  IDS C   1     172.474  26.625  75.9660  0.00  0.00     0.000 O
ATOM      9  HD  IDS C   1     172.210  26.726  75.1470  0.00  0.00     0.000 HD
ENDROOT
BRANCH 2 9
ATOM      9   O  IDS C   1     169.905  26.853  74.8750  0.00  0.00     0.000 O
ATOM     10   S  IDS C   1     170.038  27.947  73.7230  0.00  0.00     0.000 S
ATOM     11   O  IDS C   1     169.748  27.258  72.4850  0.00  0.00     0.000 OA
ATOM     12   O  IDS C   1     169.062  28.969  74.0410  0.00  0.00     0.000 OA
ATOM     13   O  IDS C   1     171.400  28.428  73.7900  0.00  0.00     0.000 OA
ENDBRANCH 2 9
BRANCH 5 14
ATOM     14   C  IDS C   1     170.427  26.435  80.4310  0.00  0.00     0.000 C
ATOM     15   O  IDS C   1     171.010  25.398  80.6360  0.00  0.00     0.000 OA
ATOM     16   O  IDS C   1     169.900  27.046  81.3450  0.00  0.00     0.000 OA
ENDBRANCH 5 14
BRANCH 1 17
ATOM     17  O4  SGN C   2     167.686  26.873  76.6230  0.00  0.00     0.000 O
BRANCH 17 21
ATOM     18  C1  SGN C   2     163.984  24.929  76.4150  0.00  0.00     0.000 C
ATOM     19  C2  SGN C   2     164.981  24.398  77.4520  0.00  0.00     0.000 C
ATOM     20  C3  SGN C   2     166.077  25.442  77.7010  0.00  0.00     0.000 C
ATOM     21  C4  SGN C   2     166.717  25.856  76.3810  0.00  0.00     0.000 C
ATOM     22  C5  SGN C   2     165.631  26.369  75.4400  0.00  0.00     0.000 C
ATOM     23  O5  SGN C   2     164.638  25.337  75.2320  0.00  0.00     0.000 O
ATOM     24   O  SGN C   2     167.047  24.919  78.5930  0.00  0.00     0.000 O
ATOM     26  HD  SGN C   2     166.516  25.516  78.2600  0.00  0.00     0.000 HD
BRANCH 19 28
ATOM     26   N  SGN C   2     164.108  23.592  78.3160  0.00  0.00     0.000 N
ATOM     28  HD  SGN C   2     163.815  23.430  77.5180  0.00  0.00     0.000 HD
ATOM     28   O  SGN C   2     163.816  22.236  80.3890  0.00  0.00     0.000 OA
ATOM     29   S  SGN C   2     164.620  22.254  79.0460  0.00  0.00     0.000 S
ATOM     30   O  SGN C   2     164.209  21.156  78.2580  0.00  0.00     0.000 OA
ATOM     31   O  SGN C   2     166.000  22.426  79.3450  0.00  0.00     0.000 OA
ENDBRANCH 19 28
BRANCH 22 32
ATOM     32   C  SGN C   2     166.152  26.753  74.0770  0.00  0.00     0.000 C
ATOM     33   S  SGN C   2     165.603  28.422  72.1910  0.00  0.00     0.000 S
ATOM     34   O  SGN C   2     164.489  27.635  71.7260  0.00  0.00     0.000 OA
ATOM     35   O  SGN C   2     165.365  29.850  72.1460  0.00  0.00     0.000 OA
ATOM     36   O  SGN C   2     166.875  28.033  71.6290  0.00  0.00     0.000 OA
ATOM     37   O  SGN C   2     165.708  28.074  73.7460  0.00  0.00     0.000 O
ENDBRANCH 22 32
BRANCH 18 38
ATOM     38  O4  IDS C   3     162.984  25.803  76.5500  0.00  0.00     0.000 O
BRANCH 38 42
ATOM     39  C1  IDS C   3     160.721  28.227  77.6120  0.00  0.00     0.000 C
ATOM     40  C2  IDS C   3     161.047  27.009  78.4910  0.00  0.00     0.000 C
ATOM     41  C3  IDS C   3     160.874  25.705  77.7140  0.00  0.00     0.000 C
ATOM     42  C4  IDS C   3     161.565  25.775  76.3590  0.00  0.00     0.000 C
ATOM     43  C5  IDS C   3     161.113  27.034  75.6100  0.00  0.00     0.000 C
ATOM     44  O5  IDS C   3     161.438  28.183  76.3900  0.00  0.00     0.000 O
ATOM     45   O  IDS C   3     159.481  25.443  77.5320  0.00  0.00     0.000 O
ATOM     47  HD  IDS C   3     158.815  25.881  77.1940  0.00  0.00     0.000 HD
BRANCH 40 47
ATOM     47   O  IDS C   3     162.453  27.066  78.9580  0.00  0.00     0.000 O
ATOM     48   S  IDS C   3     162.950  28.306  79.8370  0.00  0.00     0.000 S
ATOM     49   O  IDS C   3     163.137  29.401  78.9090  0.00  0.00     0.000 OA
ATOM     50   O  IDS C   3     164.191  27.873  80.4390  0.00  0.00     0.000 OA
ATOM     51   O  IDS C   3     161.913  28.563  80.8010  0.00  0.00     0.000 OA
ENDBRANCH 40 47
BRANCH 43 52
ATOM     52   C  IDS C   3     161.739  27.157  74.2390  0.00  0.00     0.000 C
ATOM     53   O  IDS C   3     161.795  26.192  73.5130  0.00  0.00     0.000 OA
ATOM     54   O  IDS C   3     162.180  28.218  73.8760  0.00  0.00     0.000 OA
ENDBRANCH 43 52
BRANCH 39 55
ATOM     55  O4  SGN C   4     159.502  28.756  77.5070  0.00  0.00     0.000 O
BRANCH 55 59
ATOM     56  C1  SGN C   4     159.371  32.816  78.5120  0.00  0.00     0.000 C
ATOM     57  C2  SGN C   4     158.703  31.842  79.4970  0.00  0.00     0.000 C
ATOM     58  C3  SGN C   4     159.155  30.408  79.2320  0.00  0.00     0.000 C
ATOM     59  C4  SGN C   4     158.981  30.054  77.7590  0.00  0.00     0.000 C
ATOM     60  C5  SGN C   4     159.724  31.087  76.9150  0.00  0.00     0.000 C
ATOM     61  O5  SGN C   4     159.152  32.383  77.1790  0.00  0.00     0.000 O
ATOM     62   O  SGN C   4     158.413  29.516  80.0530  0.00  0.00     0.000 O
ATOM     64  HD  SGN C   4     158.431  30.257  80.5000  0.00  0.00     0.000 HD
BRANCH 57 66
ATOM     64   N  SGN C   4     158.981  32.800  80.5790  0.00  0.00     0.000 N
ATOM     66  HD  SGN C   4     158.607  33.516  80.8920  0.00  0.00     0.000 HD
ATOM     66   S  SGN C   4     157.873  33.126  81.6790  0.00  0.00     0.000 S
ATOM     67   O  SGN C   4     158.407  34.118  82.5400  0.00  0.00     0.000 OA
ATOM     68   O  SGN C   4     156.659  33.384  80.9840  0.00  0.00     0.000 OA
ATOM     69   O  SGN C   4     157.723  31.784  82.4650  0.00  0.00     0.000 OA
ENDBRANCH 57 66
BRANCH 60 70
ATOM     70   C  SGN C   4     159.634  30.837  75.4250  0.00  0.00     0.000 C
ATOM     71   O  SGN C   4     159.268  33.418  72.7220  0.00  0.00     0.000 OA
ATOM     72   O  SGN C   4     161.281  32.255  73.3860  0.00  0.00     0.000 OA
ATOM     73   O  SGN C   4     159.291  32.050  74.7290  0.00  0.00     0.000 O
ATOM     74   S  SGN C   4     159.844  32.198  73.2360  0.00  0.00     0.000 S
ATOM     75   O  SGN C   4     159.382  31.007  72.5510  0.00  0.00     0.000 OA
ENDBRANCH 60 70
BRANCH 56 76
ATOM     76  O4  IDS C   5     160.481  33.577  78.5150  0.00  0.00     0.000 O
BRANCH 76 80
ATOM     77  C1  IDS C   5     163.977  35.445  77.5440  0.00  0.00     0.000 C
ATOM     78  C2  IDS C   5     163.912  33.972  77.1420  0.00  0.00     0.000 C
ATOM     79  C3  IDS C   5     162.471  33.503  77.1370  0.00  0.00     0.000 C
ATOM     80  C4  IDS C   5     161.915  33.542  78.5570  0.00  0.00     0.000 C
ATOM     81  C5  IDS C   5     162.461  34.781  79.2830  0.00  0.00     0.000 C
ATOM     82  O5  IDS C   5     162.843  35.787  78.3410  0.00  0.00     0.000 O
BRANCH 78 83
ATOM     83   O  IDS C   5     164.475  33.773  75.7860  0.00  0.00     0.000 O
ATOM     84   S  IDS C   5     165.422  32.523  75.4960  0.00  0.00     0.000 S
ATOM     85   O  IDS C   5     166.397  32.512  76.5530  0.00  0.00     0.000 OA
ATOM     86   O  IDS C   5     164.548  31.373  75.5170  0.00  0.00     0.000 OA
ATOM     87   O  IDS C   5     165.995  32.761  74.1940  0.00  0.00     0.000 OA
ENDBRANCH 78 83
BRANCH 81 88
ATOM     88   C  IDS C   5     161.476  35.411  80.2510  0.00  0.00     0.000 C
ATOM     89   O  IDS C   5     160.897  36.418  79.9450  0.00  0.00     0.000 OA
ATOM     90   O  IDS C   5     161.279  34.893  81.3260  0.00  0.00     0.000 OA
ENDBRANCH 81 88
ENDBRANCH 76 80
ENDBRANCH 56 76
ENDBRANCH 55 59
ENDBRANCH 39 55
ENDBRANCH 38 42
ENDBRANCH 18 38
ENDBRANCH 17 21
ENDBRANCH 1 17
TORSDOF 18
ENDMDL
MODEL 11
REMARK VINA RESULT:      -7.6     27.571     32.517
ROOT
ATOM      1  C1  IDS C   1     159.307  34.194  51.7780  0.00  0.00     0.000 C
ATOM      2  C2  IDS C   1     158.408  33.090  51.2170  0.00  0.00     0.000 C
ATOM      3  C3  IDS C   1     156.947  33.513  51.2510  0.00  0.00     0.000 C
ATOM      4  C4  IDS C   1     156.515  33.838  52.6740  0.00  0.00     0.000 C
ATOM      5  C5  IDS C   1     157.635  34.570  53.4070  0.00  0.00     0.000 C
ATOM      6  O5  IDS C   1     158.530  35.165  52.4670  0.00  0.00     0.000 O
ATOM      7   O  IDS C   1     156.125  32.466  50.7170  0.00  0.00     0.000 O
ATOM      9  HD  IDS C   1     156.553  32.089  50.0650  0.00  0.00     0.000 HD
ENDROOT
BRANCH 2 9
ATOM      9   O  IDS C   1     158.754  32.793  49.8080  0.00  0.00     0.000 O
ATOM     10   S  IDS C   1     159.224  31.322  49.4100  0.00  0.00     0.000 S
ATOM     11   O  IDS C   1     159.469  31.357  47.9850  0.00  0.00     0.000 OA
ATOM     12   O  IDS C   1     160.424  31.075  50.1830  0.00  0.00     0.000 OA
ATOM     13   O  IDS C   1     158.131  30.447  49.7710  0.00  0.00     0.000 OA
ENDBRANCH 2 9
BRANCH 5 14
ATOM     14   C  IDS C   1     157.105  35.659  54.3230  0.00  0.00     0.000 C
ATOM     15   O  IDS C   1     157.865  36.235  55.0640  0.00  0.00     0.000 OA
ATOM     16   O  IDS C   1     155.919  35.941  54.3050  0.00  0.00     0.000 OA
ENDBRANCH 5 14
BRANCH 1 17
ATOM     17  O4  SGN C   2     160.466  34.547  51.2130  0.00  0.00     0.000 O
BRANCH 17 21
ATOM     18  C1  SGN C   2     163.229  37.343  49.7750  0.00  0.00     0.000 C
ATOM     19  C2  SGN C   2     162.017  37.902  50.5310  0.00  0.00     0.000 C
ATOM     20  C3  SGN C   2     161.349  36.783  51.3400  0.00  0.00     0.000 C
ATOM     21  C4  SGN C   2     161.024  35.602  50.4340  0.00  0.00     0.000 C
ATOM     22  C5  SGN C   2     162.303  35.135  49.7450  0.00  0.00     0.000 C
ATOM     23  O5  SGN C   2     162.876  36.226  48.9870  0.00  0.00     0.000 O
ATOM     24   O  SGN C   2     160.179  37.277  51.9710  0.00  0.00     0.000 O
ATOM     26  HD  SGN C   2     160.917  36.828  51.9070  0.00  0.00     0.000 HD
BRANCH 19 28
ATOM     26   N  SGN C   2     162.493  39.243  50.8960  0.00  0.00     0.000 N
ATOM     28  HD  SGN C   2     162.885  39.084  50.1400  0.00  0.00     0.000 HD
ATOM     28   O  SGN C   2     162.056  41.441  51.9910  0.00  0.00     0.000 OA
ATOM     29   S  SGN C   2     161.548  40.542  50.8140  0.00  0.00     0.000 S
ATOM     30   O  SGN C   2     161.827  41.195  49.5940  0.00  0.00     0.000 OA
ATOM     31   O  SGN C   2     160.219  40.127  51.1010  0.00  0.00     0.000 OA
ENDBRANCH 19 28
BRANCH 22 32
ATOM     32   C  SGN C   2     162.082  34.000  48.7760  0.00  0.00     0.000 C
ATOM     33   S  SGN C   2     161.809  33.644  46.2380  0.00  0.00     0.000 S
ATOM     34   O  SGN C   2     160.449  34.120  46.2470  0.00  0.00     0.000 OA
ATOM     35   O  SGN C   2     162.563  34.061  45.0740  0.00  0.00     0.000 OA
ATOM     36   O  SGN C   2     161.943  32.237  46.5350  0.00  0.00     0.000 OA
ATOM     37   O  SGN C   2     162.499  34.398  47.4640  0.00  0.00     0.000 O
ENDBRANCH 22 32
BRANCH 18 38
ATOM     38  O4  IDS C   3     164.459  37.059  50.2080  0.00  0.00     0.000 O
BRANCH 38 42
ATOM     39  C1  IDS C   3     167.760  36.077  50.7270  0.00  0.00     0.000 C
ATOM     40  C2  IDS C   3     166.654  35.038  50.4770  0.00  0.00     0.000 C
ATOM     41  C3  IDS C   3     165.476  35.245  51.4290  0.00  0.00     0.000 C
ATOM     42  C4  IDS C   3     165.047  36.705  51.4650  0.00  0.00     0.000 C
ATOM     43  C5  IDS C   3     166.263  37.597  51.7430  0.00  0.00     0.000 C
ATOM     44  O5  IDS C   3     167.235  37.394  50.7190  0.00  0.00     0.000 O
ATOM     45   O  IDS C   3     165.848  34.819  52.7410  0.00  0.00     0.000 O
ATOM     47  HD  IDS C   3     166.490  35.014  53.2890  0.00  0.00     0.000 HD
BRANCH 40 47
ATOM     47   O  IDS C   3     166.134  35.154  49.0940  0.00  0.00     0.000 O
ATOM     48   S  IDS C   3     166.441  34.000  48.0300  0.00  0.00     0.000 S
ATOM     49   O  IDS C   3     167.811  34.202  47.6090  0.00  0.00     0.000 OA
ATOM     50   O  IDS C   3     165.496  34.213  46.9550  0.00  0.00     0.000 OA
ATOM     51   O  IDS C   3     166.247  32.751  48.7160  0.00  0.00     0.000 OA
ENDBRANCH 40 47
BRANCH 43 52
ATOM     52   C  IDS C   3     165.907  39.065  51.8210  0.00  0.00     0.000 C
ATOM     53   O  IDS C   3     165.029  39.434  52.5670  0.00  0.00     0.000 OA
ATOM     54   O  IDS C   3     166.500  39.861  51.1380  0.00  0.00     0.000 OA
ENDBRANCH 43 52
BRANCH 39 55
ATOM     55  O4  SGN C   4     168.761  35.897  51.5880  0.00  0.00     0.000 O
BRANCH 55 59
ATOM     56  C1  SGN C   4     170.325  34.744  55.2930  0.00  0.00     0.000 C
ATOM     57  C2  SGN C   4     169.553  33.670  54.5090  0.00  0.00     0.000 C
ATOM     58  C3  SGN C   4     169.387  34.080  53.0480  0.00  0.00     0.000 C
ATOM     59  C4  SGN C   4     168.812  35.489  52.9480  0.00  0.00     0.000 C
ATOM     60  C5  SGN C   4     169.702  36.440  53.7450  0.00  0.00     0.000 C
ATOM     61  O5  SGN C   4     169.708  36.009  55.1200  0.00  0.00     0.000 O
ATOM     62   O  SGN C   4     168.546  33.147  52.3840  0.00  0.00     0.000 O
ATOM     64  HD  SGN C   4     168.921  32.689  53.0160  0.00  0.00     0.000 HD
BRANCH 57 66
ATOM     64   N  SGN C   4     168.862  32.506  55.0870  0.00  0.00     0.000 N
ATOM     66  HD  SGN C   4     168.898  31.646  54.9910  0.00  0.00     0.000 HD
ATOM     66   S  SGN C   4     169.693  31.313  55.7440  0.00  0.00     0.000 S
ATOM     67   O  SGN C   4     168.765  30.322  56.1520  0.00  0.00     0.000 OA
ATOM     68   O  SGN C   4     170.725  30.970  54.8280  0.00  0.00     0.000 OA
ATOM     69   O  SGN C   4     170.342  31.965  57.0070  0.00  0.00     0.000 OA
ENDBRANCH 57 66
BRANCH 60 70
ATOM     70   C  SGN C   4     169.238  37.880  53.7140  0.00  0.00     0.000 C
ATOM     71   O  SGN C   4     167.241  39.664  56.3480  0.00  0.00     0.000 OA
ATOM     72   O  SGN C   4     169.622  39.812  55.9500  0.00  0.00     0.000 OA
ATOM     73   O  SGN C   4     168.325  38.140  54.7980  0.00  0.00     0.000 O
ATOM     74   S  SGN C   4     168.308  39.631  55.3740  0.00  0.00     0.000 S
ATOM     75   O  SGN C   4     168.063  40.472  54.2200  0.00  0.00     0.000 OA
ENDBRANCH 60 70
BRANCH 56 76
ATOM     76  O4  IDS C   5     171.615  34.961  55.6120  0.00  0.00     0.000 O
BRANCH 76 80
ATOM     77  C1  IDS C   5     175.592  35.686  56.1750  0.00  0.00     0.000 C
ATOM     78  C2  IDS C   5     174.662  36.708  56.8280  0.00  0.00     0.000 C
ATOM     79  C3  IDS C   5     173.264  36.132  56.9440  0.00  0.00     0.000 C
ATOM     80  C4  IDS C   5     172.684  35.917  55.5490  0.00  0.00     0.000 C
ATOM     81  C5  IDS C   5     173.791  35.421  54.6080  0.00  0.00     0.000 C
ATOM     82  O5  IDS C   5     174.840  34.793  55.3530  0.00  0.00     0.000 O
BRANCH 78 83
ATOM     83   O  IDS C   5     175.139  37.057  58.1870  0.00  0.00     0.000 O
ATOM     84   S  IDS C   5     175.265  38.588  58.6140  0.00  0.00     0.000 S
ATOM     85   O  IDS C   5     175.977  39.239  57.5480  0.00  0.00     0.000 OA
ATOM     86   O  IDS C   5     173.905  39.055  58.7560  0.00  0.00     0.000 OA
ATOM     87   O  IDS C   5     175.986  38.587  59.8640  0.00  0.00     0.000 OA
ENDBRANCH 78 83
BRANCH 81 88
ATOM     88   C  IDS C   5     173.314  34.427  53.5650  0.00  0.00     0.000 C
ATOM     89   O  IDS C   5     173.542  33.256  53.7050  0.00  0.00     0.000 OA
ATOM     90   O  IDS C   5     172.704  34.822  52.5970  0.00  0.00     0.000 OA
ENDBRANCH 81 88
ENDBRANCH 76 80
ENDBRANCH 56 76
ENDBRANCH 55 59
ENDBRANCH 39 55
ENDBRANCH 38 42
ENDBRANCH 18 38
ENDBRANCH 17 21
ENDBRANCH 1 17
TORSDOF 18
ENDMDL
MODEL 12
REMARK VINA RESULT:      -7.6     27.535     32.787
ROOT
ATOM      1  C1  IDS C   1     159.522  34.219  51.8270  0.00  0.00     0.000 C
ATOM      2  C2  IDS C   1     158.643  33.111  51.2380  0.00  0.00     0.000 C
ATOM      3  C3  IDS C   1     157.188  33.553  51.1730  0.00  0.00     0.000 C
ATOM      4  C4  IDS C   1     156.675  33.918  52.5590  0.00  0.00     0.000 C
ATOM      5  C5  IDS C   1     157.758  34.654  53.3410  0.00  0.00     0.000 C
ATOM      6  O5  IDS C   1     158.716  35.215  52.4430  0.00  0.00     0.000 O
ATOM      7   O  IDS C   1     156.387  32.502  50.6150  0.00  0.00     0.000 O
ATOM      9  HD  IDS C   1     156.849  32.105  50.0000  0.00  0.00     0.000 HD
ENDROOT
BRANCH 2 9
ATOM      9   O  IDS C   1     159.070  32.776  49.8610  0.00  0.00     0.000 O
ATOM     10   S  IDS C   1     159.468  31.272  49.5090  0.00  0.00     0.000 S
ATOM     11   O  IDS C   1     159.818  31.274  48.1060  0.00  0.00     0.000 OA
ATOM     12   O  IDS C   1     160.589  30.955  50.3690  0.00  0.00     0.000 OA
ATOM     13   O  IDS C   1     158.295  30.476  49.7940  0.00  0.00     0.000 OA
ENDBRANCH 2 9
BRANCH 5 14
ATOM     14   C  IDS C   1     157.188  35.773  54.1970  0.00  0.00     0.000 C
ATOM     15   O  IDS C   1     157.939  36.530  54.7610  0.00  0.00     0.000 OA
ATOM     16   O  IDS C   1     155.980  35.893  54.3080  0.00  0.00     0.000 OA
ENDBRANCH 5 14
BRANCH 1 17
ATOM     17  O4  SGN C   2     160.717  34.543  51.3250  0.00  0.00     0.000 O
BRANCH 17 21
ATOM     18  C1  SGN C   2     163.506  37.151  49.6090  0.00  0.00     0.000 C
ATOM     19  C2  SGN C   2     162.229  37.786  50.1740  0.00  0.00     0.000 C
ATOM     20  C3  SGN C   2     161.533  36.800  51.1190  0.00  0.00     0.000 C
ATOM     21  C4  SGN C   2     161.303  35.469  50.4130  0.00  0.00     0.000 C
ATOM     22  C5  SGN C   2     162.640  34.939  49.9030  0.00  0.00     0.000 C
ATOM     23  O5  SGN C   2     163.238  35.903  49.0060  0.00  0.00     0.000 O
ATOM     24   O  SGN C   2     160.308  37.351  51.5750  0.00  0.00     0.000 O
ATOM     26  HD  SGN C   2     161.060  36.925  51.6400  0.00  0.00     0.000 HD
BRANCH 19 28
ATOM     26   N  SGN C   2     162.645  39.186  50.3360  0.00  0.00     0.000 N
ATOM     28  HD  SGN C   2     163.101  38.913  49.6520  0.00  0.00     0.000 HD
ATOM     28   O  SGN C   2     162.075  41.523  50.9950  0.00  0.00     0.000 OA
ATOM     29   S  SGN C   2     161.684  40.418  49.9570  0.00  0.00     0.000 S
ATOM     30   O  SGN C   2     162.049  40.861  48.6660  0.00  0.00     0.000 OA
ATOM     31   O  SGN C   2     160.344  40.013  50.2080  0.00  0.00     0.000 OA
ENDBRANCH 19 28
BRANCH 22 32
ATOM     32   C  SGN C   2     162.516  33.646  49.1330  0.00  0.00     0.000 C
ATOM     33   S  SGN C   2     163.044  32.732  46.7820  0.00  0.00     0.000 S
ATOM     34   O  SGN C   2     161.898  33.382  46.1970  0.00  0.00     0.000 OA
ATOM     35   O  SGN C   2     164.217  32.749  45.9330  0.00  0.00     0.000 OA
ATOM     36   O  SGN C   2     162.761  31.433  47.3450  0.00  0.00     0.000 OA
ATOM     37   O  SGN C   2     163.427  33.655  48.0270  0.00  0.00     0.000 O
ENDBRANCH 22 32
BRANCH 18 38
ATOM     38  O4  IDS C   3     164.708  36.991  50.1660  0.00  0.00     0.000 O
BRANCH 38 42
ATOM     39  C1  IDS C   3     167.739  37.090  51.8780  0.00  0.00     0.000 C
ATOM     40  C2  IDS C   3     167.648  37.512  50.4030  0.00  0.00     0.000 C
ATOM     41  C3  IDS C   3     166.973  36.431  49.5590  0.00  0.00     0.000 C
ATOM     42  C4  IDS C   3     165.686  35.947  50.2120  0.00  0.00     0.000 C
ATOM     43  C5  IDS C   3     165.959  35.549  51.6680  0.00  0.00     0.000 C
ATOM     44  O5  IDS C   3     166.475  36.678  52.3710  0.00  0.00     0.000 O
ATOM     45   O  IDS C   3     167.872  35.332  49.3910  0.00  0.00     0.000 O
ATOM     47  HD  IDS C   3     168.315  34.817  49.9270  0.00  0.00     0.000 HD
BRANCH 40 47
ATOM     47   O  IDS C   3     166.846  38.750  50.2640  0.00  0.00     0.000 O
ATOM     48   S  IDS C   3     167.575  40.174  50.2550  0.00  0.00     0.000 S
ATOM     49   O  IDS C   3     167.909  40.458  51.6340  0.00  0.00     0.000 OA
ATOM     50   O  IDS C   3     166.599  41.098  49.7200  0.00  0.00     0.000 OA
ATOM     51   O  IDS C   3     168.736  40.031  49.4180  0.00  0.00     0.000 OA
ENDBRANCH 40 47
BRANCH 43 52
ATOM     52   C  IDS C   3     164.727  35.030  52.3750  0.00  0.00     0.000 C
ATOM     53   O  IDS C   3     164.409  33.869  52.2580  0.00  0.00     0.000 OA
ATOM     54   O  IDS C   3     164.068  35.777  53.0520  0.00  0.00     0.000 OA
ENDBRANCH 43 52
BRANCH 39 55
ATOM     55  O4  SGN C   4     168.767  36.415  52.3920  0.00  0.00     0.000 O
BRANCH 55 59
ATOM     56  C1  SGN C   4     170.655  34.263  55.4430  0.00  0.00     0.000 C
ATOM     57  C2  SGN C   4     169.633  33.493  54.5900  0.00  0.00     0.000 C
ATOM     58  C3  SGN C   4     169.324  34.250  53.3010  0.00  0.00     0.000 C
ATOM     59  C4  SGN C   4     168.950  35.696  53.6030  0.00  0.00     0.000 C
ATOM     60  C5  SGN C   4     170.070  36.333  54.4230  0.00  0.00     0.000 C
ATOM     61  O5  SGN C   4     170.207  35.593  55.6530  0.00  0.00     0.000 O
ATOM     62   O  SGN C   4     168.272  33.595  52.6050  0.00  0.00     0.000 O
ATOM     64  HD  SGN C   4     168.663  32.964  53.0510  0.00  0.00     0.000 HD
BRANCH 57 66
ATOM     64   N  SGN C   4     169.777  32.454  55.6220  0.00  0.00     0.000 N
ATOM     66  HD  SGN C   4     169.300  31.792  55.9140  0.00  0.00     0.000 HD
ATOM     66   S  SGN C   4     169.605  30.911  55.2490  0.00  0.00     0.000 S
ATOM     67   O  SGN C   4     169.738  30.167  56.4490  0.00  0.00     0.000 OA
ATOM     68   O  SGN C   4     168.412  30.798  54.4850  0.00  0.00     0.000 OA
ATOM     69   O  SGN C   4     170.825  30.617  54.3190  0.00  0.00     0.000 OA
ENDBRANCH 57 66
BRANCH 60 70
ATOM     70   C  SGN C   4     169.819  37.781  54.7800  0.00  0.00     0.000 C
ATOM     71   O  SGN C   4     168.791  39.132  58.1310  0.00  0.00     0.000 OA
ATOM     72   O  SGN C   4     171.001  39.152  57.1480  0.00  0.00     0.000 OA
ATOM     73   O  SGN C   4     169.242  37.884  56.0970  0.00  0.00     0.000 O
ATOM     74   S  SGN C   4     169.575  39.214  56.9200  0.00  0.00     0.000 S
ATOM     75   O  SGN C   4     169.177  40.299  56.0460  0.00  0.00     0.000 OA
ENDBRANCH 60 70
BRANCH 56 76
ATOM     76  O4  IDS C   5     171.994  34.259  55.5780  0.00  0.00     0.000 O
BRANCH 76 80
ATOM     77  C1  IDS C   5     174.494  34.807  52.3980  0.00  0.00     0.000 C
ATOM     78  C2  IDS C   5     174.171  33.345  52.7070  0.00  0.00     0.000 C
ATOM     79  C3  IDS C   5     172.934  33.264  53.5800  0.00  0.00     0.000 C
ATOM     80  C4  IDS C   5     173.226  33.892  54.9390  0.00  0.00     0.000 C
ATOM     81  C5  IDS C   5     174.119  35.126  54.7490  0.00  0.00     0.000 C
ATOM     82  O5  IDS C   5     173.975  35.651  53.4260  0.00  0.00     0.000 O
BRANCH 78 83
ATOM     83   O  IDS C   5     173.914  32.590  51.4590  0.00  0.00     0.000 O
ATOM     84   S  IDS C   5     174.839  31.347  51.0790  0.00  0.00     0.000 S
ATOM     85   O  IDS C   5     176.195  31.801  51.2310  0.00  0.00     0.000 OA
ATOM     86   O  IDS C   5     174.479  30.308  52.0150  0.00  0.00     0.000 OA
ATOM     87   O  IDS C   5     174.500  31.010  49.7180  0.00  0.00     0.000 OA
ENDBRANCH 78 83
BRANCH 81 88
ATOM     88   C  IDS C   5     173.828  36.254  55.7220  0.00  0.00     0.000 C
ATOM     89   O  IDS C   5     174.169  36.156  56.8710  0.00  0.00     0.000 OA
ATOM     90   O  IDS C   5     173.255  37.246  55.3360  0.00  0.00     0.000 OA
ENDBRANCH 81 88
ENDBRANCH 76 80
ENDBRANCH 56 76
ENDBRANCH 55 59
ENDBRANCH 39 55
ENDBRANCH 38 42
ENDBRANCH 18 38
ENDBRANCH 17 21
ENDBRANCH 1 17
TORSDOF 18
ENDMDL
MODEL 13
REMARK VINA RESULT:      -7.6     28.465     33.667
ROOT
ATOM      1  C1  IDS C   1     169.006  34.042  53.7630  0.00  0.00     0.000 C
ATOM      2  C2  IDS C   1     169.955  34.899  54.6050  0.00  0.00     0.000 C
ATOM      3  C3  IDS C   1     171.041  34.042  55.2360  0.00  0.00     0.000 C
ATOM      4  C4  IDS C   1     170.429  32.960  56.1150  0.00  0.00     0.000 C
ATOM      5  C5  IDS C   1     169.172  32.400  55.4560  0.00  0.00     0.000 C
ATOM      6  O5  IDS C   1     169.194  32.663  54.0530  0.00  0.00     0.000 O
ATOM      7   O  IDS C   1     171.919  34.867  56.0150  0.00  0.00     0.000 O
ATOM      9  HD  IDS C   1     172.011  35.626  55.6090  0.00  0.00     0.000 HD
ENDROOT
BRANCH 2 9
ATOM      9   O  IDS C   1     170.623  35.922  53.7680  0.00  0.00     0.000 O
ATOM     10   S  IDS C   1     170.455  37.465  54.1350  0.00  0.00     0.000 S
ATOM     11   O  IDS C   1     171.228  38.192  53.1520  0.00  0.00     0.000 OA
ATOM     12   O  IDS C   1     169.035  37.735  54.0470  0.00  0.00     0.000 OA
ATOM     13   O  IDS C   1     170.975  37.611  55.4770  0.00  0.00     0.000 OA
ENDBRANCH 2 9
BRANCH 5 14
ATOM     14   C  IDS C   1     169.036  30.901  55.6630  0.00  0.00     0.000 C
ATOM     15   O  IDS C   1     169.697  30.356  56.5130  0.00  0.00     0.000 OA
ATOM     16   O  IDS C   1     168.262  30.262  54.9700  0.00  0.00     0.000 OA
ENDBRANCH 5 14
BRANCH 1 17
ATOM     17  O4  SGN C   2     168.562  34.415  52.5590  0.00  0.00     0.000 O
BRANCH 17 21
ATOM     18  C1  SGN C   2     168.021  33.795  48.4540  0.00  0.00     0.000 C
ATOM     19  C2  SGN C   2     168.681  32.655  49.2400  0.00  0.00     0.000 C
ATOM     20  C3  SGN C   2     168.425  32.842  50.7400  0.00  0.00     0.000 C
ATOM     21  C4  SGN C   2     168.867  34.234  51.1790  0.00  0.00     0.000 C
ATOM     22  C5  SGN C   2     168.143  35.276  50.3320  0.00  0.00     0.000 C
ATOM     23  O5  SGN C   2     168.435  35.058  48.9320  0.00  0.00     0.000 O
ATOM     24   O  SGN C   2     169.106  31.839  51.4750  0.00  0.00     0.000 O
ATOM     26  HD  SGN C   2     168.448  32.362  51.2690  0.00  0.00     0.000 HD
BRANCH 19 28
ATOM     26   N  SGN C   2     168.228  31.358  48.7170  0.00  0.00     0.000 N
ATOM     28  HD  SGN C   2     167.631  31.915  48.4310  0.00  0.00     0.000 HD
ATOM     28   O  SGN C   2     168.795  29.094  47.8370  0.00  0.00     0.000 OA
ATOM     29   S  SGN C   2     168.976  30.613  47.5040  0.00  0.00     0.000 S
ATOM     30   O  SGN C   2     168.263  30.905  46.3210  0.00  0.00     0.000 OA
ATOM     31   O  SGN C   2     170.359  30.934  47.5880  0.00  0.00     0.000 OA
ENDBRANCH 19 28
BRANCH 22 32
ATOM     32   C  SGN C   2     168.554  36.693  50.6460  0.00  0.00     0.000 C
ATOM     33   S  SGN C   2     167.494  39.040  50.7590  0.00  0.00     0.000 S
ATOM     34   O  SGN C   2     167.493  39.183  49.3250  0.00  0.00     0.000 OA
ATOM     35   O  SGN C   2     166.314  39.583  51.3980  0.00  0.00     0.000 OA
ATOM     36   O  SGN C   2     168.728  39.445  51.3900  0.00  0.00     0.000 OA
ATOM     37   O  SGN C   2     167.399  37.464  50.9970  0.00  0.00     0.000 O
ENDBRANCH 22 32
BRANCH 18 38
ATOM     38  O4  IDS C   3     166.744  33.980  48.1130  0.00  0.00     0.000 O
BRANCH 38 42
ATOM     39  C1  IDS C   3     163.308  33.584  48.5190  0.00  0.00     0.000 C
ATOM     40  C2  IDS C   3     164.286  32.461  48.9020  0.00  0.00     0.000 C
ATOM     41  C3  IDS C   3     165.234  32.136  47.7480  0.00  0.00     0.000 C
ATOM     42  C4  IDS C   3     165.843  33.403  47.1620  0.00  0.00     0.000 C
ATOM     43  C5  IDS C   3     164.732  34.403  46.8200  0.00  0.00     0.000 C
ATOM     44  O5  IDS C   3     163.999  34.710  48.0050  0.00  0.00     0.000 O
ATOM     45   O  IDS C   3     164.518  31.431  46.7320  0.00  0.00     0.000 O
ATOM     47  HD  IDS C   3     163.802  31.584  46.2690  0.00  0.00     0.000 HD
BRANCH 40 47
ATOM     47   O  IDS C   3     165.117  32.867  50.0600  0.00  0.00     0.000 O
ATOM     48   S  IDS C   3     164.499  32.832  51.5340  0.00  0.00     0.000 S
ATOM     49   O  IDS C   3     163.654  34.002  51.6380  0.00  0.00     0.000 OA
ATOM     50   O  IDS C   3     165.637  32.891  52.4250  0.00  0.00     0.000 OA
ATOM     51   O  IDS C   3     163.763  31.601  51.6380  0.00  0.00     0.000 OA
ENDBRANCH 40 47
BRANCH 43 52
ATOM     52   C  IDS C   3     165.262  35.680  46.2050  0.00  0.00     0.000 C
ATOM     53   O  IDS C   3     165.196  36.718  46.8220  0.00  0.00     0.000 OA
ATOM     54   O  IDS C   3     165.748  35.655  45.1030  0.00  0.00     0.000 OA
ENDBRANCH 43 52
BRANCH 39 55
ATOM     55  O4  SGN C   4     162.122  33.369  47.9500  0.00  0.00     0.000 O
BRANCH 55 59
ATOM     56  C1  SGN C   4     158.798  35.266  49.6390  0.00  0.00     0.000 C
ATOM     57  C2  SGN C   4     159.319  34.016  50.3670  0.00  0.00     0.000 C
ATOM     58  C3  SGN C   4     160.728  33.664  49.8980  0.00  0.00     0.000 C
ATOM     59  C4  SGN C   4     160.786  33.593  48.3760  0.00  0.00     0.000 C
ATOM     60  C5  SGN C   4     160.270  34.912  47.8030  0.00  0.00     0.000 C
ATOM     61  O5  SGN C   4     158.907  35.091  48.2360  0.00  0.00     0.000 O
ATOM     62   O  SGN C   4     161.127  32.427  50.4730  0.00  0.00     0.000 O
ATOM     64  HD  SGN C   4     160.567  32.761  51.0440  0.00  0.00     0.000 HD
BRANCH 57 66
ATOM     64   N  SGN C   4     159.166  34.315  51.8000  0.00  0.00     0.000 N
ATOM     66  HD  SGN C   4     158.529  34.594  52.3170  0.00  0.00     0.000 HD
ATOM     66   S  SGN C   4     158.001  33.635  52.6520  0.00  0.00     0.000 S
ATOM     67   O  SGN C   4     158.072  34.160  53.9660  0.00  0.00     0.000 OA
ATOM     68   O  SGN C   4     156.800  33.781  51.9050  0.00  0.00     0.000 OA
ATOM     69   O  SGN C   4     158.394  32.123  52.6760  0.00  0.00     0.000 OA
ENDBRANCH 57 66
BRANCH 60 70
ATOM     70   C  SGN C   4     160.287  34.968  46.2910  0.00  0.00     0.000 C
ATOM     71   O  SGN C   4     160.245  38.053  44.1490  0.00  0.00     0.000 OA
ATOM     72   O  SGN C   4     162.148  36.666  44.6990  0.00  0.00     0.000 OA
ATOM     73   O  SGN C   4     160.052  36.314  45.8340  0.00  0.00     0.000 O
ATOM     74   S  SGN C   4     160.727  36.723  44.4430  0.00  0.00     0.000 S
ATOM     75   O  SGN C   4     160.269  35.721  43.5010  0.00  0.00     0.000 OA
ENDBRANCH 60 70
BRANCH 56 76
ATOM     76  O4  IDS C   5     158.791  36.590  49.8840  0.00  0.00     0.000 O
BRANCH 76 80
ATOM     77  C1  IDS C   5     157.823  37.696  53.6910  0.00  0.00     0.000 C
ATOM     78  C2  IDS C   5     156.716  37.928  52.6630  0.00  0.00     0.000 C
ATOM     79  C3  IDS C   5     156.990  37.106  51.4190  0.00  0.00     0.000 C
ATOM     80  C4  IDS C   5     158.260  37.611  50.7420  0.00  0.00     0.000 C
ATOM     81  C5  IDS C   5     159.289  37.998  51.8140  0.00  0.00     0.000 C
ATOM     82  O5  IDS C   5     159.028  37.301  53.0350  0.00  0.00     0.000 O
BRANCH 78 83
ATOM     83   O  IDS C   5     155.400  37.526  53.2100  0.00  0.00     0.000 O
ATOM     84   S  IDS C   5     154.294  38.636  53.5120  0.00  0.00     0.000 S
ATOM     85   O  IDS C   5     154.962  39.666  54.2630  0.00  0.00     0.000 OA
ATOM     86   O  IDS C   5     153.841  39.082  52.2150  0.00  0.00     0.000 OA
ATOM     87   O  IDS C   5     153.261  37.964  54.2620  0.00  0.00     0.000 OA
ENDBRANCH 78 83
BRANCH 81 88
ATOM     88   C  IDS C   5     160.726  37.710  51.4210  0.00  0.00     0.000 C
ATOM     89   O  IDS C   5     161.269  36.716  51.8230  0.00  0.00     0.000 OA
ATOM     90   O  IDS C   5     161.317  38.484  50.7030  0.00  0.00     0.000 OA
ENDBRANCH 81 88
ENDBRANCH 76 80
ENDBRANCH 56 76
ENDBRANCH 55 59
ENDBRANCH 39 55
ENDBRANCH 38 42
ENDBRANCH 18 38
ENDBRANCH 17 21
ENDBRANCH 1 17
TORSDOF 18
ENDMDL
MODEL 14
REMARK VINA RESULT:      -7.6     24.893     30.558
ROOT
ATOM      1  C1  IDS C   1     178.497  28.186  57.6910  0.00  0.00     0.000 C
ATOM      2  C2  IDS C   1     179.498  28.438  58.8220  0.00  0.00     0.000 C
ATOM      3  C3  IDS C   1     180.369  27.212  59.0560  0.00  0.00     0.000 C
ATOM      4  C4  IDS C   1     179.512  26.004  59.4050  0.00  0.00     0.000 C
ATOM      5  C5  IDS C   1     178.242  26.002  58.5610  0.00  0.00     0.000 C
ATOM      6  O5  IDS C   1     178.429  26.798  57.3900  0.00  0.00     0.000 O
ATOM      7   O  IDS C   1     181.300  27.475  60.1160  0.00  0.00     0.000 O
ATOM      9  HD  IDS C   1     181.552  28.301  60.0590  0.00  0.00     0.000 HD
ENDROOT
BRANCH 2 9
ATOM      9   O  IDS C   1     180.397  29.567  58.4880  0.00  0.00     0.000 O
ATOM     10   S  IDS C   1     180.380  30.877  59.3970  0.00  0.00     0.000 S
ATOM     11   O  IDS C   1     181.363  31.769  58.8240  0.00  0.00     0.000 OA
ATOM     12   O  IDS C   1     179.030  31.394  59.3100  0.00  0.00     0.000 OA
ATOM     13   O  IDS C   1     180.730  30.437  60.7300  0.00  0.00     0.000 OA
ENDBRANCH 2 9
BRANCH 5 14
ATOM     14   C  IDS C   1     177.841  24.601  58.1310  0.00  0.00     0.000 C
ATOM     15   O  IDS C   1     178.366  23.647  58.6520  0.00  0.00     0.000 OA
ATOM     16   O  IDS C   1     176.997  24.452  57.2640  0.00  0.00     0.000 OA
ENDBRANCH 5 14
BRANCH 1 17
ATOM     17  O4  SGN C   2     178.228  29.087  56.7430  0.00  0.00     0.000 O
BRANCH 17 21
ATOM     18  C1  SGN C   2     177.684  30.233  52.7530  0.00  0.00     0.000 C
ATOM     19  C2  SGN C   2     177.925  28.740  53.0120  0.00  0.00     0.000 C
ATOM     20  C3  SGN C   2     177.681  28.425  54.4930  0.00  0.00     0.000 C
ATOM     21  C4  SGN C   2     178.516  29.349  55.3720  0.00  0.00     0.000 C
ATOM     22  C5  SGN C   2     178.185  30.798  55.0250  0.00  0.00     0.000 C
ATOM     23  O5  SGN C   2     178.451  31.038  53.6240  0.00  0.00     0.000 O
ATOM     24   O  SGN C   2     177.986  27.065  54.7530  0.00  0.00     0.000 O
ATOM     26  HD  SGN C   2     177.532  27.800  54.8060  0.00  0.00     0.000 HD
BRANCH 19 28
ATOM     26   N  SGN C   2     177.435  28.144  51.7620  0.00  0.00     0.000 N
ATOM     28  HD  SGN C   2     177.782  28.896  51.5090  0.00  0.00     0.000 HD
ATOM     28   O  SGN C   2     176.982  26.102  50.4020  0.00  0.00     0.000 OA
ATOM     29   S  SGN C   2     178.161  26.889  51.0670  0.00  0.00     0.000 S
ATOM     30   O  SGN C   2     178.999  27.394  50.0470  0.00  0.00     0.000 OA
ATOM     31   O  SGN C   2     178.718  26.086  52.1000  0.00  0.00     0.000 OA
ENDBRANCH 19 28
BRANCH 22 32
ATOM     32   C  SGN C   2     179.004  31.800  55.8010  0.00  0.00     0.000 C
ATOM     33   S  SGN C   2     181.084  33.283  55.4610  0.00  0.00     0.000 S
ATOM     34   O  SGN C   2     181.988  32.172  55.6230  0.00  0.00     0.000 OA
ATOM     35   O  SGN C   2     181.497  34.223  54.4390  0.00  0.00     0.000 OA
ATOM     36   O  SGN C   2     180.699  33.915  56.7010  0.00  0.00     0.000 OA
ATOM     37   O  SGN C   2     179.746  32.623  54.8930  0.00  0.00     0.000 O
ENDBRANCH 22 32
BRANCH 18 38
ATOM     38  O4  IDS C   3     176.542  30.909  52.6070  0.00  0.00     0.000 O
BRANCH 38 42
ATOM     39  C1  IDS C   3     173.892  33.169  52.6070  0.00  0.00     0.000 C
ATOM     40  C2  IDS C   3     174.436  32.585  53.9210  0.00  0.00     0.000 C
ATOM     41  C3  IDS C   3     174.492  31.059  53.8670  0.00  0.00     0.000 C
ATOM     42  C4  IDS C   3     175.150  30.577  52.5810  0.00  0.00     0.000 C
ATOM     43  C5  IDS C   3     174.476  31.239  51.3730  0.00  0.00     0.000 C
ATOM     44  O5  IDS C   3     174.598  32.656  51.4890  0.00  0.00     0.000 O
ATOM     45   O  IDS C   3     173.166  30.534  53.9570  0.00  0.00     0.000 O
ATOM     47  HD  IDS C   3     172.431  30.649  53.5140  0.00  0.00     0.000 HD
BRANCH 40 47
ATOM     47   O  IDS C   3     175.812  33.072  54.1770  0.00  0.00     0.000 O
ATOM     48   S  IDS C   3     176.061  34.616  54.5120  0.00  0.00     0.000 S
ATOM     49   O  IDS C   3     175.969  35.317  53.2490  0.00  0.00     0.000 OA
ATOM     50   O  IDS C   3     177.389  34.673  55.0810  0.00  0.00     0.000 OA
ATOM     51   O  IDS C   3     175.031  35.002  55.4390  0.00  0.00     0.000 OA
ENDBRANCH 40 47
BRANCH 43 52
ATOM     52   C  IDS C   3     175.061  30.785  50.0550  0.00  0.00     0.000 C
ATOM     53   O  IDS C   3     175.374  29.627  49.9010  0.00  0.00     0.000 OA
ATOM     54   O  IDS C   3     175.213  31.581  49.1630  0.00  0.00     0.000 OA
ENDBRANCH 43 52
BRANCH 39 55
ATOM     55  O4  SGN C   4     172.598  33.390  52.3760  0.00  0.00     0.000 O
BRANCH 55 59
ATOM     56  C1  SGN C   4     168.901  34.926  53.5930  0.00  0.00     0.000 C
ATOM     57  C2  SGN C   4     170.153  35.640  54.1310  0.00  0.00     0.000 C
ATOM     58  C3  SGN C   4     171.388  35.251  53.3220  0.00  0.00     0.000 C
ATOM     59  C4  SGN C   4     171.507  33.735  53.2170  0.00  0.00     0.000 C
ATOM     60  C5  SGN C   4     170.207  33.179  52.6390  0.00  0.00     0.000 C
ATOM     61  O5  SGN C   4     169.130  33.527  53.5310  0.00  0.00     0.000 O
ATOM     62   O  SGN C   4     172.548  35.805  53.9290  0.00  0.00     0.000 O
ATOM     64  HD  SGN C   4     171.910  36.349  54.1440  0.00  0.00     0.000 HD
BRANCH 57 66
ATOM     64   N  SGN C   4     169.195  36.729  54.3800  0.00  0.00     0.000 N
ATOM     66  HD  SGN C   4     168.766  37.040  55.0640  0.00  0.00     0.000 HD
ATOM     66   S  SGN C   4     169.479  37.816  55.5130  0.00  0.00     0.000 S
ATOM     67   O  SGN C   4     168.362  38.688  55.5550  0.00  0.00     0.000 OA
ATOM     68   O  SGN C   4     169.856  37.106  56.6860  0.00  0.00     0.000 OA
ATOM     69   O  SGN C   4     170.724  38.594  54.9780  0.00  0.00     0.000 OA
ENDBRANCH 57 66
BRANCH 60 70
ATOM     70   C  SGN C   4     170.205  31.675  52.4770  0.00  0.00     0.000 C
ATOM     71   O  SGN C   4     169.334  29.742  49.3770  0.00  0.00     0.000 OA
ATOM     72   O  SGN C   4     171.540  30.230  50.2380  0.00  0.00     0.000 OA
ATOM     73   O  SGN C   4     169.618  31.304  51.2150  0.00  0.00     0.000 O
ATOM     74   S  SGN C   4     170.155  29.955  50.5460  0.00  0.00     0.000 S
ATOM     75   O  SGN C   4     169.981  28.940  51.5670  0.00  0.00     0.000 OA
ENDBRANCH 60 70
BRANCH 56 76
ATOM     76  O4  IDS C   5     167.934  35.219  52.7050  0.00  0.00     0.000 O
BRANCH 76 80
ATOM     77  C1  IDS C   5     165.010  35.550  49.8770  0.00  0.00     0.000 C
ATOM     78  C2  IDS C   5     165.973  34.384  49.6590  0.00  0.00     0.000 C
ATOM     79  C3  IDS C   5     166.716  34.084  50.9470  0.00  0.00     0.000 C
ATOM     80  C4  IDS C   5     167.612  35.264  51.3070  0.00  0.00     0.000 C
ATOM     81  C5  IDS C   5     166.889  36.575  50.9650  0.00  0.00     0.000 C
ATOM     82  O5  IDS C   5     165.472  36.377  50.9450  0.00  0.00     0.000 O
BRANCH 78 83
ATOM     83   O  IDS C   5     165.237  33.166  49.2480  0.00  0.00     0.000 O
ATOM     84   S  IDS C   5     165.625  32.426  47.8890  0.00  0.00     0.000 S
ATOM     85   O  IDS C   5     165.687  33.453  46.8830  0.00  0.00     0.000 OA
ATOM     86   O  IDS C   5     166.903  31.806  48.1470  0.00  0.00     0.000 OA
ATOM     87   O  IDS C   5     164.576  31.463  47.6560  0.00  0.00     0.000 OA
ENDBRANCH 78 83
BRANCH 81 88
ATOM     88   C  IDS C   5     167.179  37.709  51.9310  0.00  0.00     0.000 C
ATOM     89   O  IDS C   5     168.236  38.279  51.8850  0.00  0.00     0.000 OA
ATOM     90   O  IDS C   5     166.342  38.032  52.7430  0.00  0.00     0.000 OA
ENDBRANCH 81 88
ENDBRANCH 76 80
ENDBRANCH 56 76
ENDBRANCH 55 59
ENDBRANCH 39 55
ENDBRANCH 38 42
ENDBRANCH 18 38
ENDBRANCH 17 21
ENDBRANCH 1 17
TORSDOF 18
ENDMDL
MODEL 15
REMARK VINA RESULT:      -7.5      7.634     13.458
ROOT
ATOM      1  C1  IDS C   1     169.665  25.623  78.9660  0.00  0.00     0.000 C
ATOM      2  C2  IDS C   1     170.984  25.752  78.2000  0.00  0.00     0.000 C
ATOM      3  C3  IDS C   1     172.014  24.762  78.7240  0.00  0.00     0.000 C
ATOM      4  C4  IDS C   1     172.270  24.990  80.2070  0.00  0.00     0.000 C
ATOM      5  C5  IDS C   1     170.963  25.324  80.9200  0.00  0.00     0.000 C
ATOM      6  O5  IDS C   1     169.853  24.860  80.1510  0.00  0.00     0.000 O
ATOM      7   O  IDS C   1     173.237  24.899  77.9880  0.00  0.00     0.000 O
ATOM      9  HD  IDS C   1     173.041  25.073  77.1630  0.00  0.00     0.000 HD
ENDROOT
BRANCH 2 9
ATOM      9   O  IDS C   1     170.787  25.470  76.7600  0.00  0.00     0.000 O
ATOM     10   S  IDS C   1     171.217  26.563  75.6810  0.00  0.00     0.000 S
ATOM     11   O  IDS C   1     170.912  25.986  74.3900  0.00  0.00     0.000 OA
ATOM     12   O  IDS C   1     170.421  27.737  75.9760  0.00  0.00     0.000 OA
ATOM     13   O  IDS C   1     172.633  26.777  75.8790  0.00  0.00     0.000 OA
ENDBRANCH 2 9
BRANCH 5 14
ATOM     14   C  IDS C   1     170.888  24.697  82.3020  0.00  0.00     0.000 C
ATOM     15   O  IDS C   1     170.326  25.287  83.1910  0.00  0.00     0.000 OA
ATOM     16   O  IDS C   1     171.396  23.606  82.5000  0.00  0.00     0.000 OA
ENDBRANCH 5 14
BRANCH 1 17
ATOM     17  O4  SGN C   2     168.471  25.642  78.3680  0.00  0.00     0.000 O
BRANCH 17 21
ATOM     18  C1  SGN C   2     164.827  23.978  77.1510  0.00  0.00     0.000 C
ATOM     19  C2  SGN C   2     165.630  23.188  78.1920  0.00  0.00     0.000 C
ATOM     20  C3  SGN C   2     166.684  24.097  78.8350  0.00  0.00     0.000 C
ATOM     21  C4  SGN C   2     167.541  24.751  77.7580  0.00  0.00     0.000 C
ATOM     22  C5  SGN C   2     166.634  25.507  76.7910  0.00  0.00     0.000 C
ATOM     23  O5  SGN C   2     165.675  24.596  76.2060  0.00  0.00     0.000 O
ATOM     24   O  SGN C   2     167.484  23.347  79.7340  0.00  0.00     0.000 O
ATOM     26  HD  SGN C   2     167.024  24.028  79.4590  0.00  0.00     0.000 HD
BRANCH 19 28
ATOM     26   N  SGN C   2     164.601  22.289  78.7340  0.00  0.00     0.000 N
ATOM     28  HD  SGN C   2     164.395  22.356  77.8960  0.00  0.00     0.000 HD
ATOM     28   O  SGN C   2     163.960  20.509  80.3600  0.00  0.00     0.000 OA
ATOM     29   S  SGN C   2     164.920  20.770  79.1510  0.00  0.00     0.000 S
ATOM     30   O  SGN C   2     164.527  19.942  78.0750  0.00  0.00     0.000 OA
ATOM     31   O  SGN C   2     166.262  20.723  79.6190  0.00  0.00     0.000 OA
ENDBRANCH 19 28
BRANCH 22 32
ATOM     32   C  SGN C   2     167.381  26.147  75.6460  0.00  0.00     0.000 C
ATOM     33   S  SGN C   2     166.903  27.703  73.6480  0.00  0.00     0.000 S
ATOM     34   O  SGN C   2     166.299  26.643  72.8800  0.00  0.00     0.000 OA
ATOM     35   O  SGN C   2     166.236  28.980  73.5020  0.00  0.00     0.000 OA
ATOM     36   O  SGN C   2     168.338  27.785  73.5130  0.00  0.00     0.000 OA
ATOM     37   O  SGN C   2     166.649  27.281  75.1670  0.00  0.00     0.000 O
ENDBRANCH 22 32
BRANCH 18 38
ATOM     38  O4  IDS C   3     163.831  24.852  77.3130  0.00  0.00     0.000 O
BRANCH 38 42
ATOM     39  C1  IDS C   3     160.916  26.755  77.4130  0.00  0.00     0.000 C
ATOM     40  C2  IDS C   3     161.915  26.896  76.2530  0.00  0.00     0.000 C
ATOM     41  C3  IDS C   3     163.331  27.147  76.7700  0.00  0.00     0.000 C
ATOM     42  C4  IDS C   3     163.698  26.163  77.8720  0.00  0.00     0.000 C
ATOM     43  C5  IDS C   3     162.609  26.163  78.9520  0.00  0.00     0.000 C
ATOM     44  O5  IDS C   3     161.364  25.799  78.3600  0.00  0.00     0.000 O
ATOM     45   O  IDS C   3     163.423  28.484  77.2660  0.00  0.00     0.000 O
ATOM     47  HD  IDS C   3     162.989  28.950  77.8530  0.00  0.00     0.000 HD
BRANCH 40 47
ATOM     47   O  IDS C   3     161.950  25.655  75.4430  0.00  0.00     0.000 O
ATOM     48   S  IDS C   3     162.014  25.747  73.8480  0.00  0.00     0.000 S
ATOM     49   O  IDS C   3     160.673  26.077  73.4150  0.00  0.00     0.000 OA
ATOM     50   O  IDS C   3     162.430  24.433  73.4070  0.00  0.00     0.000 OA
ATOM     51   O  IDS C   3     162.970  26.777  73.5380  0.00  0.00     0.000 OA
ENDBRANCH 40 47
BRANCH 43 52
ATOM     52   C  IDS C   3     162.921  25.226  80.0980  0.00  0.00     0.000 C
ATOM     53   O  IDS C   3     163.776  25.519  80.9010  0.00  0.00     0.000 OA
ATOM     54   O  IDS C   3     162.314  24.191  80.2040  0.00  0.00     0.000 OA
ENDBRANCH 43 52
BRANCH 39 55
ATOM     55  O4  SGN C   4     160.257  27.782  77.9490  0.00  0.00     0.000 O
BRANCH 55 59
ATOM     56  C1  SGN C   4     159.615  31.863  78.6150  0.00  0.00     0.000 C
ATOM     57  C2  SGN C   4     159.356  31.350  77.1880  0.00  0.00     0.000 C
ATOM     58  C3  SGN C   4     159.239  29.828  77.1730  0.00  0.00     0.000 C
ATOM     59  C4  SGN C   4     160.430  29.190  77.8790  0.00  0.00     0.000 C
ATOM     60  C5  SGN C   4     160.536  29.773  79.2870  0.00  0.00     0.000 C
ATOM     61  O5  SGN C   4     160.736  31.196  79.1740  0.00  0.00     0.000 O
ATOM     62   O  SGN C   4     159.149  29.371  75.8300  0.00  0.00     0.000 O
ATOM     64  HD  SGN C   4     158.811  30.168  75.8110  0.00  0.00     0.000 HD
BRANCH 57 66
ATOM     64   N  SGN C   4     159.165  32.786  76.9310  0.00  0.00     0.000 N
ATOM     66  HD  SGN C   4     159.305  33.327  76.2700  0.00  0.00     0.000 HD
ATOM     66   S  SGN C   4     158.336  33.280  75.6610  0.00  0.00     0.000 S
ATOM     67   O  SGN C   4     158.379  34.697  75.6500  0.00  0.00     0.000 OA
ATOM     68   O  SGN C   4     158.824  32.558  74.5380  0.00  0.00     0.000 OA
ATOM     69   O  SGN C   4     156.877  32.808  75.9640  0.00  0.00     0.000 OA
ENDBRANCH 57 66
BRANCH 60 70
ATOM     70   C  SGN C   4     161.682  29.208  80.0970  0.00  0.00     0.000 C
ATOM     71   O  SGN C   4     164.995  30.848  80.7660  0.00  0.00     0.000 OA
ATOM     72   O  SGN C   4     163.098  30.694  82.2580  0.00  0.00     0.000 OA
ATOM     73   O  SGN C   4     162.856  30.032  79.9540  0.00  0.00     0.000 O
ATOM     74   S  SGN C   4     163.858  30.069  81.2000  0.00  0.00     0.000 S
ATOM     75   O  SGN C   4     164.176  28.679  81.4610  0.00  0.00     0.000 OA
ENDBRANCH 60 70
BRANCH 56 76
ATOM     76  O4  IDS C   5     158.852  32.299  79.6340  0.00  0.00     0.000 O
BRANCH 76 80
ATOM     77  C1  IDS C   5     156.386  34.098  82.3430  0.00  0.00     0.000 C
ATOM     78  C2  IDS C   5     157.039  35.055  81.3470  0.00  0.00     0.000 C
ATOM     79  C3  IDS C   5     157.557  34.279  80.1520  0.00  0.00     0.000 C
ATOM     80  C4  IDS C   5     158.685  33.352  80.5950  0.00  0.00     0.000 C
ATOM     81  C5  IDS C   5     158.352  32.770  81.9770  0.00  0.00     0.000 C
ATOM     82  O5  IDS C   5     156.940  32.790  82.2030  0.00  0.00     0.000 O
BRANCH 78 83
ATOM     83   O  IDS C   5     156.061  36.058  80.8650  0.00  0.00     0.000 O
ATOM     84   S  IDS C   5     156.390  37.614  80.9970  0.00  0.00     0.000 S
ATOM     85   O  IDS C   5     156.827  37.811  82.3530  0.00  0.00     0.000 OA
ATOM     86   O  IDS C   5     157.426  37.865  80.0230  0.00  0.00     0.000 OA
ATOM     87   O  IDS C   5     155.159  38.300  80.6900  0.00  0.00     0.000 OA
ENDBRANCH 78 83
BRANCH 81 88
ATOM     88   C  IDS C   5     158.827  31.342  82.1740  0.00  0.00     0.000 C
ATOM     89   O  IDS C   5     159.944  31.131  82.5640  0.00  0.00     0.000 OA
ATOM     90   O  IDS C   5     158.076  30.423  81.9380  0.00  0.00     0.000 OA
ENDBRANCH 81 88
ENDBRANCH 76 80
ENDBRANCH 56 76
ENDBRANCH 55 59
ENDBRANCH 39 55
ENDBRANCH 38 42
ENDBRANCH 18 38
ENDBRANCH 17 21
ENDBRANCH 1 17
TORSDOF 18
ENDMDL
MODEL 16
REMARK VINA RESULT:      -7.5     36.120     41.913
ROOT
ATOM      1  C1  IDS C   1     152.617  45.086  56.2890  0.00  0.00     0.000 C
ATOM      2  C2  IDS C   1     153.608  45.850  57.1720  0.00  0.00     0.000 C
ATOM      3  C3  IDS C   1     153.833  45.120  58.4880  0.00  0.00     0.000 C
ATOM      4  C4  IDS C   1     152.520  44.949  59.2390  0.00  0.00     0.000 C
ATOM      5  C5  IDS C   1     151.396  44.622  58.2600  0.00  0.00     0.000 C
ATOM      6  O5  IDS C   1     151.938  44.095  57.0490  0.00  0.00     0.000 O
ATOM      7   O  IDS C   1     154.767  45.851  59.2950  0.00  0.00     0.000 O
ATOM      9  HD  IDS C   1     155.364  46.199  58.7730  0.00  0.00     0.000 HD
ENDROOT
BRANCH 2 9
ATOM      9   O  IDS C   1     154.922  45.977  56.5020  0.00  0.00     0.000 O
ATOM     10   S  IDS C   1     155.525  47.427  56.2270  0.00  0.00     0.000 S
ATOM     11   O  IDS C   1     156.801  47.211  55.5840  0.00  0.00     0.000 OA
ATOM     12   O  IDS C   1     154.566  48.091  55.3680  0.00  0.00     0.000 OA
ATOM     13   O  IDS C   1     155.649  48.055  57.5240  0.00  0.00     0.000 OA
ENDBRANCH 2 9
BRANCH 5 14
ATOM     14   C  IDS C   1     150.417  43.610  58.8290  0.00  0.00     0.000 C
ATOM     15   O  IDS C   1     149.647  43.950  59.6940  0.00  0.00     0.000 OA
ATOM     16   O  IDS C   1     150.418  42.464  58.4110  0.00  0.00     0.000 OA
ENDBRANCH 5 14
BRANCH 1 17
ATOM     17  O4  SGN C   2     152.795  44.914  54.9760  0.00  0.00     0.000 O
BRANCH 17 21
ATOM     18  C1  SGN C   2     154.325  42.823  51.6880  0.00  0.00     0.000 C
ATOM     19  C2  SGN C   2     154.567  42.203  53.0690  0.00  0.00     0.000 C
ATOM     20  C3  SGN C   2     153.612  42.828  54.0940  0.00  0.00     0.000 C
ATOM     21  C4  SGN C   2     153.735  44.347  54.0670  0.00  0.00     0.000 C
ATOM     22  C5  SGN C   2     153.469  44.842  52.6480  0.00  0.00     0.000 C
ATOM     23  O5  SGN C   2     154.408  44.232  51.7330  0.00  0.00     0.000 O
ATOM     24   O  SGN C   2     153.893  42.319  55.3870  0.00  0.00     0.000 O
ATOM     26  HD  SGN C   2     153.396  42.576  54.7260  0.00  0.00     0.000 HD
BRANCH 19 28
ATOM     26   N  SGN C   2     154.837  40.801  52.7180  0.00  0.00     0.000 N
ATOM     28  HD  SGN C   2     155.102  41.243  52.0220  0.00  0.00     0.000 HD
ATOM     28   O  SGN C   2     155.480  38.503  53.4430  0.00  0.00     0.000 OA
ATOM     29   S  SGN C   2     156.038  39.965  53.3850  0.00  0.00     0.000 S
ATOM     30   O  SGN C   2     157.128  39.998  52.4880  0.00  0.00     0.000 OA
ATOM     31   O  SGN C   2     156.207  40.439  54.7150  0.00  0.00     0.000 OA
ENDBRANCH 19 28
BRANCH 22 32
ATOM     32   C  SGN C   2     153.622  46.336  52.4980  0.00  0.00     0.000 C
ATOM     33   S  SGN C   2     153.923  48.074  50.6190  0.00  0.00     0.000 S
ATOM     34   O  SGN C   2     155.317  47.747  50.4460  0.00  0.00     0.000 OA
ATOM     35   O  SGN C   2     153.232  48.346  49.3760  0.00  0.00     0.000 OA
ATOM     36   O  SGN C   2     153.673  49.060  51.6430  0.00  0.00     0.000 OA
ATOM     37   O  SGN C   2     153.268  46.725  51.1650  0.00  0.00     0.000 O
ENDBRANCH 22 32
BRANCH 18 38
ATOM     38  O4  IDS C   3     153.364  42.584  50.7920  0.00  0.00     0.000 O
BRANCH 38 42
ATOM     39  C1  IDS C   3     151.578  41.869  47.8890  0.00  0.00     0.000 C
ATOM     40  C2  IDS C   3     152.713  42.905  47.8850  0.00  0.00     0.000 C
ATOM     41  C3  IDS C   3     152.517  43.944  48.9890  0.00  0.00     0.000 C
ATOM     42  C4  IDS C   3     152.203  43.278  50.3220  0.00  0.00     0.000 C
ATOM     43  C5  IDS C   3     151.039  42.295  50.1510  0.00  0.00     0.000 C
ATOM     44  O5  IDS C   3     151.398  41.312  49.1810  0.00  0.00     0.000 O
ATOM     45   O  IDS C   3     151.451  44.824  48.6270  0.00  0.00     0.000 O
ATOM     47  HD  IDS C   3     150.622  44.720  48.4020  0.00  0.00     0.000 HD
BRANCH 40 47
ATOM     47   O  IDS C   3     154.019  42.246  48.1210  0.00  0.00     0.000 O
ATOM     48   S  IDS C   3     154.935  41.827  46.8780  0.00  0.00     0.000 S
ATOM     49   O  IDS C   3     154.342  40.623  46.3370  0.00  0.00     0.000 OA
ATOM     50   O  IDS C   3     156.249  41.595  47.4350  0.00  0.00     0.000 OA
ATOM     51   O  IDS C   3     154.897  42.930  45.9550  0.00  0.00     0.000 OA
ENDBRANCH 40 47
BRANCH 43 52
ATOM     52   C  IDS C   3     150.652  41.614  51.4450  0.00  0.00     0.000 C
ATOM     53   O  IDS C   3     150.012  42.216  52.2750  0.00  0.00     0.000 OA
ATOM     54   O  IDS C   3     150.983  40.472  51.6410  0.00  0.00     0.000 OA
ENDBRANCH 43 52
BRANCH 39 55
ATOM     55  O4  SGN C   4     150.447  42.009  47.1970  0.00  0.00     0.000 O
BRANCH 55 59
ATOM     56  C1  SGN C   4     148.425  38.603  45.8490  0.00  0.00     0.000 C
ATOM     57  C2  SGN C   4     149.760  38.929  45.1570  0.00  0.00     0.000 C
ATOM     58  C3  SGN C   4     150.568  39.927  45.9820  0.00  0.00     0.000 C
ATOM     59  C4  SGN C   4     149.717  41.140  46.3430  0.00  0.00     0.000 C
ATOM     60  C5  SGN C   4     148.451  40.659  47.0480  0.00  0.00     0.000 C
ATOM     61  O5  SGN C   4     147.726  39.802  46.1440  0.00  0.00     0.000 O
ATOM     62   O  SGN C   4     151.722  40.323  45.2540  0.00  0.00     0.000 O
ATOM     64  HD  SGN C   4     151.548  39.524  44.9670  0.00  0.00     0.000 HD
BRANCH 57 66
ATOM     64   N  SGN C   4     149.925  37.494  44.8740  0.00  0.00     0.000 N
ATOM     66  HD  SGN C   4     149.643  36.939  44.2720  0.00  0.00     0.000 HD
ATOM     66   S  SGN C   4     150.430  37.002  43.4430  0.00  0.00     0.000 S
ATOM     67   O  SGN C   4     150.429  35.585  43.4550  0.00  0.00     0.000 OA
ATOM     68   O  SGN C   4     149.658  37.693  42.4690  0.00  0.00     0.000 OA
ATOM     69   O  SGN C   4     151.903  37.519  43.3720  0.00  0.00     0.000 OA
ENDBRANCH 57 66
BRANCH 60 70
ATOM     70   C  SGN C   4     147.523  41.778  47.4680  0.00  0.00     0.000 C
ATOM     71   O  SGN C   4     147.419  43.490  50.8090  0.00  0.00     0.000 OA
ATOM     72   O  SGN C   4     148.425  44.304  48.7660  0.00  0.00     0.000 OA
ATOM     73   O  SGN C   4     147.641  42.029  48.8810  0.00  0.00     0.000 O
ATOM     74   S  SGN C   4     147.364  43.528  49.3660  0.00  0.00     0.000 S
ATOM     75   O  SGN C   4     146.049  43.848  48.8460  0.00  0.00     0.000 OA
ENDBRANCH 60 70
BRANCH 56 76
ATOM     76  O4  IDS C   5     147.989  37.658  46.7030  0.00  0.00     0.000 O
BRANCH 76 80
ATOM     77  C1  IDS C   5     145.126  34.788  46.2320  0.00  0.00     0.000 C
ATOM     78  C2  IDS C   5     144.583  36.177  46.5660  0.00  0.00     0.000 C
ATOM     79  C3  IDS C   5     145.643  37.225  46.2880  0.00  0.00     0.000 C
ATOM     80  C4  IDS C   5     146.818  37.028  47.2420  0.00  0.00     0.000 C
ATOM     81  C5  IDS C   5     147.062  35.526  47.4460  0.00  0.00     0.000 C
ATOM     82  O5  IDS C   5     146.550  34.779  46.3380  0.00  0.00     0.000 O
BRANCH 78 83
ATOM     83   O  IDS C   5     143.391  36.486  45.7410  0.00  0.00     0.000 O
ATOM     84   S  IDS C   5     141.935  36.391  46.3860  0.00  0.00     0.000 S
ATOM     85   O  IDS C   5     141.882  35.120  47.0560  0.00  0.00     0.000 OA
ATOM     86   O  IDS C   5     141.846  37.514  47.2890  0.00  0.00     0.000 OA
ATOM     87   O  IDS C   5     141.012  36.492  45.2810  0.00  0.00     0.000 OA
ENDBRANCH 78 83
BRANCH 81 88
ATOM     88   C  IDS C   5     148.525  35.157  47.6090  0.00  0.00     0.000 C
ATOM     89   O  IDS C   5     149.206  34.964  46.6370  0.00  0.00     0.000 OA
ATOM     90   O  IDS C   5     148.998  35.060  48.7180  0.00  0.00     0.000 OA
ENDBRANCH 81 88
ENDBRANCH 76 80
ENDBRANCH 56 76
ENDBRANCH 55 59
ENDBRANCH 39 55
ENDBRANCH 38 42
ENDBRANCH 18 38
ENDBRANCH 17 21
ENDBRANCH 1 17
TORSDOF 18
ENDMDL
MODEL 17
REMARK VINA RESULT:      -7.5     28.773     34.123
ROOT
ATOM      1  C1  IDS C   1     169.182  33.884  53.5540  0.00  0.00     0.000 C
ATOM      2  C2  IDS C   1     170.166  34.752  54.3430  0.00  0.00     0.000 C
ATOM      3  C3  IDS C   1     171.206  33.889  55.0430  0.00  0.00     0.000 C
ATOM      4  C4  IDS C   1     170.536  32.902  55.9890  0.00  0.00     0.000 C
ATOM      5  C5  IDS C   1     169.258  32.358  55.3590  0.00  0.00     0.000 C
ATOM      6  O5  IDS C   1     169.302  32.521  53.9410  0.00  0.00     0.000 O
ATOM      7   O  IDS C   1     172.118  34.724  55.7720  0.00  0.00     0.000 O
ATOM      9  HD  IDS C   1     172.249  35.448  55.3140  0.00  0.00     0.000 HD
ENDROOT
BRANCH 2 9
ATOM      9   O  IDS C   1     170.888  35.681  53.4450  0.00  0.00     0.000 O
ATOM     10   S  IDS C   1     170.811  37.251  53.7150  0.00  0.00     0.000 S
ATOM     11   O  IDS C   1     171.620  37.870  52.6890  0.00  0.00     0.000 OA
ATOM     12   O  IDS C   1     169.408  37.595  53.6120  0.00  0.00     0.000 OA
ATOM     13   O  IDS C   1     171.344  37.449  55.0450  0.00  0.00     0.000 OA
ENDBRANCH 2 9
BRANCH 5 14
ATOM     14   C  IDS C   1     169.048  30.886  55.6680  0.00  0.00     0.000 C
ATOM     15   O  IDS C   1     169.743  30.347  56.4940  0.00  0.00     0.000 OA
ATOM     16   O  IDS C   1     168.182  30.261  55.0780  0.00  0.00     0.000 OA
ENDBRANCH 5 14
BRANCH 1 17
ATOM     17  O4  SGN C   2     168.765  34.194  52.3230  0.00  0.00     0.000 O
BRANCH 17 21
ATOM     18  C1  SGN C   2     168.285  33.391  48.2420  0.00  0.00     0.000 C
ATOM     19  C2  SGN C   2     168.875  32.264  49.0990  0.00  0.00     0.000 C
ATOM     20  C3  SGN C   2     168.595  32.538  50.5820  0.00  0.00     0.000 C
ATOM     21  C4  SGN C   2     169.091  33.929  50.9610  0.00  0.00     0.000 C
ATOM     22  C5  SGN C   2     168.433  34.958  50.0460  0.00  0.00     0.000 C
ATOM     23  O5  SGN C   2     168.746  34.657  48.6670  0.00  0.00     0.000 O
ATOM     24   O  SGN C   2     169.214  31.544  51.3810  0.00  0.00     0.000 O
ATOM     26  HD  SGN C   2     168.585  32.085  51.1340  0.00  0.00     0.000 HD
BRANCH 19 28
ATOM     26   N  SGN C   2     168.376  30.964  48.6300  0.00  0.00     0.000 N
ATOM     28  HD  SGN C   2     167.810  31.532  48.3020  0.00  0.00     0.000 HD
ATOM     28   O  SGN C   2     168.857  28.635  47.8780  0.00  0.00     0.000 OA
ATOM     29   S  SGN C   2     169.115  30.126  47.4740  0.00  0.00     0.000 S
ATOM     30   O  SGN C   2     168.441  30.389  46.2610  0.00  0.00     0.000 OA
ATOM     31   O  SGN C   2     170.509  30.389  47.5750  0.00  0.00     0.000 OA
ENDBRANCH 19 28
BRANCH 22 32
ATOM     32   C  SGN C   2     168.902  36.370  50.3000  0.00  0.00     0.000 C
ATOM     33   S  SGN C   2     168.023  38.780  50.0430  0.00  0.00     0.000 S
ATOM     34   O  SGN C   2     168.251  38.784  48.6200  0.00  0.00     0.000 OA
ATOM     35   O  SGN C   2     166.806  39.457  50.4390  0.00  0.00     0.000 OA
ATOM     36   O  SGN C   2     169.175  39.164  50.8250  0.00  0.00     0.000 OA
ATOM     37   O  SGN C   2     167.770  37.243  50.3960  0.00  0.00     0.000 O
ENDBRANCH 22 32
BRANCH 18 38
ATOM     38  O4  IDS C   3     167.026  33.615  47.8610  0.00  0.00     0.000 O
BRANCH 38 42
ATOM     39  C1  IDS C   3     163.553  33.494  48.0910  0.00  0.00     0.000 C
ATOM     40  C2  IDS C   3     164.420  32.322  48.5780  0.00  0.00     0.000 C
ATOM     41  C3  IDS C   3     165.400  31.872  47.4950  0.00  0.00     0.000 C
ATOM     42  C4  IDS C   3     166.134  33.060  46.8880  0.00  0.00     0.000 C
ATOM     43  C5  IDS C   3     165.122  34.122  46.4400  0.00  0.00     0.000 C
ATOM     44  O5  IDS C   3     164.354  34.540  47.5670  0.00  0.00     0.000 O
ATOM     45   O  IDS C   3     164.687  31.173  46.4740  0.00  0.00     0.000 O
ATOM     47  HD  IDS C   3     164.010  31.355  45.9650  0.00  0.00     0.000 HD
BRANCH 40 47
ATOM     47   O  IDS C   3     165.218  32.722  49.7620  0.00  0.00     0.000 O
ATOM     48   S  IDS C   3     164.502  32.904  51.1800  0.00  0.00     0.000 S
ATOM     49   O  IDS C   3     163.818  34.178  51.1200  0.00  0.00     0.000 OA
ATOM     50   O  IDS C   3     165.573  32.897  52.1510  0.00  0.00     0.000 OA
ATOM     51   O  IDS C   3     163.599  31.793  51.3250  0.00  0.00     0.000 OA
ENDBRANCH 40 47
BRANCH 43 52
ATOM     52   C  IDS C   3     165.780  35.324  45.7990  0.00  0.00     0.000 C
ATOM     53   O  IDS C   3     165.453  36.440  46.1340  0.00  0.00     0.000 OA
ATOM     54   O  IDS C   3     166.627  35.164  44.9580  0.00  0.00     0.000 OA
ENDBRANCH 43 52
BRANCH 39 55
ATOM     55  O4  SGN C   4     162.385  33.339  47.4670  0.00  0.00     0.000 O
BRANCH 55 59
ATOM     56  C1  SGN C   4     159.189  35.542  49.0280  0.00  0.00     0.000 C
ATOM     57  C2  SGN C   4     159.456  34.170  49.6690  0.00  0.00     0.000 C
ATOM     58  C3  SGN C   4     160.846  33.660  49.2980  0.00  0.00     0.000 C
ATOM     59  C4  SGN C   4     161.054  33.717  47.7890  0.00  0.00     0.000 C
ATOM     60  C5  SGN C   4     160.786  35.142  47.3100  0.00  0.00     0.000 C
ATOM     61  O5  SGN C   4     159.422  35.478  47.6300  0.00  0.00     0.000 O
ATOM     62   O  SGN C   4     161.010  32.332  49.7770  0.00  0.00     0.000 O
ATOM     64  HD  SGN C   4     160.444  32.692  50.3250  0.00  0.00     0.000 HD
BRANCH 57 66
ATOM     64   N  SGN C   4     158.106  34.213  50.2540  0.00  0.00     0.000 N
ATOM     66  HD  SGN C   4     157.586  33.659  50.6670  0.00  0.00     0.000 HD
ATOM     66   S  SGN C   4     157.864  33.782  51.7710  0.00  0.00     0.000 S
ATOM     67   O  SGN C   4     156.472  33.871  52.0210  0.00  0.00     0.000 OA
ATOM     68   O  SGN C   4     158.531  32.541  51.9620  0.00  0.00     0.000 OA
ATOM     69   O  SGN C   4     158.610  34.882  52.5920  0.00  0.00     0.000 OA
ENDBRANCH 57 66
BRANCH 60 70
ATOM     70   C  SGN C   4     160.970  35.330  45.8190  0.00  0.00     0.000 C
ATOM     71   O  SGN C   4     158.289  35.269  43.1900  0.00  0.00     0.000 OA
ATOM     72   O  SGN C   4     159.362  37.209  44.1570  0.00  0.00     0.000 OA
ATOM     73   O  SGN C   4     159.747  35.033  45.1180  0.00  0.00     0.000 O
ATOM     74   S  SGN C   4     159.496  35.827  43.7530  0.00  0.00     0.000 S
ATOM     75   O  SGN C   4     160.678  35.572  42.9540  0.00  0.00     0.000 OA
ENDBRANCH 60 70
BRANCH 56 76
ATOM     76  O4  IDS C   5     159.336  36.826  49.4060  0.00  0.00     0.000 O
BRANCH 76 80
ATOM     77  C1  IDS C   5     162.810  38.967  49.3680  0.00  0.00     0.000 C
ATOM     78  C2  IDS C   5     162.586  38.146  50.6370  0.00  0.00     0.000 C
ATOM     79  C3  IDS C   5     161.539  37.080  50.3810  0.00  0.00     0.000 C
ATOM     80  C4  IDS C   5     160.192  37.742  50.1050  0.00  0.00     0.000 C
ATOM     81  C5  IDS C   5     160.412  39.013  49.2710  0.00  0.00     0.000 C
ATOM     82  O5  IDS C   5     161.643  38.932  48.5470  0.00  0.00     0.000 O
BRANCH 78 83
ATOM     83   O  IDS C   5     163.840  37.479  51.0580  0.00  0.00     0.000 O
ATOM     84   S  IDS C   5     164.237  37.439  52.6030  0.00  0.00     0.000 S
ATOM     85   O  IDS C   5     164.087  38.787  53.0840  0.00  0.00     0.000 OA
ATOM     86   O  IDS C   5     163.308  36.514  53.2090  0.00  0.00     0.000 OA
ATOM     87   O  IDS C   5     165.599  36.967  52.6440  0.00  0.00     0.000 OA
ENDBRANCH 78 83
BRANCH 81 88
ATOM     88   C  IDS C   5     159.307  39.289  48.2670  0.00  0.00     0.000 C
ATOM     89   O  IDS C   5     158.345  39.928  48.5970  0.00  0.00     0.000 OA
ATOM     90   O  IDS C   5     159.404  38.863  47.1390  0.00  0.00     0.000 OA
ENDBRANCH 81 88
ENDBRANCH 76 80
ENDBRANCH 56 76
ENDBRANCH 55 59
ENDBRANCH 39 55
ENDBRANCH 38 42
ENDBRANCH 18 38
ENDBRANCH 17 21
ENDBRANCH 1 17
TORSDOF 18
ENDMDL
MODEL 18
REMARK VINA RESULT:      -7.5     23.697     29.686
ROOT
ATOM      1  C1  IDS C   1     147.561  35.241  72.4980  0.00  0.00     0.000 C
ATOM      2  C2  IDS C   1     149.024  35.122  72.0610  0.00  0.00     0.000 C
ATOM      3  C3  IDS C   1     149.659  36.498  71.9180  0.00  0.00     0.000 C
ATOM      4  C4  IDS C   1     148.898  37.337  70.9020  0.00  0.00     0.000 C
ATOM      5  C5  IDS C   1     147.398  37.098  71.0430  0.00  0.00     0.000 C
ATOM      6  O5  IDS C   1     147.104  36.578  72.3390  0.00  0.00     0.000 O
ATOM      7   O  IDS C   1     151.028  36.360  71.5130  0.00  0.00     0.000 O
ATOM      9  HD  IDS C   1     151.359  35.661  71.9030  0.00  0.00     0.000 HD
ENDROOT
BRANCH 2 9
ATOM      9   O  IDS C   1     149.813  34.368  73.0610  0.00  0.00     0.000 O
ATOM     10   S  IDS C   1     150.601  33.056  72.6110  0.00  0.00     0.000 S
ATOM     11   O  IDS C   1     151.271  32.570  73.7960  0.00  0.00     0.000 OA
ATOM     12   O  IDS C   1     149.588  32.143  72.1210  0.00  0.00     0.000 OA
ATOM     13   O  IDS C   1     151.521  33.483  71.5800  0.00  0.00     0.000 OA
ENDBRANCH 2 9
BRANCH 5 14
ATOM     14   C  IDS C   1     146.592  38.370  70.8400  0.00  0.00     0.000 C
ATOM     15   O  IDS C   1     147.066  39.277  70.2000  0.00  0.00     0.000 OA
ATOM     16   O  IDS C   1     145.478  38.465  71.3270  0.00  0.00     0.000 OA
ENDBRANCH 5 14
BRANCH 1 17
ATOM     17  O4  SGN C   2     147.014  34.454  73.4290  0.00  0.00     0.000 O
BRANCH 17 21
ATOM     18  C1  SGN C   2     145.429  33.656  77.2200  0.00  0.00     0.000 C
ATOM     19  C2  SGN C   2     145.672  35.130  76.8740  0.00  0.00     0.000 C
ATOM     20  C3  SGN C   2     145.837  35.287  75.3580  0.00  0.00     0.000 C
ATOM     21  C4  SGN C   2     146.920  34.344  74.8460  0.00  0.00     0.000 C
ATOM     22  C5  SGN C   2     146.564  32.915  75.2470  0.00  0.00     0.000 C
ATOM     23  O5  SGN C   2     146.439  32.827  76.6850  0.00  0.00     0.000 O
ATOM     24   O  SGN C   2     146.148  36.634  75.0430  0.00  0.00     0.000 O
ATOM     26  HD  SGN C   2     145.756  35.868  74.9490  0.00  0.00     0.000 HD
BRANCH 19 28
ATOM     26   N  SGN C   2     144.815  35.806  77.8580  0.00  0.00     0.000 N
ATOM     28  HD  SGN C   2     145.080  35.093  78.2710  0.00  0.00     0.000 HD
ATOM     28   O  SGN C   2     143.937  37.932  78.8240  0.00  0.00     0.000 OA
ATOM     29   S  SGN C   2     145.275  37.143  78.6230  0.00  0.00     0.000 S
ATOM     30   O  SGN C   2     145.768  36.760  79.8900  0.00  0.00     0.000 OA
ATOM     31   O  SGN C   2     146.108  37.882  77.7390  0.00  0.00     0.000 OA
ENDBRANCH 19 28
BRANCH 22 32
ATOM     32   C  SGN C   2     147.606  31.902  74.8370  0.00  0.00     0.000 C
ATOM     33   S  SGN C   2     149.051  30.063  75.9190  0.00  0.00     0.000 S
ATOM     34   O  SGN C   2     149.967  31.020  76.4860  0.00  0.00     0.000 OA
ATOM     35   O  SGN C   2     148.770  28.941  76.7900  0.00  0.00     0.000 OA
ATOM     36   O  SGN C   2     149.370  29.674  74.5650  0.00  0.00     0.000 OA
ATOM     37   O  SGN C   2     147.669  30.855  75.8130  0.00  0.00     0.000 O
ENDBRANCH 22 32
BRANCH 18 38
ATOM     38  O4  IDS C   3     144.320  32.920  77.1230  0.00  0.00     0.000 O
BRANCH 38 42
ATOM     39  C1  IDS C   3     141.956  30.413  77.6300  0.00  0.00     0.000 C
ATOM     40  C2  IDS C   3     142.182  31.018  76.2350  0.00  0.00     0.000 C
ATOM     41  C3  IDS C   3     142.094  32.544  76.2740  0.00  0.00     0.000 C
ATOM     42  C4  IDS C   3     142.931  33.115  77.4110  0.00  0.00     0.000 C
ATOM     43  C5  IDS C   3     142.566  32.416  78.7260  0.00  0.00     0.000 C
ATOM     44  O5  IDS C   3     142.805  31.016  78.5930  0.00  0.00     0.000 O
ATOM     45   O  IDS C   3     140.730  32.936  76.4360  0.00  0.00     0.000 O
ATOM     47  HD  IDS C   3     140.106  32.758  77.0100  0.00  0.00     0.000 HD
BRANCH 40 47
ATOM     47   O  IDS C   3     143.527  30.663  75.7250  0.00  0.00     0.000 O
ATOM     48   S  IDS C   3     143.835  29.160  75.2740  0.00  0.00     0.000 S
ATOM     49   O  IDS C   3     144.020  28.408  76.4970  0.00  0.00     0.000 OA
ATOM     50   O  IDS C   3     145.045  29.239  74.4860  0.00  0.00     0.000 OA
ATOM     51   O  IDS C   3     142.694  28.720  74.5170  0.00  0.00     0.000 OA
ENDBRANCH 40 47
BRANCH 43 52
ATOM     52   C  IDS C   3     143.340  32.952  79.9100  0.00  0.00     0.000 C
ATOM     53   O  IDS C   3     143.383  34.144  80.1120  0.00  0.00     0.000 OA
ATOM     54   O  IDS C   3     143.911  32.188  80.6460  0.00  0.00     0.000 OA
ENDBRANCH 43 52
BRANCH 39 55
ATOM     55  O4  SGN C   4     140.757  30.071  78.1020  0.00  0.00     0.000 O
BRANCH 55 59
ATOM     56  C1  SGN C   4     136.582  30.322  78.2080  0.00  0.00     0.000 C
ATOM     57  C2  SGN C   4     137.204  29.766  76.9160  0.00  0.00     0.000 C
ATOM     58  C3  SGN C   4     138.658  29.361  77.1460  0.00  0.00     0.000 C
ATOM     59  C4  SGN C   4     139.436  30.498  77.7980  0.00  0.00     0.000 C
ATOM     60  C5  SGN C   4     138.716  30.915  79.0790  0.00  0.00     0.000 C
ATOM     61  O5  SGN C   4     137.392  31.364  78.7280  0.00  0.00     0.000 O
ATOM     62   O  SGN C   4     139.251  28.992  75.9080  0.00  0.00     0.000 O
ATOM     64  HD  SGN C   4     138.409  28.813  75.8070  0.00  0.00     0.000 HD
BRANCH 57 66
ATOM     64   N  SGN C   4     136.130  30.087  75.9620  0.00  0.00     0.000 N
ATOM     66  HD  SGN C   4     135.937  29.877  75.1450  0.00  0.00     0.000 HD
ATOM     66   S  SGN C   4     135.311  28.923  75.2410  0.00  0.00     0.000 S
ATOM     67   O  SGN C   4     134.399  29.537  74.3460  0.00  0.00     0.000 OA
ATOM     68   O  SGN C   4     136.263  27.993  74.7400  0.00  0.00     0.000 OA
ATOM     69   O  SGN C   4     134.519  28.249  76.4080  0.00  0.00     0.000 OA
ENDBRANCH 57 66
BRANCH 60 70
ATOM     70   C  SGN C   4     139.402  32.037  79.8270  0.00  0.00     0.000 C
ATOM     71   O  SGN C   4     137.827  34.402  82.2840  0.00  0.00     0.000 OA
ATOM     72   O  SGN C   4     139.189  32.464  82.7690  0.00  0.00     0.000 OA
ATOM     73   O  SGN C   4     138.432  32.851  80.5150  0.00  0.00     0.000 O
ATOM     74   S  SGN C   4     138.921  33.558  81.8630  0.00  0.00     0.000 S
ATOM     75   O  SGN C   4     140.109  34.298  81.4840  0.00  0.00     0.000 OA
ENDBRANCH 60 70
BRANCH 56 76
ATOM     76  O4  IDS C   5     135.871  29.811  79.2310  0.00  0.00     0.000 O
BRANCH 76 80
ATOM     77  C1  IDS C   5     137.127  27.096  82.0070  0.00  0.00     0.000 C
ATOM     78  C2  IDS C   5     136.623  26.482  80.7020  0.00  0.00     0.000 C
ATOM     79  C3  IDS C   5     136.604  27.534  79.6110  0.00  0.00     0.000 C
ATOM     80  C4  IDS C   5     135.576  28.608  79.9560  0.00  0.00     0.000 C
ATOM     81  C5  IDS C   5     135.605  28.873  81.4680  0.00  0.00     0.000 C
ATOM     82  O5  IDS C   5     136.871  28.501  82.0190  0.00  0.00     0.000 O
BRANCH 78 83
ATOM     83   O  IDS C   5     137.507  25.374  80.2690  0.00  0.00     0.000 O
ATOM     84   S  IDS C   5     139.091  25.561  80.3110  0.00  0.00     0.000 S
ATOM     85   O  IDS C   5     139.358  26.821  79.6720  0.00  0.00     0.000 OA
ATOM     86   O  IDS C   5     139.435  25.551  81.7140  0.00  0.00     0.000 OA
ATOM     87   O  IDS C   5     139.637  24.433  79.5970  0.00  0.00     0.000 OA
ENDBRANCH 78 83
BRANCH 81 88
ATOM     88   C  IDS C   5     135.350  30.321  81.8450  0.00  0.00     0.000 C
ATOM     89   O  IDS C   5     136.269  31.029  82.1560  0.00  0.00     0.000 OA
ATOM     90   O  IDS C   5     134.220  30.754  81.8280  0.00  0.00     0.000 OA
ENDBRANCH 81 88
ENDBRANCH 76 80
ENDBRANCH 56 76
ENDBRANCH 55 59
ENDBRANCH 39 55
ENDBRANCH 38 42
ENDBRANCH 18 38
ENDBRANCH 17 21
ENDBRANCH 1 17
TORSDOF 18
ENDMDL
MODEL 19
REMARK VINA RESULT:      -7.5     19.935     27.091
ROOT
ATOM      1  C1  IDS C   1     150.288  31.864  86.1520  0.00  0.00     0.000 C
ATOM      2  C2  IDS C   1     150.204  32.038  87.6710  0.00  0.00     0.000 C
ATOM      3  C3  IDS C   1     151.573  31.868  88.3120  0.00  0.00     0.000 C
ATOM      4  C4  IDS C   1     152.147  30.494  87.9950  0.00  0.00     0.000 C
ATOM      5  C5  IDS C   1     151.823  30.111  86.5540  0.00  0.00     0.000 C
ATOM      6  O5  IDS C   1     151.532  31.280  85.7890  0.00  0.00     0.000 O
ATOM      7   O  IDS C   1     151.469  32.040  89.7320  0.00  0.00     0.000 O
ATOM      9  HD  IDS C   1     150.883  32.657  89.8890  0.00  0.00     0.000 HD
ENDROOT
BRANCH 2 9
ATOM      9   O  IDS C   1     149.712  33.390  88.0200  0.00  0.00     0.000 O
ATOM     10   S  IDS C   1     148.419  33.541  88.9410  0.00  0.00     0.000 S
ATOM     11   O  IDS C   1     148.213  34.963  89.1050  0.00  0.00     0.000 OA
ATOM     12   O  IDS C   1     147.346  32.895  88.2130  0.00  0.00     0.000 OA
ATOM     13   O  IDS C   1     148.739  32.874  90.1830  0.00  0.00     0.000 OA
ENDBRANCH 2 9
BRANCH 5 14
ATOM     14   C  IDS C   1     152.969  29.370  85.8860  0.00  0.00     0.000 C
ATOM     15   O  IDS C   1     152.859  28.190  85.6560  0.00  0.00     0.000 OA
ATOM     16   O  IDS C   1     153.988  29.971  85.5910  0.00  0.00     0.000 OA
ENDBRANCH 5 14
BRANCH 1 17
ATOM     17  O4  SGN C   2     149.649  32.662  85.2920  0.00  0.00     0.000 O
BRANCH 17 21
ATOM     18  C1  SGN C   2     149.414  35.803  82.5340  0.00  0.00     0.000 C
ATOM     19  C2  SGN C   2     150.821  35.360  82.9530  0.00  0.00     0.000 C
ATOM     20  C3  SGN C   2     150.758  33.973  83.6040  0.00  0.00     0.000 C
ATOM     21  C4  SGN C   2     149.744  33.973  84.7420  0.00  0.00     0.000 C
ATOM     22  C5  SGN C   2     148.389  34.423  84.2020  0.00  0.00     0.000 C
ATOM     23  O5  SGN C   2     148.510  35.741  83.6170  0.00  0.00     0.000 O
ATOM     24   O  SGN C   2     152.044  33.600  84.0700  0.00  0.00     0.000 O
ATOM     26  HD  SGN C   2     151.274  33.487  83.6890  0.00  0.00     0.000 HD
BRANCH 19 28
ATOM     26   N  SGN C   2     151.673  35.582  81.7760  0.00  0.00     0.000 N
ATOM     28  HD  SGN C   2     150.881  35.798  81.5010  0.00  0.00     0.000 HD
ATOM     28   O  SGN C   2     153.885  36.246  80.8340  0.00  0.00     0.000 OA
ATOM     29   S  SGN C   2     152.696  36.819  81.6760  0.00  0.00     0.000 S
ATOM     30   O  SGN C   2     152.061  37.836  80.9290  0.00  0.00     0.000 OA
ATOM     31   O  SGN C   2     153.163  37.099  82.9900  0.00  0.00     0.000 OA
ENDBRANCH 19 28
BRANCH 22 32
ATOM     32   C  SGN C   2     147.322  34.514  85.2640  0.00  0.00     0.000 C
ATOM     33   S  SGN C   2     144.809  35.058  85.4460  0.00  0.00     0.000 S
ATOM     34   O  SGN C   2     145.037  36.476  85.3200  0.00  0.00     0.000 OA
ATOM     35   O  SGN C   2     143.624  34.596  84.7540  0.00  0.00     0.000 OA
ATOM     36   O  SGN C   2     144.914  34.563  86.7990  0.00  0.00     0.000 OA
ATOM     37   O  SGN C   2     146.029  34.392  84.6600  0.00  0.00     0.000 O
ENDBRANCH 22 32
BRANCH 18 38
ATOM     38  O4  IDS C   3     148.678  35.449  81.4770  0.00  0.00     0.000 O
BRANCH 38 42
ATOM     39  C1  IDS C   3     146.941  35.083  78.4810  0.00  0.00     0.000 C
ATOM     40  C2  IDS C   3     146.194  35.233  79.8170  0.00  0.00     0.000 C
ATOM     41  C3  IDS C   3     146.699  34.224  80.8480  0.00  0.00     0.000 C
ATOM     42  C4  IDS C   3     148.220  34.216  80.9130  0.00  0.00     0.000 C
ATOM     43  C5  IDS C   3     148.798  34.039  79.5040  0.00  0.00     0.000 C
ATOM     44  O5  IDS C   3     148.345  35.108  78.6750  0.00  0.00     0.000 O
ATOM     45   O  IDS C   3     146.223  32.921  80.5070  0.00  0.00     0.000 O
ATOM     47  HD  IDS C   3     146.269  32.417  79.8040  0.00  0.00     0.000 HD
BRANCH 40 47
ATOM     47   O  IDS C   3     146.403  36.588  80.3800  0.00  0.00     0.000 O
ATOM     48   S  IDS C   3     145.344  37.747  80.0770  0.00  0.00     0.000 S
ATOM     49   O  IDS C   3     145.613  38.188  78.7260  0.00  0.00     0.000 OA
ATOM     50   O  IDS C   3     145.614  38.775  81.0590  0.00  0.00     0.000 OA
ATOM     51   O  IDS C   3     144.041  37.155  80.2220  0.00  0.00     0.000 OA
ENDBRANCH 40 47
BRANCH 43 52
ATOM     52   C  IDS C   3     150.310  33.993  79.4930  0.00  0.00     0.000 C
ATOM     53   O  IDS C   3     150.889  33.059  79.9970  0.00  0.00     0.000 OA
ATOM     54   O  IDS C   3     150.931  34.889  78.9800  0.00  0.00     0.000 OA
ENDBRANCH 43 52
BRANCH 39 55
ATOM     55  O4  SGN C   4     146.543  34.274  77.4990  0.00  0.00     0.000 O
BRANCH 55 59
ATOM     56  C1  SGN C   4     147.486  34.636  73.4390  0.00  0.00     0.000 C
ATOM     57  C2  SGN C   4     146.969  35.904  74.1410  0.00  0.00     0.000 C
ATOM     58  C3  SGN C   4     147.043  35.751  75.6580  0.00  0.00     0.000 C
ATOM     59  C4  SGN C   4     146.376  34.454  76.1000  0.00  0.00     0.000 C
ATOM     60  C5  SGN C   4     147.015  33.291  75.3450  0.00  0.00     0.000 C
ATOM     61  O5  SGN C   4     146.803  33.496  73.9340  0.00  0.00     0.000 O
ATOM     62   O  SGN C   4     146.425  36.870  76.2790  0.00  0.00     0.000 O
ATOM     64  HD  SGN C   4     146.714  37.175  75.5220  0.00  0.00     0.000 HD
BRANCH 57 66
ATOM     64   N  SGN C   4     147.572  36.557  72.9680  0.00  0.00     0.000 N
ATOM     66  HD  SGN C   4     147.284  36.909  72.2310  0.00  0.00     0.000 HD
ATOM     66   S  SGN C   4     147.083  38.003  72.5040  0.00  0.00     0.000 S
ATOM     67   O  SGN C   4     147.797  38.335  71.3250  0.00  0.00     0.000 OA
ATOM     68   O  SGN C   4     145.662  37.973  72.4750  0.00  0.00     0.000 OA
ATOM     69   O  SGN C   4     147.540  38.940  73.6680  0.00  0.00     0.000 OA
ENDBRANCH 57 66
BRANCH 60 70
ATOM     70   C  SGN C   4     146.441  31.938  75.7070  0.00  0.00     0.000 C
ATOM     71   O  SGN C   4     148.296  29.017  77.1670  0.00  0.00     0.000 OA
ATOM     72   O  SGN C   4     146.867  30.584  78.3280  0.00  0.00     0.000 OA
ATOM     73   O  SGN C   4     147.495  31.015  76.0420  0.00  0.00     0.000 O
ATOM     74   S  SGN C   4     147.133  29.871  77.0990  0.00  0.00     0.000 S
ATOM     75   O  SGN C   4     145.965  29.214  76.5480  0.00  0.00     0.000 OA
ENDBRANCH 60 70
BRANCH 56 76
ATOM     76  O4  IDS C   5     148.669  34.221  72.9510  0.00  0.00     0.000 O
BRANCH 76 80
ATOM     77  C1  IDS C   5     152.475  33.141  71.9460  0.00  0.00     0.000 C
ATOM     78  C2  IDS C   5     151.454  32.005  71.8780  0.00  0.00     0.000 C
ATOM     79  C3  IDS C   5     150.051  32.577  71.8310  0.00  0.00     0.000 C
ATOM     80  C4  IDS C   5     149.747  33.293  73.1440  0.00  0.00     0.000 C
ATOM     81  C5  IDS C   5     151.006  34.026  73.6270  0.00  0.00     0.000 C
ATOM     82  O5  IDS C   5     151.880  34.301  72.5280  0.00  0.00     0.000 O
BRANCH 78 83
ATOM     83   O  IDS C   5     151.665  31.183  70.6640  0.00  0.00     0.000 O
ATOM     84   S  IDS C   5     152.396  29.770  70.7810  0.00  0.00     0.000 S
ATOM     85   O  IDS C   5     153.584  30.002  71.5570  0.00  0.00     0.000 OA
ATOM     86   O  IDS C   5     151.446  28.906  71.4410  0.00  0.00     0.000 OA
ATOM     87   O  IDS C   5     152.672  29.360  69.4260  0.00  0.00     0.000 OA
ENDBRANCH 78 83
BRANCH 81 88
ATOM     88   C  IDS C   5     150.722  35.343  74.3270  0.00  0.00     0.000 C
ATOM     89   O  IDS C   5     150.709  36.365  73.6950  0.00  0.00     0.000 OA
ATOM     90   O  IDS C   5     150.510  35.355  75.5170  0.00  0.00     0.000 OA
ENDBRANCH 81 88
ENDBRANCH 76 80
ENDBRANCH 56 76
ENDBRANCH 55 59
ENDBRANCH 39 55
ENDBRANCH 38 42
ENDBRANCH 18 38
ENDBRANCH 17 21
ENDBRANCH 1 17
TORSDOF 18
ENDMDL
MODEL 20
REMARK VINA RESULT:      -7.4      7.646     13.275
ROOT
ATOM      1  C1  IDS C   1     170.022  25.776  78.2370  0.00  0.00     0.000 C
ATOM      2  C2  IDS C   1     171.212  26.165  77.3550  0.00  0.00     0.000 C
ATOM      3  C3  IDS C   1     172.366  25.191  77.5440  0.00  0.00     0.000 C
ATOM      4  C4  IDS C   1     172.809  25.160  79.0000  0.00  0.00     0.000 C
ATOM      5  C5  IDS C   1     171.593  25.235  79.9190  0.00  0.00     0.000 C
ATOM      6  O5  IDS C   1     170.421  24.825  79.2160  0.00  0.00     0.000 O
ATOM      7   O  IDS C   1     173.466  25.574  76.7060  0.00  0.00     0.000 O
ATOM      9  HD  IDS C   1     173.147  25.881  75.9620  0.00  0.00     0.000 HD
ENDROOT
BRANCH 2 9
ATOM      9   O  IDS C   1     170.838  26.140  75.9230  0.00  0.00     0.000 O
ATOM     10   S  IDS C   1     170.991  27.466  75.0500  0.00  0.00     0.000 S
ATOM     11   O  IDS C   1     170.563  27.113  73.7150  0.00  0.00     0.000 OA
ATOM     12   O  IDS C   1     170.131  28.448  75.6770  0.00  0.00     0.000 OA
ATOM     13   O  IDS C   1     172.392  27.821  75.1140  0.00  0.00     0.000 OA
ENDBRANCH 2 9
BRANCH 5 14
ATOM     14   C  IDS C   1     171.749  24.356  81.1490  0.00  0.00     0.000 C
ATOM     15   O  IDS C   1     170.922  24.410  82.0250  0.00  0.00     0.000 OA
ATOM     16   O  IDS C   1     172.707  23.607  81.2400  0.00  0.00     0.000 OA
ENDBRANCH 5 14
BRANCH 1 17
ATOM     17  O4  SGN C   2     168.758  25.798  77.8040  0.00  0.00     0.000 O
BRANCH 17 21
ATOM     18  C1  SGN C   2     165.001  24.135  77.0060  0.00  0.00     0.000 C
ATOM     19  C2  SGN C   2     165.932  23.323  77.9150  0.00  0.00     0.000 C
ATOM     20  C3  SGN C   2     167.053  24.224  78.4470  0.00  0.00     0.000 C
ATOM     21  C4  SGN C   2     167.765  24.916  77.2900  0.00  0.00     0.000 C
ATOM     22  C5  SGN C   2     166.740  25.690  76.4660  0.00  0.00     0.000 C
ATOM     23  O5  SGN C   2     165.720  24.786  75.9800  0.00  0.00     0.000 O
ATOM     24   O  SGN C   2     167.963  23.457  79.2180  0.00  0.00     0.000 O
ATOM     26  HD  SGN C   2     167.469  24.141  79.0220  0.00  0.00     0.000 HD
BRANCH 19 28
ATOM     26   N  SGN C   2     164.983  22.404  78.5590  0.00  0.00     0.000 N
ATOM     28  HD  SGN C   2     164.670  22.494  77.7570  0.00  0.00     0.000 HD
ATOM     28   O  SGN C   2     164.562  20.571  80.1980  0.00  0.00     0.000 OA
ATOM     29   S  SGN C   2     165.356  20.873  78.8820  0.00  0.00     0.000 S
ATOM     30   O  SGN C   2     164.827  20.077  77.8420  0.00  0.00     0.000 OA
ATOM     31   O  SGN C   2     166.747  20.820  79.1700  0.00  0.00     0.000 OA
ENDBRANCH 19 28
BRANCH 22 32
ATOM     32   C  SGN C   2     167.334  26.368  75.2560  0.00  0.00     0.000 C
ATOM     33   S  SGN C   2     166.585  27.927  73.3450  0.00  0.00     0.000 S
ATOM     34   O  SGN C   2     165.937  26.855  72.6320  0.00  0.00     0.000 OA
ATOM     35   O  SGN C   2     165.863  29.181  73.2920  0.00  0.00     0.000 OA
ATOM     36   O  SGN C   2     167.993  28.062  73.0540  0.00  0.00     0.000 OA
ATOM     37   O  SGN C   2     166.515  27.480  74.8760  0.00  0.00     0.000 O
ENDBRANCH 22 32
BRANCH 18 38
ATOM     38  O4  IDS C   3     164.028  24.995  77.3160  0.00  0.00     0.000 O
BRANCH 38 42
ATOM     39  C1  IDS C   3     161.178  26.960  77.6980  0.00  0.00     0.000 C
ATOM     40  C2  IDS C   3     162.201  27.255  76.5890  0.00  0.00     0.000 C
ATOM     41  C3  IDS C   3     163.616  27.365  77.1570  0.00  0.00     0.000 C
ATOM     42  C4  IDS C   3     163.930  26.199  78.0840  0.00  0.00     0.000 C
ATOM     43  C5  IDS C   3     162.823  26.059  79.1360  0.00  0.00     0.000 C
ATOM     44  O5  IDS C   3     161.576  25.844  78.4770  0.00  0.00     0.000 O
ATOM     45   O  IDS C   3     163.745  28.596  77.8710  0.00  0.00     0.000 O
ATOM     47  HD  IDS C   3     163.317  28.974  78.5220  0.00  0.00     0.000 HD
BRANCH 40 47
ATOM     47   O  IDS C   3     162.209  26.165  75.5850  0.00  0.00     0.000 O
ATOM     48   S  IDS C   3     162.097  26.517  74.0280  0.00  0.00     0.000 S
ATOM     49   O  IDS C   3     160.703  26.826  73.7900  0.00  0.00     0.000 OA
ATOM     50   O  IDS C   3     162.524  25.321  73.3360  0.00  0.00     0.000 OA
ATOM     51   O  IDS C   3     162.964  27.642  73.8020  0.00  0.00     0.000 OA
ENDBRANCH 40 47
BRANCH 43 52
ATOM     52   C  IDS C   3     163.082  24.934  80.1130  0.00  0.00     0.000 C
ATOM     53   O  IDS C   3     162.554  23.858  79.9470  0.00  0.00     0.000 OA
ATOM     54   O  IDS C   3     163.814  25.115  81.0520  0.00  0.00     0.000 OA
ENDBRANCH 43 52
BRANCH 39 55
ATOM     55  O4  SGN C   4     160.545  27.907  78.3900  0.00  0.00     0.000 O
BRANCH 55 59
ATOM     56  C1  SGN C   4     159.764  31.889  79.4080  0.00  0.00     0.000 C
ATOM     57  C2  SGN C   4     159.385  31.458  77.9810  0.00  0.00     0.000 C
ATOM     58  C3  SGN C   4     159.347  29.936  77.8680  0.00  0.00     0.000 C
ATOM     59  C4  SGN C   4     160.637  29.325  78.4040  0.00  0.00     0.000 C
ATOM     60  C5  SGN C   4     160.857  29.818  79.8330  0.00  0.00     0.000 C
ATOM     61  O5  SGN C   4     160.970  31.255  79.8020  0.00  0.00     0.000 O
ATOM     62   O  SGN C   4     159.142  29.565  76.5120  0.00  0.00     0.000 O
ATOM     64  HD  SGN C   4     158.763  30.340  76.5840  0.00  0.00     0.000 HD
BRANCH 57 66
ATOM     64   N  SGN C   4     158.450  32.593  78.0280  0.00  0.00     0.000 N
ATOM     66  HD  SGN C   4     158.467  33.427  77.7950  0.00  0.00     0.000 HD
ATOM     66   S  SGN C   4     158.113  33.422  76.7060  0.00  0.00     0.000 S
ATOM     67   O  SGN C   4     157.242  34.477  77.0770  0.00  0.00     0.000 OA
ATOM     68   O  SGN C   4     159.352  33.726  76.0780  0.00  0.00     0.000 OA
ATOM     69   O  SGN C   4     157.338  32.399  75.8150  0.00  0.00     0.000 OA
ENDBRANCH 57 66
BRANCH 60 70
ATOM     70   C  SGN C   4     162.110  29.270  80.4820  0.00  0.00     0.000 C
ATOM     71   O  SGN C   4     164.983  31.250  81.8700  0.00  0.00     0.000 OA
ATOM     72   O  SGN C   4     163.185  30.201  83.1000  0.00  0.00     0.000 OA
ATOM     73   O  SGN C   4     163.069  30.323  80.6970  0.00  0.00     0.000 O
ATOM     74   S  SGN C   4     164.052  30.148  81.9460  0.00  0.00     0.000 S
ATOM     75   O  SGN C   4     164.673  28.853  81.7500  0.00  0.00     0.000 OA
ENDBRANCH 60 70
BRANCH 56 76
ATOM     76  O4  IDS C   5     159.089  32.211  80.5270  0.00  0.00     0.000 O
BRANCH 76 80
ATOM     77  C1  IDS C   5     157.471  32.319  84.2730  0.00  0.00     0.000 C
ATOM     78  C2  IDS C   5     157.517  30.927  83.6410  0.00  0.00     0.000 C
ATOM     79  C3  IDS C   5     158.502  30.918  82.4890  0.00  0.00     0.000 C
ATOM     80  C4  IDS C   5     157.996  31.832  81.3770  0.00  0.00     0.000 C
ATOM     81  C5  IDS C   5     157.342  33.074  81.9970  0.00  0.00     0.000 C
ATOM     82  O5  IDS C   5     157.851  33.306  83.3140  0.00  0.00     0.000 O
BRANCH 78 83
ATOM     83   O  IDS C   5     157.948  29.916  84.6340  0.00  0.00     0.000 O
ATOM     84   S  IDS C   5     156.924  28.790  85.1140  0.00  0.00     0.000 S
ATOM     85   O  IDS C   5     155.709  29.479  85.4550  0.00  0.00     0.000 OA
ATOM     86   O  IDS C   5     156.777  27.905  83.9820  0.00  0.00     0.000 OA
ATOM     87   O  IDS C   5     157.551  28.148  86.2430  0.00  0.00     0.000 OA
ENDBRANCH 78 83
BRANCH 81 88
ATOM     88   C  IDS C   5     157.553  34.346  81.1960  0.00  0.00     0.000 C
ATOM     89   O  IDS C   5     158.365  35.154  81.5570  0.00  0.00     0.000 OA
ATOM     90   O  IDS C   5     156.900  34.538  80.1950  0.00  0.00     0.000 OA
ENDBRANCH 81 88
ENDBRANCH 76 80
ENDBRANCH 56 76
ENDBRANCH 55 59
ENDBRANCH 39 55
ENDBRANCH 38 42
ENDBRANCH 18 38
ENDBRANCH 17 21
ENDBRANCH 1 17
TORSDOF 18
ENDMDL
MODEL 21
REMARK VINA RESULT:      -7.4     41.503     46.716
ROOT
ATOM      1  C1  IDS C   1     133.829  43.512  61.1880  0.00  0.00     0.000 C
ATOM      2  C2  IDS C   1     132.553  42.667  61.2250  0.00  0.00     0.000 C
ATOM      3  C3  IDS C   1     132.482  41.849  62.5060  0.00  0.00     0.000 C
ATOM      4  C4  IDS C   1     133.694  40.935  62.6260  0.00  0.00     0.000 C
ATOM      5  C5  IDS C   1     134.946  41.658  62.1400  0.00  0.00     0.000 C
ATOM      6  O5  IDS C   1     134.744  43.071  62.1830  0.00  0.00     0.000 O
ATOM      7   O  IDS C   1     131.278  41.070  62.5190  0.00  0.00     0.000 O
ATOM      9  HD  IDS C   1     130.647  41.538  62.1530  0.00  0.00     0.000 HD
ENDROOT
BRANCH 2 9
ATOM      9   O  IDS C   1     131.349  43.528  61.1790  0.00  0.00     0.000 O
ATOM     10   S  IDS C   1     130.331  43.387  59.9590  0.00  0.00     0.000 S
ATOM     11   O  IDS C   1     129.274  44.340  60.2140  0.00  0.00     0.000 OA
ATOM     12   O  IDS C   1     131.100  43.701  58.7720  0.00  0.00     0.000 OA
ATOM     13   O  IDS C   1     129.870  42.017  59.9860  0.00  0.00     0.000 OA
ENDBRANCH 2 9
BRANCH 5 14
ATOM     14   C  IDS C   1     136.166  41.320  62.9810  0.00  0.00     0.000 C
ATOM     15   O  IDS C   1     136.082  40.472  63.8350  0.00  0.00     0.000 OA
ATOM     16   O  IDS C   1     137.216  41.909  62.7870  0.00  0.00     0.000 OA
ENDBRANCH 5 14
BRANCH 1 17
ATOM     17  O4  SGN C   2     133.848  44.785  60.7830  0.00  0.00     0.000 O
BRANCH 17 21
ATOM     18  C1  SGN C   2     133.592  48.857  61.7180  0.00  0.00     0.000 C
ATOM     19  C2  SGN C   2     133.271  47.872  62.8490  0.00  0.00     0.000 C
ATOM     20  C3  SGN C   2     133.809  46.480  62.4930  0.00  0.00     0.000 C
ATOM     21  C4  SGN C   2     133.286  46.049  61.1270  0.00  0.00     0.000 C
ATOM     22  C5  SGN C   2     133.670  47.102  60.0920  0.00  0.00     0.000 C
ATOM     23  O5  SGN C   2     133.122  48.385  60.4730  0.00  0.00     0.000 O
ATOM     24   O  SGN C   2     133.439  45.549  63.4950  0.00  0.00     0.000 O
ATOM     26  HD  SGN C   2     133.963  45.929  62.9200  0.00  0.00     0.000 HD
BRANCH 19 28
ATOM     26   N  SGN C   2     133.408  48.731  64.0330  0.00  0.00     0.000 N
ATOM     28  HD  SGN C   2     133.088  49.262  63.4290  0.00  0.00     0.000 HD
ATOM     28   O  SGN C   2     133.343  48.975  66.5140  0.00  0.00     0.000 OA
ATOM     29   S  SGN C   2     132.425  48.610  65.3000  0.00  0.00     0.000 S
ATOM     30   O  SGN C   2     131.434  49.608  65.1660  0.00  0.00     0.000 OA
ATOM     31   O  SGN C   2     132.038  47.247  65.4170  0.00  0.00     0.000 OA
ENDBRANCH 19 28
BRANCH 22 32
ATOM     32   C  SGN C   2     133.148  46.799  58.7090  0.00  0.00     0.000 C
ATOM     33   S  SGN C   2     131.233  47.545  57.1530  0.00  0.00     0.000 S
ATOM     34   O  SGN C   2     130.254  46.768  57.8720  0.00  0.00     0.000 OA
ATOM     35   O  SGN C   2     130.739  48.831  56.7060  0.00  0.00     0.000 OA
ATOM     36   O  SGN C   2     131.930  46.808  56.1260  0.00  0.00     0.000 OA
ATOM     37   O  SGN C   2     132.342  47.890  58.2480  0.00  0.00     0.000 O
ENDBRANCH 22 32
BRANCH 18 38
ATOM     38  O4  IDS C   3     134.732  49.484  61.4180  0.00  0.00     0.000 O
BRANCH 38 42
ATOM     39  C1  IDS C   3     137.403  51.645  60.8560  0.00  0.00     0.000 C
ATOM     40  C2  IDS C   3     136.704  50.930  59.6890  0.00  0.00     0.000 C
ATOM     41  C3  IDS C   3     136.628  49.423  59.9300  0.00  0.00     0.000 C
ATOM     42  C4  IDS C   3     136.112  49.114  61.3290  0.00  0.00     0.000 C
ATOM     43  C5  IDS C   3     136.930  49.891  62.3670  0.00  0.00     0.000 C
ATOM     44  O5  IDS C   3     136.820  51.288  62.0980  0.00  0.00     0.000 O
ATOM     45   O  IDS C   3     137.926  48.850  59.7580  0.00  0.00     0.000 O
ATOM     47  HD  IDS C   3     138.709  48.994  60.0990  0.00  0.00     0.000 HD
BRANCH 40 47
ATOM     47   O  IDS C   3     135.317  51.426  59.5310  0.00  0.00     0.000 O
ATOM     48   S  IDS C   3     134.974  52.476  58.3740  0.00  0.00     0.000 S
ATOM     49   O  IDS C   3     135.456  53.757  58.8440  0.00  0.00     0.000 OA
ATOM     50   O  IDS C   3     133.533  52.441  58.2430  0.00  0.00     0.000 OA
ATOM     51   O  IDS C   3     135.660  52.020  57.1950  0.00  0.00     0.000 OA
ENDBRANCH 40 47
BRANCH 43 52
ATOM     52   C  IDS C   3     136.490  49.612  63.7870  0.00  0.00     0.000 C
ATOM     53   O  IDS C   3     136.578  48.492  64.2370  0.00  0.00     0.000 OA
ATOM     54   O  IDS C   3     136.054  50.508  64.4650  0.00  0.00     0.000 OA
ENDBRANCH 43 52
BRANCH 39 55
ATOM     55  O4  SGN C   4     138.719  51.852  60.9140  0.00  0.00     0.000 O
BRANCH 55 59
ATOM     56  C1  SGN C   4     142.701  50.644  60.4790  0.00  0.00     0.000 C
ATOM     57  C2  SGN C   4     141.814  50.555  59.2250  0.00  0.00     0.000 C
ATOM     58  C3  SGN C   4     140.540  51.375  59.4030  0.00  0.00     0.000 C
ATOM     59  C4  SGN C   4     139.845  51.010  60.7100  0.00  0.00     0.000 C
ATOM     60  C5  SGN C   4     140.837  51.180  61.8580  0.00  0.00     0.000 C
ATOM     61  O5  SGN C   4     141.950  50.292  61.6290  0.00  0.00     0.000 O
ATOM     62   O  SGN C   4     139.674  51.156  58.2970  0.00  0.00     0.000 O
ATOM     64  HD  SGN C   4     140.470  51.031  57.9780  0.00  0.00     0.000 HD
BRANCH 57 66
ATOM     64   N  SGN C   4     142.760  49.618  58.5960  0.00  0.00     0.000 N
ATOM     66  HD  SGN C   4     142.784  49.147  57.8690  0.00  0.00     0.000 HD
ATOM     66   S  SGN C   4     143.255  49.849  57.0970  0.00  0.00     0.000 S
ATOM     67   O  SGN C   4     144.099  48.762  56.7560  0.00  0.00     0.000 OA
ATOM     68   O  SGN C   4     142.098  50.108  56.3110  0.00  0.00     0.000 OA
ATOM     69   O  SGN C   4     144.104  51.157  57.1840  0.00  0.00     0.000 OA
ENDBRANCH 57 66
BRANCH 60 70
ATOM     70   C  SGN C   4     140.259  50.854  63.2190  0.00  0.00     0.000 C
ATOM     71   O  SGN C   4     140.250  47.508  64.9240  0.00  0.00     0.000 OA
ATOM     72   O  SGN C   4     141.725  49.376  65.3510  0.00  0.00     0.000 OA
ATOM     73   O  SGN C   4     140.259  49.431  63.4400  0.00  0.00     0.000 O
ATOM     74   S  SGN C   4     140.404  48.944  64.9560  0.00  0.00     0.000 S
ATOM     75   O  SGN C   4     139.338  49.623  65.6660  0.00  0.00     0.000 OA
ENDBRANCH 60 70
BRANCH 56 76
ATOM     76  O4  IDS C   5     143.722  51.423  60.8810  0.00  0.00     0.000 O
BRANCH 76 80
ATOM     77  C1  IDS C   5     147.387  53.218  60.8860  0.00  0.00     0.000 C
ATOM     78  C2  IDS C   5     147.421  51.709  60.6460  0.00  0.00     0.000 C
ATOM     79  C3  IDS C   5     146.046  51.224  60.2290  0.00  0.00     0.000 C
ATOM     80  C4  IDS C   5     145.066  51.411  61.3840  0.00  0.00     0.000 C
ATOM     81  C5  IDS C   5     145.380  52.729  62.1080  0.00  0.00     0.000 C
ATOM     82  O5  IDS C   5     146.066  53.631  61.2360  0.00  0.00     0.000 O
BRANCH 78 83
ATOM     83   O  IDS C   5     148.383  51.370  59.5720  0.00  0.00     0.000 O
ATOM     84   S  IDS C   5     149.470  50.228  59.8120  0.00  0.00     0.000 S
ATOM     85   O  IDS C   5     150.075  50.519  61.0830  0.00  0.00     0.000 OA
ATOM     86   O  IDS C   5     148.725  48.990  59.8070  0.00  0.00     0.000 OA
ATOM     87   O  IDS C   5     150.391  50.326  58.7060  0.00  0.00     0.000 OA
ENDBRANCH 78 83
BRANCH 81 88
ATOM     88   C  IDS C   5     144.152  53.448  62.6360  0.00  0.00     0.000 C
ATOM     89   O  IDS C   5     143.579  53.024  63.6040  0.00  0.00     0.000 OA
ATOM     90   O  IDS C   5     143.757  54.446  62.0780  0.00  0.00     0.000 OA
ENDBRANCH 81 88
ENDBRANCH 76 80
ENDBRANCH 56 76
ENDBRANCH 55 59
ENDBRANCH 39 55
ENDBRANCH 38 42
ENDBRANCH 18 38
ENDBRANCH 17 21
ENDBRANCH 1 17
TORSDOF 18
ENDMDL
MODEL 22
REMARK VINA RESULT:      -7.4     41.634     47.648
ROOT
ATOM      1  C1  IDS C   1     134.274  43.645  61.9340  0.00  0.00     0.000 C
ATOM      2  C2  IDS C   1     133.129  42.680  61.6150  0.00  0.00     0.000 C
ATOM      3  C3  IDS C   1     133.081  41.544  62.6260  0.00  0.00     0.000 C
ATOM      4  C4  IDS C   1     134.396  40.777  62.6340  0.00  0.00     0.000 C
ATOM      5  C5  IDS C   1     135.567  41.744  62.4880  0.00  0.00     0.000 C
ATOM      6  O5  IDS C   1     135.168  43.060  62.8730  0.00  0.00     0.000 O
ATOM      7   O  IDS C   1     131.999  40.657  62.3080  0.00  0.00     0.000 O
ATOM      9  HD  IDS C   1     131.338  41.131  62.0110  0.00  0.00     0.000 HD
ENDROOT
BRANCH 2 9
ATOM      9   O  IDS C   1     131.823  43.377  61.6650  0.00  0.00     0.000 O
ATOM     10   S  IDS C   1     130.897  43.398  60.3670  0.00  0.00     0.000 S
ATOM     11   O  IDS C   1     129.708  44.133  60.7410  0.00  0.00     0.000 OA
ATOM     12   O  IDS C   1     131.674  44.067  59.3440  0.00  0.00     0.000 OA
ATOM     13   O  IDS C   1     130.624  42.013  60.0530  0.00  0.00     0.000 OA
ENDBRANCH 2 9
BRANCH 5 14
ATOM     14   C  IDS C   1     136.758  41.335  63.3380  0.00  0.00     0.000 C
ATOM     15   O  IDS C   1     136.622  40.478  64.1770  0.00  0.00     0.000 OA
ATOM     16   O  IDS C   1     137.838  41.875  63.1670  0.00  0.00     0.000 OA
ENDBRANCH 5 14
BRANCH 1 17
ATOM     17  O4  SGN C   2     134.144  44.974  61.8760  0.00  0.00     0.000 O
BRANCH 17 21
ATOM     18  C1  SGN C   2     134.679  48.687  63.7330  0.00  0.00     0.000 C
ATOM     19  C2  SGN C   2     134.886  47.445  64.6090  0.00  0.00     0.000 C
ATOM     20  C3  SGN C   2     135.076  46.209  63.7210  0.00  0.00     0.000 C
ATOM     21  C4  SGN C   2     133.919  46.087  62.7360  0.00  0.00     0.000 C
ATOM     22  C5  SGN C   2     133.818  47.375  61.9240  0.00  0.00     0.000 C
ATOM     23  O5  SGN C   2     133.624  48.500  62.8130  0.00  0.00     0.000 O
ATOM     24   O  SGN C   2     135.181  45.048  64.5270  0.00  0.00     0.000 O
ATOM     26  HD  SGN C   2     135.380  45.581  63.8750  0.00  0.00     0.000 HD
BRANCH 19 28
ATOM     26   N  SGN C   2     135.661  48.001  65.7260  0.00  0.00     0.000 N
ATOM     28  HD  SGN C   2     135.141  48.653  65.4920  0.00  0.00     0.000 HD
ATOM     28   O  SGN C   2     136.833  47.648  67.9000  0.00  0.00     0.000 OA
ATOM     29   S  SGN C   2     135.411  47.557  67.2510  0.00  0.00     0.000 S
ATOM     30   O  SGN C   2     134.580  48.532  67.8470  0.00  0.00     0.000 OA
ATOM     31   O  SGN C   2     135.002  46.196  67.2420  0.00  0.00     0.000 OA
ENDBRANCH 19 28
BRANCH 22 32
ATOM     32   C  SGN C   2     132.663  47.382  60.9540  0.00  0.00     0.000 C
ATOM     33   S  SGN C   2     132.264  47.575  58.4150  0.00  0.00     0.000 S
ATOM     34   O  SGN C   2     132.485  48.999  58.4190  0.00  0.00     0.000 OA
ATOM     35   O  SGN C   2     132.814  46.905  57.2540  0.00  0.00     0.000 OA
ATOM     36   O  SGN C   2     130.905  47.188  58.7120  0.00  0.00     0.000 OA
ATOM     37   O  SGN C   2     133.131  47.039  59.6440  0.00  0.00     0.000 O
ENDBRANCH 22 32
BRANCH 18 38
ATOM     38  O4  IDS C   3     135.565  49.427  63.0640  0.00  0.00     0.000 O
BRANCH 38 42
ATOM     39  C1  IDS C   3     138.533  50.739  61.8010  0.00  0.00     0.000 C
ATOM     40  C2  IDS C   3     138.397  50.379  63.2890  0.00  0.00     0.000 C
ATOM     41  C3  IDS C   3     137.159  51.030  63.9040  0.00  0.00     0.000 C
ATOM     42  C4  IDS C   3     135.930  50.811  63.0310  0.00  0.00     0.000 C
ATOM     43  C5  IDS C   3     136.233  51.239  61.5900  0.00  0.00     0.000 C
ATOM     44  O5  IDS C   3     137.331  50.473  61.0970  0.00  0.00     0.000 O
ATOM     45   O  IDS C   3     137.391  52.431  64.0650  0.00  0.00     0.000 O
ATOM     47  HD  IDS C   3     137.626  53.077  63.5380  0.00  0.00     0.000 HD
BRANCH 40 47
ATOM     47   O  IDS C   3     138.259  48.913  63.4580  0.00  0.00     0.000 O
ATOM     48   S  IDS C   3     139.009  48.178  64.6650  0.00  0.00     0.000 S
ATOM     49   O  IDS C   3     140.397  48.075  64.2660  0.00  0.00     0.000 OA
ATOM     50   O  IDS C   3     138.369  46.886  64.7790  0.00  0.00     0.000 OA
ATOM     51   O  IDS C   3     138.823  49.007  65.8250  0.00  0.00     0.000 OA
ENDBRANCH 40 47
BRANCH 43 52
ATOM     52   C  IDS C   3     135.045  51.075  60.6680  0.00  0.00     0.000 C
ATOM     53   O  IDS C   3     135.193  50.571  59.5780  0.00  0.00     0.000 OA
ATOM     54   O  IDS C   3     133.956  51.447  61.0250  0.00  0.00     0.000 OA
ENDBRANCH 43 52
BRANCH 39 55
ATOM     55  O4  SGN C   4     139.196  51.808  61.3570  0.00  0.00     0.000 O
BRANCH 55 59
ATOM     56  C1  SGN C   4     140.553  51.528  57.4090  0.00  0.00     0.000 C
ATOM     57  C2  SGN C   4     141.517  51.040  58.5040  0.00  0.00     0.000 C
ATOM     58  C3  SGN C   4     140.777  50.825  59.8210  0.00  0.00     0.000 C
ATOM     59  C4  SGN C   4     139.961  52.060  60.1870  0.00  0.00     0.000 C
ATOM     60  C5  SGN C   4     139.033  52.397  59.0210  0.00  0.00     0.000 C
ATOM     61  O5  SGN C   4     139.845  52.671  57.8620  0.00  0.00     0.000 O
ATOM     62   O  SGN C   4     141.711  50.520  60.8480  0.00  0.00     0.000 O
ATOM     64  HD  SGN C   4     142.087  50.234  60.1210  0.00  0.00     0.000 HD
BRANCH 57 66
ATOM     64   N  SGN C   4     142.120  49.972  57.6890  0.00  0.00     0.000 N
ATOM     66  HD  SGN C   4     142.633  49.931  56.9930  0.00  0.00     0.000 HD
ATOM     66   S  SGN C   4     143.694  49.943  57.4250  0.00  0.00     0.000 S
ATOM     67   O  SGN C   4     143.960  48.847  56.5680  0.00  0.00     0.000 OA
ATOM     68   O  SGN C   4     144.072  51.254  57.0230  0.00  0.00     0.000 OA
ATOM     69   O  SGN C   4     144.301  49.658  58.8360  0.00  0.00     0.000 OA
ENDBRANCH 57 66
BRANCH 60 70
ATOM     70   C  SGN C   4     138.158  53.607  59.2680  0.00  0.00     0.000 C
ATOM     71   O  SGN C   4     136.819  55.987  56.6900  0.00  0.00     0.000 OA
ATOM     72   O  SGN C   4     135.639  54.183  57.7840  0.00  0.00     0.000 OA
ATOM     73   O  SGN C   4     138.023  54.387  58.0650  0.00  0.00     0.000 O
ATOM     74   S  SGN C   4     136.658  55.202  57.8920  0.00  0.00     0.000 S
ATOM     75   O  SGN C   4     136.550  56.002  59.0950  0.00  0.00     0.000 OA
ENDBRANCH 60 70
BRANCH 56 76
ATOM     76  O4  IDS C   5     139.812  50.944  56.4490  0.00  0.00     0.000 O
BRANCH 76 80
ATOM     77  C1  IDS C   5     137.944  48.888  53.4590  0.00  0.00     0.000 C
ATOM     78  C2  IDS C   5     139.470  48.791  53.4390  0.00  0.00     0.000 C
ATOM     79  C3  IDS C   5     140.029  49.194  54.7890  0.00  0.00     0.000 C
ATOM     80  C4  IDS C   5     139.738  50.670  55.0420  0.00  0.00     0.000 C
ATOM     81  C5  IDS C   5     138.342  51.014  54.5020  0.00  0.00     0.000 C
ATOM     82  O5  IDS C   5     137.526  49.840  54.4370  0.00  0.00     0.000 O
BRANCH 78 83
ATOM     83   O  IDS C   5     139.903  47.404  53.1480  0.00  0.00     0.000 O
ATOM     84   S  IDS C   5     140.491  47.043  51.7100  0.00  0.00     0.000 S
ATOM     85   O  IDS C   5     139.566  47.591  50.7540  0.00  0.00     0.000 OA
ATOM     86   O  IDS C   5     141.791  47.669  51.6640  0.00  0.00     0.000 OA
ATOM     87   O  IDS C   5     140.566  45.603  51.6690  0.00  0.00     0.000 OA
ENDBRANCH 78 83
BRANCH 81 88
ATOM     88   C  IDS C   5     137.597  52.043  55.3320  0.00  0.00     0.000 C
ATOM     89   O  IDS C   5     137.781  53.215  55.1380  0.00  0.00     0.000 OA
ATOM     90   O  IDS C   5     136.820  51.677  56.1840  0.00  0.00     0.000 OA
ENDBRANCH 81 88
ENDBRANCH 76 80
ENDBRANCH 56 76
ENDBRANCH 55 59
ENDBRANCH 39 55
ENDBRANCH 38 42
ENDBRANCH 18 38
ENDBRANCH 17 21
ENDBRANCH 1 17
TORSDOF 18
ENDMDL
MODEL 23
REMARK VINA RESULT:      -7.3      8.065     15.915
ROOT
ATOM      1  C1  IDS C   1     161.375  33.943  78.4960  0.00  0.00     0.000 C
ATOM      2  C2  IDS C   1     160.264  34.844  79.0440  0.00  0.00     0.000 C
ATOM      3  C3  IDS C   1     160.170  36.133  78.2420  0.00  0.00     0.000 C
ATOM      4  C4  IDS C   1     161.492  36.887  78.2790  0.00  0.00     0.000 C
ATOM      5  C5  IDS C   1     162.657  35.905  78.1880  0.00  0.00     0.000 C
ATOM      6  O5  IDS C   1     162.217  34.674  77.6150  0.00  0.00     0.000 O
ATOM      7   O  IDS C   1     159.121  36.958  78.7700  0.00  0.00     0.000 O
ATOM      9  HD  IDS C   1     158.473  36.443  79.0260  0.00  0.00     0.000 HD
ENDROOT
BRANCH 2 9
ATOM      9   O  IDS C   1     158.949  34.169  78.9610  0.00  0.00     0.000 O
ATOM     10   S  IDS C   1     158.107  33.926  80.2930  0.00  0.00     0.000 S
ATOM     11   O  IDS C   1     156.887  33.270  79.8770  0.00  0.00     0.000 OA
ATOM     12   O  IDS C   1     158.940  33.088  81.1320  0.00  0.00     0.000 OA
ATOM     13   O  IDS C   1     157.875  35.236  80.8580  0.00  0.00     0.000 OA
ENDBRANCH 2 9
BRANCH 5 14
ATOM     14   C  IDS C   1     163.799  36.448  77.3460  0.00  0.00     0.000 C
ATOM     15   O  IDS C   1     163.776  36.299  76.1480  0.00  0.00     0.000 OA
ATOM     16   O  IDS C   1     164.727  37.025  77.8850  0.00  0.00     0.000 OA
ENDBRANCH 5 14
BRANCH 1 17
ATOM     17  O4  SGN C   2     161.231  32.623  78.3400  0.00  0.00     0.000 O
BRANCH 17 21
ATOM     18  C1  SGN C   2     160.277  29.389  75.8590  0.00  0.00     0.000 C
ATOM     19  C2  SGN C   2     160.011  30.790  75.2940  0.00  0.00     0.000 C
ATOM     20  C3  SGN C   2     160.783  31.834  76.1090  0.00  0.00     0.000 C
ATOM     21  C4  SGN C   2     160.456  31.691  77.5910  0.00  0.00     0.000 C
ATOM     22  C5  SGN C   2     160.765  30.264  78.0340  0.00  0.00     0.000 C
ATOM     23  O5  SGN C   2     159.997  29.329  77.2420  0.00  0.00     0.000 O
ATOM     24   O  SGN C   2     160.471  33.137  75.6440  0.00  0.00     0.000 O
ATOM     26  HD  SGN C   2     160.980  32.497  75.9290  0.00  0.00     0.000 HD
BRANCH 19 28
ATOM     26   N  SGN C   2     159.369  31.022  73.9930  0.00  0.00     0.000 N
ATOM     28  HD  SGN C   2     158.858  31.442  74.5530  0.00  0.00     0.000 HD
ATOM     28   O  SGN C   2     159.588  31.357  71.5310  0.00  0.00     0.000 OA
ATOM     29   S  SGN C   2     159.991  32.016  72.8930  0.00  0.00     0.000 S
ATOM     30   O  SGN C   2     159.321  33.255  73.0110  0.00  0.00     0.000 OA
ATOM     31   O  SGN C   2     161.406  31.968  73.0200  0.00  0.00     0.000 OA
ENDBRANCH 19 28
BRANCH 22 32
ATOM     32   C  SGN C   2     160.420  29.998  79.4790  0.00  0.00     0.000 C
ATOM     33   S  SGN C   2     161.420  30.409  81.8180  0.00  0.00     0.000 S
ATOM     34   O  SGN C   2     162.372  29.336  81.6750  0.00  0.00     0.000 OA
ATOM     35   O  SGN C   2     161.953  31.572  82.4970  0.00  0.00     0.000 OA
ATOM     36   O  SGN C   2     160.132  29.991  82.3190  0.00  0.00     0.000 OA
ATOM     37   O  SGN C   2     161.150  30.897  80.3220  0.00  0.00     0.000 O
ENDBRANCH 22 32
BRANCH 18 38
ATOM     38  O4  IDS C   3     161.331  28.584  75.7060  0.00  0.00     0.000 O
BRANCH 38 42
ATOM     39  C1  IDS C   3     164.394  26.940  75.5040  0.00  0.00     0.000 C
ATOM     40  C2  IDS C   3     163.874  27.792  74.3350  0.00  0.00     0.000 C
ATOM     41  C3  IDS C   3     162.455  27.384  73.9420  0.00  0.00     0.000 C
ATOM     42  C4  IDS C   3     161.553  27.278  75.1650  0.00  0.00     0.000 C
ATOM     43  C5  IDS C   3     162.212  26.379  76.2190  0.00  0.00     0.000 C
ATOM     44  O5  IDS C   3     163.474  26.936  76.5830  0.00  0.00     0.000 O
ATOM     45   O  IDS C   3     162.495  26.129  73.2620  0.00  0.00     0.000 O
ATOM     47  HD  IDS C   3     162.806  25.342  73.4460  0.00  0.00     0.000 HD
BRANCH 40 47
ATOM     47   O  IDS C   3     163.837  29.225  74.7130  0.00  0.00     0.000 O
ATOM     48   S  IDS C   3     165.203  30.037  74.8910  0.00  0.00     0.000 S
ATOM     49   O  IDS C   3     165.738  29.637  76.1750  0.00  0.00     0.000 OA
ATOM     50   O  IDS C   3     164.823  31.432  74.8600  0.00  0.00     0.000 OA
ATOM     51   O  IDS C   3     166.048  29.656  73.7910  0.00  0.00     0.000 OA
ENDBRANCH 40 47
BRANCH 43 52
ATOM     52   C  IDS C   3     161.358  26.204  77.4550  0.00  0.00     0.000 C
ATOM     53   O  IDS C   3     161.698  26.711  78.4990  0.00  0.00     0.000 OA
ATOM     54   O  IDS C   3     160.342  25.560  77.3930  0.00  0.00     0.000 OA
ENDBRANCH 43 52
BRANCH 39 55
ATOM     55  O4  SGN C   4     165.049  25.789  75.3450  0.00  0.00     0.000 O
BRANCH 55 59
ATOM     56  C1  SGN C   4     168.765  25.514  77.2480  0.00  0.00     0.000 C
ATOM     57  C2  SGN C   4     168.749  26.183  75.8620  0.00  0.00     0.000 C
ATOM     58  C3  SGN C   4     167.328  26.573  75.4650  0.00  0.00     0.000 C
ATOM     59  C4  SGN C   4     166.383  25.386  75.6170  0.00  0.00     0.000 C
ATOM     60  C5  SGN C   4     166.487  24.856  77.0460  0.00  0.00     0.000 C
ATOM     61  O5  SGN C   4     167.846  24.434  77.2740  0.00  0.00     0.000 O
ATOM     62   O  SGN C   4     167.322  27.050  74.1260  0.00  0.00     0.000 O
ATOM     64  HD  SGN C   4     168.117  27.234  74.4180  0.00  0.00     0.000 HD
BRANCH 57 66
ATOM     64   N  SGN C   4     169.782  27.211  76.0730  0.00  0.00     0.000 N
ATOM     66  HD  SGN C   4     170.624  27.219  76.2730  0.00  0.00     0.000 HD
ATOM     66   S  SGN C   4     171.153  27.162  75.2590  0.00  0.00     0.000 S
ATOM     67   O  SGN C   4     171.959  28.234  75.7180  0.00  0.00     0.000 OA
ATOM     68   O  SGN C   4     171.644  25.830  75.3490  0.00  0.00     0.000 OA
ATOM     69   O  SGN C   4     170.719  27.436  73.7830  0.00  0.00     0.000 OA
ENDBRANCH 57 66
BRANCH 60 70
ATOM     70   C  SGN C   4     165.583  23.675  77.3260  0.00  0.00     0.000 C
ATOM     71   O  SGN C   4     166.282  20.797  79.6360  0.00  0.00     0.000 OA
ATOM     72   O  SGN C   4     164.875  22.718  80.0580  0.00  0.00     0.000 OA
ATOM     73   O  SGN C   4     166.279  22.679  78.1000  0.00  0.00     0.000 O
ATOM     74   S  SGN C   4     165.386  21.785  79.0800  0.00  0.00     0.000 S
ATOM     75   O  SGN C   4     164.357  21.218  78.2300  0.00  0.00     0.000 OA
ENDBRANCH 60 70
BRANCH 56 76
ATOM     76  O4  IDS C   5     168.940  25.931  78.5150  0.00  0.00     0.000 O
BRANCH 76 80
ATOM     77  C1  IDS C   5     165.760  26.936  80.8680  0.00  0.00     0.000 C
ATOM     78  C2  IDS C   5     166.402  28.113  80.1330  0.00  0.00     0.000 C
ATOM     79  C3  IDS C   5     167.250  27.601  78.9850  0.00  0.00     0.000 C
ATOM     80  C4  IDS C   5     168.426  26.800  79.5360  0.00  0.00     0.000 C
ATOM     81  C5  IDS C   5     167.961  25.983  80.7500  0.00  0.00     0.000 C
ATOM     82  O5  IDS C   5     166.549  25.759  80.6940  0.00  0.00     0.000 O
BRANCH 78 83
ATOM     83   O  IDS C   5     165.365  29.016  79.5830  0.00  0.00     0.000 O
ATOM     84   S  IDS C   5     165.428  30.579  79.8970  0.00  0.00     0.000 S
ATOM     85   O  IDS C   5     165.622  30.690  81.3180  0.00  0.00     0.000 OA
ATOM     86   O  IDS C   5     166.547  31.074  79.1310  0.00  0.00     0.000 OA
ATOM     87   O  IDS C   5     164.167  31.118  79.4510  0.00  0.00     0.000 OA
ENDBRANCH 78 83
BRANCH 81 88
ATOM     88   C  IDS C   5     168.634  24.629  80.8760  0.00  0.00     0.000 C
ATOM     89   O  IDS C   5     169.787  24.562  81.2090  0.00  0.00     0.000 OA
ATOM     90   O  IDS C   5     168.005  23.623  80.6410  0.00  0.00     0.000 OA
ENDBRANCH 81 88
ENDBRANCH 76 80
ENDBRANCH 56 76
ENDBRANCH 55 59
ENDBRANCH 39 55
ENDBRANCH 38 42
ENDBRANCH 18 38
ENDBRANCH 17 21
ENDBRANCH 1 17
TORSDOF 18
ENDMDL
MODEL 24
REMARK VINA RESULT:      -7.3     13.060     16.757
ROOT
ATOM      1  C1  IDS C   1     179.309  28.842  69.4310  0.00  0.00     0.000 C
ATOM      2  C2  IDS C   1     180.125  27.552  69.5510  0.00  0.00     0.000 C
ATOM      3  C3  IDS C   1     181.616  27.857  69.5730  0.00  0.00     0.000 C
ATOM      4  C4  IDS C   1     182.032  28.599  68.3110  0.00  0.00     0.000 C
ATOM      5  C5  IDS C   1     180.959  29.610  67.9200  0.00  0.00     0.000 C
ATOM      6  O5  IDS C   1     180.147  29.926  69.0520  0.00  0.00     0.000 O
ATOM      7   O  IDS C   1     182.359  26.635  69.6910  0.00  0.00     0.000 O
ATOM      9  HD  IDS C   1     181.919  26.097  70.2080  0.00  0.00     0.000 HD
ENDROOT
BRANCH 2 9
ATOM      9   O  IDS C   1     179.797  26.835  70.8030  0.00  0.00     0.000 O
ATOM     10   S  IDS C   1     179.158  25.376  70.7260  0.00  0.00     0.000 S
ATOM     11   O  IDS C   1     178.972  24.952  72.0960  0.00  0.00     0.000 OA
ATOM     12   O  IDS C   1     177.908  25.536  70.0110  0.00  0.00     0.000 OA
ATOM     13   O  IDS C   1     180.117  24.562  70.0120  0.00  0.00     0.000 OA
ENDBRANCH 2 9
BRANCH 5 14
ATOM     14   C  IDS C   1     181.554  30.898  67.3800  0.00  0.00     0.000 C
ATOM     15   O  IDS C   1     182.753  31.005  67.2850  0.00  0.00     0.000 OA
ATOM     16   O  IDS C   1     180.819  31.813  67.0480  0.00  0.00     0.000 OA
ENDBRANCH 5 14
BRANCH 1 17
ATOM     17  O4  SGN C   2     178.203  29.072  70.1440  0.00  0.00     0.000 O
BRANCH 17 21
ATOM     18  C1  SGN C   2     175.785  31.401  72.6450  0.00  0.00     0.000 C
ATOM     19  C2  SGN C   2     177.047  32.073  72.0900  0.00  0.00     0.000 C
ATOM     20  C3  SGN C   2     177.578  31.274  70.8940  0.00  0.00     0.000 C
ATOM     21  C4  SGN C   2     177.773  29.813  71.2830  0.00  0.00     0.000 C
ATOM     22  C5  SGN C   2     176.454  29.258  71.8130  0.00  0.00     0.000 C
ATOM     23  O5  SGN C   2     176.014  30.041  72.9470  0.00  0.00     0.000 O
ATOM     24   O  SGN C   2     178.792  31.843  70.4340  0.00  0.00     0.000 O
ATOM     26  HD  SGN C   2     178.009  31.482  70.3630  0.00  0.00     0.000 HD
BRANCH 19 28
ATOM     26   N  SGN C   2     176.726  33.495  72.2750  0.00  0.00     0.000 N
ATOM     28  HD  SGN C   2     176.332  33.107  72.9410  0.00  0.00     0.000 HD
ATOM     28   O  SGN C   2     177.401  35.886  72.0420  0.00  0.00     0.000 OA
ATOM     29   S  SGN C   2     177.819  34.565  72.7720  0.00  0.00     0.000 S
ATOM     30   O  SGN C   2     177.641  34.741  74.1620  0.00  0.00     0.000 OA
ATOM     31   O  SGN C   2     179.085  34.152  72.2730  0.00  0.00     0.000 OA
ENDBRANCH 19 28
BRANCH 22 32
ATOM     32   C  SGN C   2     176.552  27.828  72.2830  0.00  0.00     0.000 C
ATOM     33   S  SGN C   2     176.203  26.470  74.4450  0.00  0.00     0.000 S
ATOM     34   O  SGN C   2     177.453  26.914  75.0080  0.00  0.00     0.000 OA
ATOM     35   O  SGN C   2     175.131  26.375  75.4140  0.00  0.00     0.000 OA
ATOM     36   O  SGN C   2     176.318  25.305  73.5990  0.00  0.00     0.000 OA
ATOM     37   O  SGN C   2     175.767  27.655  73.4690  0.00  0.00     0.000 O
ENDBRANCH 22 32
BRANCH 18 38
ATOM     38  O4  IDS C   3     174.528  31.427  72.1970  0.00  0.00     0.000 O
BRANCH 38 42
ATOM     39  C1  IDS C   3     171.133  30.969  71.5680  0.00  0.00     0.000 C
ATOM     40  C2  IDS C   3     172.111  29.784  71.5370  0.00  0.00     0.000 C
ATOM     41  C3  IDS C   3     173.301  30.073  70.6230  0.00  0.00     0.000 C
ATOM     42  C4  IDS C   3     173.897  31.444  70.9110  0.00  0.00     0.000 C
ATOM     43  C5  IDS C   3     172.792  32.507  70.8850  0.00  0.00     0.000 C
ATOM     44  O5  IDS C   3     171.807  32.181  71.8640  0.00  0.00     0.000 O
ATOM     45   O  IDS C   3     172.877  30.009  69.2600  0.00  0.00     0.000 O
ATOM     47  HD  IDS C   3     172.260  30.397  68.7920  0.00  0.00     0.000 HD
BRANCH 40 47
ATOM     47   O  IDS C   3     172.646  29.515  72.8930  0.00  0.00     0.000 O
ATOM     48   S  IDS C   3     171.680  28.942  74.0310  0.00  0.00     0.000 S
ATOM     49   O  IDS C   3     170.892  30.067  74.4860  0.00  0.00     0.000 OA
ATOM     50   O  IDS C   3     172.562  28.433  75.0580  0.00  0.00     0.000 OA
ATOM     51   O  IDS C   3     170.883  27.918  73.4100  0.00  0.00     0.000 OA
ENDBRANCH 40 47
BRANCH 43 52
ATOM     52   C  IDS C   3     173.317  33.903  71.1370  0.00  0.00     0.000 C
ATOM     53   O  IDS C   3     174.274  34.309  70.5190  0.00  0.00     0.000 OA
ATOM     54   O  IDS C   3     172.777  34.605  71.9540  0.00  0.00     0.000 OA
ENDBRANCH 43 52
BRANCH 39 55
ATOM     55  O4  SGN C   4     170.113  31.109  70.7210  0.00  0.00     0.000 O
BRANCH 55 59
ATOM     56  C1  SGN C   4     166.304  31.101  72.4500  0.00  0.00     0.000 C
ATOM     57  C2  SGN C   4     166.902  29.728  72.0990  0.00  0.00     0.000 C
ATOM     58  C3  SGN C   4     168.405  29.838  71.8570  0.00  0.00     0.000 C
ATOM     59  C4  SGN C   4     168.709  30.947  70.8570  0.00  0.00     0.000 C
ATOM     60  C5  SGN C   4     168.081  32.246  71.3580  0.00  0.00     0.000 C
ATOM     61  O5  SGN C   4     166.657  32.052  71.4590  0.00  0.00     0.000 O
ATOM     62   O  SGN C   4     168.905  28.592  71.3910  0.00  0.00     0.000 O
ATOM     64  HD  SGN C   4     168.217  28.383  71.8740  0.00  0.00     0.000 HD
BRANCH 57 66
ATOM     64   N  SGN C   4     165.573  29.095  72.1230  0.00  0.00     0.000 N
ATOM     66  HD  SGN C   4     165.253  28.308  71.9580  0.00  0.00     0.000 HD
ATOM     66   S  SGN C   4     165.325  27.761  72.9610  0.00  0.00     0.000 S
ATOM     67   O  SGN C   4     163.982  27.364  72.7410  0.00  0.00     0.000 OA
ATOM     68   O  SGN C   4     166.381  26.864  72.6390  0.00  0.00     0.000 OA
ATOM     69   O  SGN C   4     165.494  28.219  74.4460  0.00  0.00     0.000 OA
ENDBRANCH 57 66
BRANCH 60 70
ATOM     70   C  SGN C   4     168.323  33.432  70.4500  0.00  0.00     0.000 C
ATOM     71   O  SGN C   4     167.909  33.536  66.7180  0.00  0.00     0.000 OA
ATOM     72   O  SGN C   4     166.389  34.389  68.3950  0.00  0.00     0.000 OA
ATOM     73   O  SGN C   4     168.261  33.030  69.0680  0.00  0.00     0.000 O
ATOM     74   S  SGN C   4     167.763  34.135  68.0250  0.00  0.00     0.000 S
ATOM     75   O  SGN C   4     168.638  35.270  68.2410  0.00  0.00     0.000 OA
ENDBRANCH 60 70
BRANCH 56 76
ATOM     76  O4  IDS C   5     166.044  31.774  73.5860  0.00  0.00     0.000 O
BRANCH 76 80
ATOM     77  C1  IDS C   5     163.665  30.598  76.6870  0.00  0.00     0.000 C
ATOM     78  C2  IDS C   5     162.918  31.263  75.5310  0.00  0.00     0.000 C
ATOM     79  C3  IDS C   5     163.785  31.256  74.2870  0.00  0.00     0.000 C
ATOM     80  C4  IDS C   5     165.010  32.137  74.5130  0.00  0.00     0.000 C
ATOM     81  C5  IDS C   5     165.500  31.964  75.9580  0.00  0.00     0.000 C
ATOM     82  O5  IDS C   5     165.074  30.705  76.4860  0.00  0.00     0.000 O
BRANCH 78 83
ATOM     83   O  IDS C   5     161.663  30.535  75.2310  0.00  0.00     0.000 O
ATOM     84   S  IDS C   5     160.256  31.253  75.4590  0.00  0.00     0.000 S
ATOM     85   O  IDS C   5     160.313  31.825  76.7780  0.00  0.00     0.000 OA
ATOM     86   O  IDS C   5     160.164  32.245  74.4140  0.00  0.00     0.000 OA
ATOM     87   O  IDS C   5     159.263  30.215  75.3300  0.00  0.00     0.000 OA
ENDBRANCH 78 83
BRANCH 81 88
ATOM     88   C  IDS C   5     167.009  32.037  76.1090  0.00  0.00     0.000 C
ATOM     89   O  IDS C   5     167.653  31.025  76.1770  0.00  0.00     0.000 OA
ATOM     90   O  IDS C   5     167.554  33.116  76.1590  0.00  0.00     0.000 OA
ENDBRANCH 81 88
ENDBRANCH 76 80
ENDBRANCH 56 76
ENDBRANCH 55 59
ENDBRANCH 39 55
ENDBRANCH 38 42
ENDBRANCH 18 38
ENDBRANCH 17 21
ENDBRANCH 1 17
TORSDOF 18
ENDMDL
MODEL 25
REMARK VINA RESULT:      -7.2     42.614     47.534
ROOT
ATOM      1  C1  IDS C   1     139.130  49.663  58.6640  0.00  0.00     0.000 C
ATOM      2  C2  IDS C   1     140.595  50.101  58.5930  0.00  0.00     0.000 C
ATOM      3  C3  IDS C   1     140.826  51.028  57.4080  0.00  0.00     0.000 C
ATOM      4  C4  IDS C   1     140.444  50.338  56.1050  0.00  0.00     0.000 C
ATOM      5  C5  IDS C   1     139.184  49.502  56.3050  0.00  0.00     0.000 C
ATOM      6  O5  IDS C   1     138.462  49.967  57.4460  0.00  0.00     0.000 O
ATOM      7   O  IDS C   1     142.203  51.427  57.3650  0.00  0.00     0.000 O
ATOM      9  HD  IDS C   1     142.483  51.526  58.1780  0.00  0.00     0.000 HD
ENDROOT
BRANCH 2 9
ATOM      9   O  IDS C   1     140.985  50.837  59.8170  0.00  0.00     0.000 O
ATOM     10   S  IDS C   1     142.277  50.375  60.6300  0.00  0.00     0.000 S
ATOM     11   O  IDS C   1     142.391  51.289  61.7450  0.00  0.00     0.000 OA
ATOM     12   O  IDS C   1     142.010  49.012  61.0440  0.00  0.00     0.000 OA
ATOM     13   O  IDS C   1     143.384  50.477  59.7050  0.00  0.00     0.000 OA
ENDBRANCH 2 9
BRANCH 5 14
ATOM     14   C  IDS C   1     138.262  49.556  55.0980  0.00  0.00     0.000 C
ATOM     15   O  IDS C   1     138.266  48.644  54.3080  0.00  0.00     0.000 OA
ATOM     16   O  IDS C   1     137.531  50.518  54.9370  0.00  0.00     0.000 OA
ENDBRANCH 5 14
BRANCH 1 17
ATOM     17  O4  SGN C   2     138.440  49.611  59.8070  0.00  0.00     0.000 O
BRANCH 17 21
ATOM     18  C1  SGN C   2     135.831  51.002  62.7700  0.00  0.00     0.000 C
ATOM     19  C2  SGN C   2     135.699  51.643  61.3830  0.00  0.00     0.000 C
ATOM     20  C3  SGN C   2     136.393  50.763  60.3360  0.00  0.00     0.000 C
ATOM     21  C4  SGN C   2     137.831  50.483  60.7560  0.00  0.00     0.000 C
ATOM     22  C5  SGN C   2     137.831  49.845  62.1420  0.00  0.00     0.000 C
ATOM     23  O5  SGN C   2     137.180  50.727  63.0850  0.00  0.00     0.000 O
ATOM     24   O  SGN C   2     136.348  51.395  59.0680  0.00  0.00     0.000 O
ATOM     26  HD  SGN C   2     136.298  50.737  59.6290  0.00  0.00     0.000 HD
BRANCH 19 28
ATOM     26   N  SGN C   2     134.355  52.232  61.4600  0.00  0.00     0.000 N
ATOM     28  HD  SGN C   2     134.655  52.295  62.2700  0.00  0.00     0.000 HD
ATOM     28   O  SGN C   2     132.525  53.530  60.3700  0.00  0.00     0.000 OA
ATOM     29   S  SGN C   2     134.013  53.675  60.8380  0.00  0.00     0.000 S
ATOM     30   O  SGN C   2     134.066  54.615  61.8900  0.00  0.00     0.000 OA
ATOM     31   O  SGN C   2     134.833  53.856  59.6910  0.00  0.00     0.000 OA
ENDBRANCH 19 28
BRANCH 22 32
ATOM     32   C  SGN C   2     139.216  49.579  62.6790  0.00  0.00     0.000 C
ATOM     33   S  SGN C   2     140.322  48.638  64.8080  0.00  0.00     0.000 S
ATOM     34   O  SGN C   2     140.089  49.853  65.5480  0.00  0.00     0.000 OA
ATOM     35   O  SGN C   2     140.138  47.436  65.5930  0.00  0.00     0.000 OA
ATOM     36   O  SGN C   2     141.544  48.642  64.0400  0.00  0.00     0.000 OA
ATOM     37   O  SGN C   2     139.148  48.605  63.7270  0.00  0.00     0.000 O
ENDBRANCH 22 32
BRANCH 18 38
ATOM     38  O4  IDS C   3     135.157  49.989  63.3190  0.00  0.00     0.000 O
BRANCH 38 42
ATOM     39  C1  IDS C   3     132.904  47.410  63.9510  0.00  0.00     0.000 C
ATOM     40  C2  IDS C   3     132.423  48.766  63.4110  0.00  0.00     0.000 C
ATOM     41  C3  IDS C   3     132.942  49.919  64.2700  0.00  0.00     0.000 C
ATOM     42  C4  IDS C   3     134.434  49.779  64.5370  0.00  0.00     0.000 C
ATOM     43  C5  IDS C   3     134.734  48.380  65.0890  0.00  0.00     0.000 C
ATOM     44  O5  IDS C   3     134.309  47.403  64.1400  0.00  0.00     0.000 O
ATOM     45   O  IDS C   3     132.230  49.942  65.5090  0.00  0.00     0.000 O
ATOM     47  HD  IDS C   3     132.083  49.369  66.1410  0.00  0.00     0.000 HD
BRANCH 40 47
ATOM     47   O  IDS C   3     132.920  48.982  62.0310  0.00  0.00     0.000 O
ATOM     48   S  IDS C   3     131.976  49.682  60.9460  0.00  0.00     0.000 S
ATOM     49   O  IDS C   3     131.033  48.667  60.5260  0.00  0.00     0.000 OA
ATOM     50   O  IDS C   3     132.862  50.090  59.8780  0.00  0.00     0.000 OA
ATOM     51   O  IDS C   3     131.344  50.790  61.6110  0.00  0.00     0.000 OA
ENDBRANCH 40 47
BRANCH 43 52
ATOM     52   C  IDS C   3     136.200  48.177  65.4050  0.00  0.00     0.000 C
ATOM     53   O  IDS C   3     136.821  49.048  65.9680  0.00  0.00     0.000 OA
ATOM     54   O  IDS C   3     136.740  47.146  65.0940  0.00  0.00     0.000 OA
ENDBRANCH 43 52
BRANCH 39 55
ATOM     55  O4  SGN C   4     132.232  46.694  64.8530  0.00  0.00     0.000 O
BRANCH 55 59
ATOM     56  C1  SGN C   4     131.010  42.959  63.4180  0.00  0.00     0.000 C
ATOM     57  C2  SGN C   4     129.900  43.994  63.6740  0.00  0.00     0.000 C
ATOM     58  C3  SGN C   4     130.488  45.397  63.8050  0.00  0.00     0.000 C
ATOM     59  C4  SGN C   4     131.627  45.410  64.8190  0.00  0.00     0.000 C
ATOM     60  C5  SGN C   4     132.658  44.359  64.4130  0.00  0.00     0.000 C
ATOM     61  O5  SGN C   4     132.014  43.069  64.4140  0.00  0.00     0.000 O
ATOM     62   O  SGN C   4     129.466  46.307  64.1870  0.00  0.00     0.000 O
ATOM     64  HD  SGN C   4     129.050  45.686  63.7500  0.00  0.00     0.000 HD
BRANCH 57 66
ATOM     64   N  SGN C   4     128.435  43.992  63.8040  0.00  0.00     0.000 N
ATOM     66  HD  SGN C   4     127.759  44.112  63.2750  0.00  0.00     0.000 HD
ATOM     66   S  SGN C   4     127.537  43.067  62.8630  0.00  0.00     0.000 S
ATOM     67   O  SGN C   4     126.181  43.327  63.1800  0.00  0.00     0.000 OA
ATOM     68   O  SGN C   4     127.994  43.264  61.5300  0.00  0.00     0.000 OA
ATOM     69   O  SGN C   4     127.906  41.616  63.3080  0.00  0.00     0.000 OA
ENDBRANCH 57 66
BRANCH 60 70
ATOM     70   C  SGN C   4     133.849  44.281  65.3420  0.00  0.00     0.000 C
ATOM     71   O  SGN C   4     136.495  41.616  65.4010  0.00  0.00     0.000 OA
ATOM     72   O  SGN C   4     136.653  43.829  64.4380  0.00  0.00     0.000 OA
ATOM     73   O  SGN C   4     134.518  43.013  65.2010  0.00  0.00     0.000 O
ATOM     74   S  SGN C   4     136.092  43.001  65.4820  0.00  0.00     0.000 S
ATOM     75   O  SGN C   4     136.236  43.567  66.8080  0.00  0.00     0.000 OA
ENDBRANCH 60 70
BRANCH 56 76
ATOM     76  O4  IDS C   5     131.574  42.403  62.3300  0.00  0.00     0.000 O
BRANCH 76 80
ATOM     77  C1  IDS C   5     134.511  44.332  60.2540  0.00  0.00     0.000 C
ATOM     78  C2  IDS C   5     133.100  44.553  59.7100  0.00  0.00     0.000 C
ATOM     79  C3  IDS C   5     132.077  44.183  60.7660  0.00  0.00     0.000 C
ATOM     80  C4  IDS C   5     132.154  42.685  61.0470  0.00  0.00     0.000 C
ATOM     81  C5  IDS C   5     133.621  42.235  61.0120  0.00  0.00     0.000 C
ATOM     82  O5  IDS C   5     134.492  43.338  61.2780  0.00  0.00     0.000 O
BRANCH 78 83
ATOM     83   O  IDS C   5     132.897  45.974  59.3400  0.00  0.00     0.000 O
ATOM     84   S  IDS C   5     132.479  46.353  57.8480  0.00  0.00     0.000 S
ATOM     85   O  IDS C   5     133.384  45.637  56.9900  0.00  0.00     0.000 OA
ATOM     86   O  IDS C   5     131.108  45.918  57.7170  0.00  0.00     0.000 OA
ATOM     87   O  IDS C   5     132.619  47.786  57.7560  0.00  0.00     0.000 OA
ENDBRANCH 78 83
BRANCH 81 88
ATOM     88   C  IDS C   5     133.954  41.139  62.0080  0.00  0.00     0.000 C
ATOM     89   O  IDS C   5     133.204  40.210  62.1480  0.00  0.00     0.000 OA
ATOM     90   O  IDS C   5     134.973  41.208  62.6550  0.00  0.00     0.000 OA
ENDBRANCH 81 88
ENDBRANCH 76 80
ENDBRANCH 56 76
ENDBRANCH 55 59
ENDBRANCH 39 55
ENDBRANCH 38 42
ENDBRANCH 18 38
ENDBRANCH 17 21
ENDBRANCH 1 17
TORSDOF 18
ENDMDL
MODEL 26
REMARK VINA RESULT:      -7.2     22.838     28.301
ROOT
ATOM      1  C1  IDS C   1     151.563  40.080  72.1980  0.00  0.00     0.000 C
ATOM      2  C2  IDS C   1     151.340  41.165  71.1410  0.00  0.00     0.000 C
ATOM      3  C3  IDS C   1     152.666  41.647  70.5720  0.00  0.00     0.000 C
ATOM      4  C4  IDS C   1     153.556  42.197  71.6770  0.00  0.00     0.000 C
ATOM      5  C5  IDS C   1     153.424  41.340  72.9320  0.00  0.00     0.000 C
ATOM      6  O5  IDS C   1     152.928  40.045  72.5920  0.00  0.00     0.000 O
ATOM      7   O  IDS C   1     152.431  42.658  69.5820  0.00  0.00     0.000 O
ATOM      9  HD  IDS C   1     151.711  42.452  69.1480  0.00  0.00     0.000 HD
ENDROOT
BRANCH 2 9
ATOM      9   O  IDS C   1     150.533  40.645  70.0140  0.00  0.00     0.000 O
ATOM     10   S  IDS C   1     149.159  41.361  69.6370  0.00  0.00     0.000 S
ATOM     11   O  IDS C   1     148.630  40.635  68.5040  0.00  0.00     0.000 OA
ATOM     12   O  IDS C   1     148.326  41.250  70.8170  0.00  0.00     0.000 OA
ATOM     13   O  IDS C   1     149.501  42.729  69.3160  0.00  0.00     0.000 OA
ENDBRANCH 2 9
BRANCH 5 14
ATOM     14   C  IDS C   1     154.750  41.173  73.6550  0.00  0.00     0.000 C
ATOM     15   O  IDS C   1     155.773  41.493  73.1000  0.00  0.00     0.000 OA
ATOM     16   O  IDS C   1     154.770  40.717  74.7860  0.00  0.00     0.000 OA
ENDBRANCH 5 14
BRANCH 1 17
ATOM     17  O4  SGN C   2     150.819  38.973  72.2720  0.00  0.00     0.000 O
BRANCH 17 21
ATOM     18  C1  SGN C   2     150.305  34.832  72.6190  0.00  0.00     0.000 C
ATOM     19  C2  SGN C   2     151.734  35.364  72.7900  0.00  0.00     0.000 C
ATOM     20  C3  SGN C   2     151.698  36.873  73.0590  0.00  0.00     0.000 C
ATOM     21  C4  SGN C   2     150.898  37.582  71.9720  0.00  0.00     0.000 C
ATOM     22  C5  SGN C   2     149.502  36.971  71.9030  0.00  0.00     0.000 C
ATOM     23  O5  SGN C   2     149.601  35.554  71.6310  0.00  0.00     0.000 O
ATOM     24   O  SGN C   2     153.019  37.382  73.1300  0.00  0.00     0.000 O
ATOM     26  HD  SGN C   2     152.190  37.293  73.3620  0.00  0.00     0.000 HD
BRANCH 19 28
ATOM     26   N  SGN C   2     152.539  34.747  73.8530  0.00  0.00     0.000 N
ATOM     28  HD  SGN C   2     151.746  34.797  74.1970  0.00  0.00     0.000 HD
ATOM     28   O  SGN C   2     154.433  33.264  74.5120  0.00  0.00     0.000 OA
ATOM     29   S  SGN C   2     153.057  33.227  73.7670  0.00  0.00     0.000 S
ATOM     30   O  SGN C   2     152.161  32.430  74.5130  0.00  0.00     0.000 OA
ATOM     31   O  SGN C   2     153.290  32.928  72.3970  0.00  0.00     0.000 OA
ENDBRANCH 19 28
BRANCH 22 32
ATOM     32   C  SGN C   2     148.642  37.564  70.8130  0.00  0.00     0.000 C
ATOM     33   S  SGN C   2     146.144  37.938  70.3030  0.00  0.00     0.000 S
ATOM     34   O  SGN C   2     145.941  36.558  69.9390  0.00  0.00     0.000 OA
ATOM     35   O  SGN C   2     145.038  38.513  71.0410  0.00  0.00     0.000 OA
ATOM     36   O  SGN C   2     146.605  38.771  69.2180  0.00  0.00     0.000 OA
ATOM     37   O  SGN C   2     147.354  37.897  71.3440  0.00  0.00     0.000 O
ENDBRANCH 22 32
BRANCH 18 38
ATOM     38  O4  IDS C   3     149.377  34.547  73.5360  0.00  0.00     0.000 O
BRANCH 38 42
ATOM     39  C1  IDS C   3     147.329  33.378  76.0980  0.00  0.00     0.000 C
ATOM     40  C2  IDS C   3     147.302  32.730  74.7050  0.00  0.00     0.000 C
ATOM     41  C3  IDS C   3     147.093  33.778  73.6120  0.00  0.00     0.000 C
ATOM     42  C4  IDS C   3     148.032  34.962  73.7970  0.00  0.00     0.000 C
ATOM     43  C5  IDS C   3     147.919  35.496  75.2300  0.00  0.00     0.000 C
ATOM     44  O5  IDS C   3     148.253  34.453  76.1440  0.00  0.00     0.000 O
ATOM     45   O  IDS C   3     145.738  34.228  73.6410  0.00  0.00     0.000 O
ATOM     47  HD  IDS C   3     145.219  34.570  74.2450  0.00  0.00     0.000 HD
BRANCH 40 47
ATOM     47   O  IDS C   3     148.586  32.045  74.4240  0.00  0.00     0.000 O
ATOM     48   S  IDS C   3     148.657  30.447  74.4490  0.00  0.00     0.000 S
ATOM     49   O  IDS C   3     148.678  30.072  75.8460  0.00  0.00     0.000 OA
ATOM     50   O  IDS C   3     149.888  30.111  73.7670  0.00  0.00     0.000 OA
ATOM     51   O  IDS C   3     147.483  29.977  73.7630  0.00  0.00     0.000 OA
ENDBRANCH 40 47
BRANCH 43 52
ATOM     52   C  IDS C   3     148.806  36.695  75.4810  0.00  0.00     0.000 C
ATOM     53   O  IDS C   3     148.485  37.781  75.0580  0.00  0.00     0.000 OA
ATOM     54   O  IDS C   3     149.830  36.560  76.1010  0.00  0.00     0.000 OA
ENDBRANCH 43 52
BRANCH 39 55
ATOM     55  O4  SGN C   4     146.243  33.564  76.8480  0.00  0.00     0.000 O
BRANCH 55 59
ATOM     56  C1  SGN C   4     143.823  32.744  80.1610  0.00  0.00     0.000 C
ATOM     57  C2  SGN C   4     145.043  33.648  80.4080  0.00  0.00     0.000 C
ATOM     58  C3  SGN C   4     145.596  34.182  79.0890  0.00  0.00     0.000 C
ATOM     59  C4  SGN C   4     145.828  33.043  78.1030  0.00  0.00     0.000 C
ATOM     60  C5  SGN C   4     144.526  32.263  77.9390  0.00  0.00     0.000 C
ATOM     61  O5  SGN C   4     144.152  31.731  79.2250  0.00  0.00     0.000 O
ATOM     62   O  SGN C   4     146.805  34.889  79.3320  0.00  0.00     0.000 O
ATOM     64  HD  SGN C   4     146.354  34.973  80.0670  0.00  0.00     0.000 HD
BRANCH 57 66
ATOM     64   N  SGN C   4     144.954  33.383  81.8530  0.00  0.00     0.000 N
ATOM     66  HD  SGN C   4     145.431  33.563  82.5520  0.00  0.00     0.000 HD
ATOM     66   S  SGN C   4     145.040  34.580  82.9040  0.00  0.00     0.000 S
ATOM     67   O  SGN C   4     144.987  34.011  84.2010  0.00  0.00     0.000 OA
ATOM     68   O  SGN C   4     146.158  35.378  82.5360  0.00  0.00     0.000 OA
ATOM     69   O  SGN C   4     143.734  35.398  82.6430  0.00  0.00     0.000 OA
ENDBRANCH 57 66
BRANCH 60 70
ATOM     70   C  SGN C   4     144.626  31.104  76.9710  0.00  0.00     0.000 C
ATOM     71   O  SGN C   4     142.289  30.327  74.1340  0.00  0.00     0.000 OA
ATOM     72   O  SGN C   4     144.463  31.379  74.0080  0.00  0.00     0.000 OA
ATOM     73   O  SGN C   4     143.438  31.021  76.1590  0.00  0.00     0.000 O
ATOM     74   S  SGN C   4     143.621  30.421  74.6880  0.00  0.00     0.000 S
ATOM     75   O  SGN C   4     144.255  29.134  74.8880  0.00  0.00     0.000 OA
ENDBRANCH 60 70
BRANCH 56 76
ATOM     76  O4  IDS C   5     142.489  32.919  80.1200  0.00  0.00     0.000 O
BRANCH 76 80
ATOM     77  C1  IDS C   5     138.638  31.621  79.7400  0.00  0.00     0.000 C
ATOM     78  C2  IDS C   5     139.557  31.228  78.5830  0.00  0.00     0.000 C
ATOM     79  C3  IDS C   5     141.006  31.358  79.0110  0.00  0.00     0.000 C
ATOM     80  C4  IDS C   5     141.329  32.825  79.2800  0.00  0.00     0.000 C
ATOM     81  C5  IDS C   5     140.123  33.496  79.9540  0.00  0.00     0.000 C
ATOM     82  O5  IDS C   5     139.313  32.521  80.6180  0.00  0.00     0.000 O
BRANCH 78 83
ATOM     83   O  IDS C   5     139.314  29.824  78.1750  0.00  0.00     0.000 O
ATOM     84   S  IDS C   5     138.615  29.516  76.7740  0.00  0.00     0.000 S
ATOM     85   O  IDS C   5     137.454  30.363  76.7170  0.00  0.00     0.000 OA
ATOM     86   O  IDS C   5     139.607  29.843  75.7770  0.00  0.00     0.000 OA
ATOM     87   O  IDS C   5     138.294  28.110  76.7990  0.00  0.00     0.000 OA
ENDBRANCH 78 83
BRANCH 81 88
ATOM     88   C  IDS C   5     140.498  34.552  80.9770  0.00  0.00     0.000 C
ATOM     89   O  IDS C   5     140.865  35.637  80.6110  0.00  0.00     0.000 OA
ATOM     90   O  IDS C   5     140.425  34.296  82.1570  0.00  0.00     0.000 OA
ENDBRANCH 81 88
ENDBRANCH 76 80
ENDBRANCH 56 76
ENDBRANCH 55 59
ENDBRANCH 39 55
ENDBRANCH 38 42
ENDBRANCH 18 38
ENDBRANCH 17 21
ENDBRANCH 1 17
TORSDOF 18
ENDMDL
MODEL 27
REMARK VINA RESULT:      -7.2     20.833     27.126
ROOT
ATOM      1  C1  IDS C   1     150.313  32.821  83.8420  0.00  0.00     0.000 C
ATOM      2  C2  IDS C   1     149.889  33.432  85.1810  0.00  0.00     0.000 C
ATOM      3  C3  IDS C   1     151.069  33.506  86.1390  0.00  0.00     0.000 C
ATOM      4  C4  IDS C   1     151.652  32.121  86.3810  0.00  0.00     0.000 C
ATOM      5  C5  IDS C   1     151.652  31.318  85.0840  0.00  0.00     0.000 C
ATOM      6  O5  IDS C   1     151.586  32.199  83.9620  0.00  0.00     0.000 O
ATOM      7   O  IDS C   1     150.649  34.085  87.3820  0.00  0.00     0.000 O
ATOM      9  HD  IDS C   1     150.065  34.701  87.2120  0.00  0.00     0.000 HD
ENDROOT
BRANCH 2 9
ATOM      9   O  IDS C   1     149.380  34.810  84.9930  0.00  0.00     0.000 O
ATOM     10   S  IDS C   1     147.936  35.193  85.5500  0.00  0.00     0.000 S
ATOM     11   O  IDS C   1     147.744  36.589  85.2250  0.00  0.00     0.000 OA
ATOM     12   O  IDS C   1     147.008  34.321  84.8610  0.00  0.00     0.000 OA
ATOM     13   O  IDS C   1     147.985  34.951  86.9750  0.00  0.00     0.000 OA
ENDBRANCH 2 9
BRANCH 5 14
ATOM     14   C  IDS C   1     152.893  30.454  84.9440  0.00  0.00     0.000 C
ATOM     15   O  IDS C   1     152.789  29.252  84.9940  0.00  0.00     0.000 OA
ATOM     16   O  IDS C   1     153.982  30.979  84.7870  0.00  0.00     0.000 OA
ENDBRANCH 5 14
BRANCH 1 17
ATOM     17  O4  SGN C   2     149.917  33.307  82.6620  0.00  0.00     0.000 O
BRANCH 17 21
ATOM     18  C1  SGN C   2     150.067  35.897  79.3770  0.00  0.00     0.000 C
ATOM     19  C2  SGN C   2     151.312  35.849  80.2710  0.00  0.00     0.000 C
ATOM     20  C3  SGN C   2     151.277  34.588  81.1430  0.00  0.00     0.000 C
ATOM     21  C4  SGN C   2     149.961  34.516  81.9090  0.00  0.00     0.000 C
ATOM     22  C5  SGN C   2     148.804  34.567  80.9160  0.00  0.00     0.000 C
ATOM     23  O5  SGN C   2     148.882  35.783  80.1360  0.00  0.00     0.000 O
ATOM     24   O  SGN C   2     152.382  34.585  82.0320  0.00  0.00     0.000 O
ATOM     26  HD  SGN C   2     151.812  34.248  81.4730  0.00  0.00     0.000 HD
BRANCH 19 28
ATOM     26   N  SGN C   2     152.325  36.455  79.3960  0.00  0.00     0.000 N
ATOM     28  HD  SGN C   2     151.607  36.906  79.2220  0.00  0.00     0.000 HD
ATOM     28   O  SGN C   2     154.703  37.103  79.0090  0.00  0.00     0.000 OA
ATOM     29   S  SGN C   2     153.497  37.398  79.9630  0.00  0.00     0.000 S
ATOM     30   O  SGN C   2     153.092  38.739  79.7780  0.00  0.00     0.000 OA
ATOM     31   O  SGN C   2     153.828  36.938  81.2680  0.00  0.00     0.000 OA
ENDBRANCH 19 28
BRANCH 22 32
ATOM     32   C  SGN C   2     147.447  34.561  81.5770  0.00  0.00     0.000 C
ATOM     33   S  SGN C   2     145.301  35.987  81.6120  0.00  0.00     0.000 S
ATOM     34   O  SGN C   2     145.895  36.984  82.4660  0.00  0.00     0.000 OA
ATOM     35   O  SGN C   2     144.440  36.539  80.5870  0.00  0.00     0.000 OA
ATOM     36   O  SGN C   2     144.710  34.878  82.3240  0.00  0.00     0.000 OA
ATOM     37   O  SGN C   2     146.536  35.363  80.8160  0.00  0.00     0.000 O
ENDBRANCH 22 32
BRANCH 18 38
ATOM     38  O4  IDS C   3     149.792  35.243  78.2460  0.00  0.00     0.000 O
BRANCH 38 42
ATOM     39  C1  IDS C   3     148.866  34.502  74.9720  0.00  0.00     0.000 C
ATOM     40  C2  IDS C   3     148.490  33.567  76.1320  0.00  0.00     0.000 C
ATOM     41  C3  IDS C   3     149.717  33.200  76.9660  0.00  0.00     0.000 C
ATOM     42  C4  IDS C   3     150.531  34.437  77.3220  0.00  0.00     0.000 C
ATOM     43  C5  IDS C   3     150.834  35.242  76.0520  0.00  0.00     0.000 C
ATOM     44  O5  IDS C   3     149.604  35.621  75.4350  0.00  0.00     0.000 O
ATOM     45   O  IDS C   3     150.531  32.282  76.2340  0.00  0.00     0.000 O
ATOM     47  HD  IDS C   3     150.905  32.284  75.4530  0.00  0.00     0.000 HD
BRANCH 40 47
ATOM     47   O  IDS C   3     147.517  34.224  77.0360  0.00  0.00     0.000 O
ATOM     48   S  IDS C   3     145.952  34.132  76.7230  0.00  0.00     0.000 S
ATOM     49   O  IDS C   3     145.705  35.075  75.6530  0.00  0.00     0.000 OA
ATOM     50   O  IDS C   3     145.294  34.509  77.9550  0.00  0.00     0.000 OA
ATOM     51   O  IDS C   3     145.694  32.770  76.3370  0.00  0.00     0.000 OA
ENDBRANCH 40 47
BRANCH 43 52
ATOM     52   C  IDS C   3     151.666  36.475  76.3250  0.00  0.00     0.000 C
ATOM     53   O  IDS C   3     151.126  37.548  76.4650  0.00  0.00     0.000 OA
ATOM     54   O  IDS C   3     152.865  36.382  76.4010  0.00  0.00     0.000 OA
ENDBRANCH 43 52
BRANCH 39 55
ATOM     55  O4  SGN C   4     149.234  34.072  73.7650  0.00  0.00     0.000 O
BRANCH 55 59
ATOM     56  C1  SGN C   4     149.249  36.833  70.6220  0.00  0.00     0.000 C
ATOM     57  C2  SGN C   4     147.875  36.304  71.0660  0.00  0.00     0.000 C
ATOM     58  C3  SGN C   4     147.968  35.638  72.4360  0.00  0.00     0.000 C
ATOM     59  C4  SGN C   4     149.091  34.607  72.4570  0.00  0.00     0.000 C
ATOM     60  C5  SGN C   4     150.389  35.287  72.0270  0.00  0.00     0.000 C
ATOM     61  O5  SGN C   4     150.213  35.794  70.6900  0.00  0.00     0.000 O
ATOM     62   O  SGN C   4     146.723  35.030  72.7550  0.00  0.00     0.000 O
ATOM     64  HD  SGN C   4     146.515  35.689  72.2330  0.00  0.00     0.000 HD
BRANCH 57 66
ATOM     64   N  SGN C   4     146.698  36.234  70.1840  0.00  0.00     0.000 N
ATOM     66  HD  SGN C   4     145.877  36.507  70.2140  0.00  0.00     0.000 HD
ATOM     66   S  SGN C   4     145.915  37.561  69.7700  0.00  0.00     0.000 S
ATOM     67   O  SGN C   4     144.807  37.171  68.9760  0.00  0.00     0.000 OA
ATOM     68   O  SGN C   4     145.693  38.303  70.9630  0.00  0.00     0.000 OA
ATOM     69   O  SGN C   4     146.941  38.337  68.8820  0.00  0.00     0.000 OA
ENDBRANCH 57 66
BRANCH 60 70
ATOM     70   C  SGN C   4     151.588  34.364  72.0170  0.00  0.00     0.000 C
ATOM     71   O  SGN C   4     154.333  34.202  74.5760  0.00  0.00     0.000 OA
ATOM     72   O  SGN C   4     152.446  32.708  74.3420  0.00  0.00     0.000 OA
ATOM     73   O  SGN C   4     152.523  34.738  73.0480  0.00  0.00     0.000 O
ATOM     74   S  SGN C   4     153.404  33.561  73.6750  0.00  0.00     0.000 S
ATOM     75   O  SGN C   4     154.044  32.931  72.5370  0.00  0.00     0.000 OA
ENDBRANCH 60 70
BRANCH 56 76
ATOM     76  O4  IDS C   5     149.906  38.004  70.7150  0.00  0.00     0.000 O
BRANCH 76 80
ATOM     77  C1  IDS C   5     152.702  40.945  71.1480  0.00  0.00     0.000 C
ATOM     78  C2  IDS C   5     152.873  39.762  72.1010  0.00  0.00     0.000 C
ATOM     79  C3  IDS C   5     152.095  38.568  71.5830  0.00  0.00     0.000 C
ATOM     80  C4  IDS C   5     150.602  38.879  71.6160  0.00  0.00     0.000 C
ATOM     81  C5  IDS C   5     150.378  40.345  71.2190  0.00  0.00     0.000 C
ATOM     82  O5  IDS C   5     151.473  40.825  70.4330  0.00  0.00     0.000 O
BRANCH 78 83
ATOM     83   O  IDS C   5     154.301  39.379  72.2100  0.00  0.00     0.000 O
ATOM     84   S  IDS C   5     154.872  38.836  73.5970  0.00  0.00     0.000 S
ATOM     85   O  IDS C   5     154.427  39.767  74.5990  0.00  0.00     0.000 OA
ATOM     86   O  IDS C   5     154.302  37.519  73.7510  0.00  0.00     0.000 OA
ATOM     87   O  IDS C   5     156.307  38.807  73.4430  0.00  0.00     0.000 OA
ENDBRANCH 78 83
BRANCH 81 88
ATOM     88   C  IDS C   5     149.107  40.581  70.4250  0.00  0.00     0.000 C
ATOM     89   O  IDS C   5     149.163  40.728  69.2330  0.00  0.00     0.000 OA
ATOM     90   O  IDS C   5     148.042  40.619  70.9970  0.00  0.00     0.000 OA
ENDBRANCH 81 88
ENDBRANCH 76 80
ENDBRANCH 56 76
ENDBRANCH 55 59
ENDBRANCH 39 55
ENDBRANCH 38 42
ENDBRANCH 18 38
ENDBRANCH 17 21
ENDBRANCH 1 17
TORSDOF 18
ENDMDL
MODEL 28
REMARK VINA RESULT:      -7.1     20.209     26.322
ROOT
ATOM      1  C1  IDS C   1     150.750  32.037  85.3170  0.00  0.00     0.000 C
ATOM      2  C2  IDS C   1     150.522  32.260  86.8140  0.00  0.00     0.000 C
ATOM      3  C3  IDS C   1     151.791  31.970  87.6030  0.00  0.00     0.000 C
ATOM      4  C4  IDS C   1     152.250  30.537  87.3730  0.00  0.00     0.000 C
ATOM      5  C5  IDS C   1     152.043  30.149  85.9120  0.00  0.00     0.000 C
ATOM      6  O5  IDS C   1     151.958  31.320  85.1000  0.00  0.00     0.000 O
ATOM      7   O  IDS C   1     151.554  32.190  89.0010  0.00  0.00     0.000 O
ATOM      9  HD  IDS C   1     151.021  32.868  89.0830  0.00  0.00     0.000 HD
ENDROOT
BRANCH 2 9
ATOM      9   O  IDS C   1     150.139  33.664  87.0860  0.00  0.00     0.000 O
ATOM     10   S  IDS C   1     148.822  33.968  87.9310  0.00  0.00     0.000 S
ATOM     11   O  IDS C   1     148.737  35.408  88.0300  0.00  0.00     0.000 OA
ATOM     12   O  IDS C   1     147.731  33.389  87.1740  0.00  0.00     0.000 OA
ATOM     13   O  IDS C   1     149.019  33.328  89.2130  0.00  0.00     0.000 OA
ENDBRANCH 2 9
BRANCH 5 14
ATOM     14   C  IDS C   1     153.171  29.278  85.3850  0.00  0.00     0.000 C
ATOM     15   O  IDS C   1     154.194  29.795  85.0090  0.00  0.00     0.000 OA
ATOM     16   O  IDS C   1     153.032  28.067  85.3430  0.00  0.00     0.000 OA
ENDBRANCH 5 14
BRANCH 1 17
ATOM     17  O4  SGN C   2     150.292  32.871  84.3790  0.00  0.00     0.000 O
BRANCH 17 21
ATOM     18  C1  SGN C   2     150.475  36.104  81.7260  0.00  0.00     0.000 C
ATOM     19  C2  SGN C   2     151.815  35.543  82.2180  0.00  0.00     0.000 C
ATOM     20  C3  SGN C   2     151.605  34.145  82.8130  0.00  0.00     0.000 C
ATOM     21  C4  SGN C   2     150.520  34.188  83.8830  0.00  0.00     0.000 C
ATOM     22  C5  SGN C   2     149.242  34.757  83.2740  0.00  0.00     0.000 C
ATOM     23  O5  SGN C   2     149.499  36.078  82.7460  0.00  0.00     0.000 O
ATOM     24   O  SGN C   2     152.826  33.661  83.3480  0.00  0.00     0.000 O
ATOM     26  HD  SGN C   2     152.077  33.619  82.9150  0.00  0.00     0.000 HD
BRANCH 19 28
ATOM     26   N  SGN C   2     152.738  36.043  81.1900  0.00  0.00     0.000 N
ATOM     28  HD  SGN C   2     152.114  36.644  81.2170  0.00  0.00     0.000 HD
ATOM     28   O  SGN C   2     155.071  36.257  80.3330  0.00  0.00     0.000 OA
ATOM     29   S  SGN C   2     154.177  36.661  81.5540  0.00  0.00     0.000 S
ATOM     30   O  SGN C   2     154.044  38.067  81.5700  0.00  0.00     0.000 OA
ATOM     31   O  SGN C   2     154.656  35.987  82.7100  0.00  0.00     0.000 OA
ENDBRANCH 19 28
BRANCH 22 32
ATOM     32   C  SGN C   2     148.116  34.896  84.2680  0.00  0.00     0.000 C
ATOM     33   S  SGN C   2     145.996  36.322  84.6090  0.00  0.00     0.000 S
ATOM     34   O  SGN C   2     146.753  37.465  85.0560  0.00  0.00     0.000 OA
ATOM     35   O  SGN C   2     144.867  36.666  83.7700  0.00  0.00     0.000 OA
ATOM     36   O  SGN C   2     145.669  35.385  85.6570  0.00  0.00     0.000 OA
ATOM     37   O  SGN C   2     146.998  35.540  83.6440  0.00  0.00     0.000 O
ENDBRANCH 22 32
BRANCH 18 38
ATOM     38  O4  IDS C   3     149.788  35.841  80.6120  0.00  0.00     0.000 O
BRANCH 38 42
ATOM     39  C1  IDS C   3     148.823  35.713  77.2680  0.00  0.00     0.000 C
ATOM     40  C2  IDS C   3     149.403  37.000  77.8760  0.00  0.00     0.000 C
ATOM     41  C3  IDS C   3     148.658  37.393  79.1520  0.00  0.00     0.000 C
ATOM     42  C4  IDS C   3     148.505  36.203  80.0890  0.00  0.00     0.000 C
ATOM     43  C5  IDS C   3     147.897  35.018  79.3290  0.00  0.00     0.000 C
ATOM     44  O5  IDS C   3     148.748  34.679  78.2360  0.00  0.00     0.000 O
ATOM     45   O  IDS C   3     147.370  37.906  78.8090  0.00  0.00     0.000 O
ATOM     47  HD  IDS C   3     146.695  37.610  78.3540  0.00  0.00     0.000 HD
BRANCH 40 47
ATOM     47   O  IDS C   3     150.829  36.810  78.2340  0.00  0.00     0.000 O
ATOM     48   S  IDS C   3     151.922  36.637  77.0800  0.00  0.00     0.000 S
ATOM     49   O  IDS C   3     151.785  35.278  76.6030  0.00  0.00     0.000 OA
ATOM     50   O  IDS C   3     153.196  36.871  77.7240  0.00  0.00     0.000 OA
ATOM     51   O  IDS C   3     151.609  37.616  76.0730  0.00  0.00     0.000 OA
ENDBRANCH 40 47
BRANCH 43 52
ATOM     52   C  IDS C   3     147.688  33.804  80.2060  0.00  0.00     0.000 C
ATOM     53   O  IDS C   3     148.483  32.892  80.1730  0.00  0.00     0.000 OA
ATOM     54   O  IDS C   3     146.731  33.751  80.9360  0.00  0.00     0.000 OA
ENDBRANCH 43 52
BRANCH 39 55
ATOM     55  O4  SGN C   4     147.828  35.698  76.3810  0.00  0.00     0.000 O
BRANCH 55 59
ATOM     56  C1  SGN C   4     149.023  34.413  72.5830  0.00  0.00     0.000 C
ATOM     57  C2  SGN C   4     148.538  35.868  72.6950  0.00  0.00     0.000 C
ATOM     58  C3  SGN C   4     148.515  36.320  74.1530  0.00  0.00     0.000 C
ATOM     59  C4  SGN C   4     147.752  35.320  75.0130  0.00  0.00     0.000 C
ATOM     60  C5  SGN C   4     148.369  33.936  74.8210  0.00  0.00     0.000 C
ATOM     61  O5  SGN C   4     148.250  33.578  73.4300  0.00  0.00     0.000 O
ATOM     62   O  SGN C   4     147.926  37.610  74.2410  0.00  0.00     0.000 O
ATOM     64  HD  SGN C   4     148.275  37.586  73.4490  0.00  0.00     0.000 HD
BRANCH 57 66
ATOM     64   N  SGN C   4     148.180  36.021  71.2750  0.00  0.00     0.000 N
ATOM     66  HD  SGN C   4     147.902  36.663  70.7660  0.00  0.00     0.000 HD
ATOM     66   S  SGN C   4     148.864  37.154  70.3830  0.00  0.00     0.000 S
ATOM     67   O  SGN C   4     148.277  37.091  69.0940  0.00  0.00     0.000 OA
ATOM     68   O  SGN C   4     148.795  38.365  71.1250  0.00  0.00     0.000 OA
ATOM     69   O  SGN C   4     150.358  36.705  70.2950  0.00  0.00     0.000 OA
ENDBRANCH 57 66
BRANCH 60 70
ATOM     70   C  SGN C   4     147.700  32.851  75.6360  0.00  0.00     0.000 C
ATOM     71   O  SGN C   4     148.027  29.140  75.1530  0.00  0.00     0.000 OA
ATOM     72   O  SGN C   4     149.131  30.514  76.8090  0.00  0.00     0.000 OA
ATOM     73   O  SGN C   4     147.900  31.562  75.0230  0.00  0.00     0.000 O
ATOM     74   S  SGN C   4     147.947  30.303  76.0070  0.00  0.00     0.000 S
ATOM     75   O  SGN C   4     146.714  30.379  76.7650  0.00  0.00     0.000 OA
ENDBRANCH 60 70
BRANCH 56 76
ATOM     76  O4  IDS C   5     150.208  33.806  72.3840  0.00  0.00     0.000 O
BRANCH 76 80
ATOM     77  C1  IDS C   5     153.990  33.121  73.7570  0.00  0.00     0.000 C
ATOM     78  C2  IDS C   5     153.676  34.588  73.4680  0.00  0.00     0.000 C
ATOM     79  C3  IDS C   5     152.175  34.789  73.3980  0.00  0.00     0.000 C
ATOM     80  C4  IDS C   5     151.613  34.030  72.2000  0.00  0.00     0.000 C
ATOM     81  C5  IDS C   5     152.355  32.694  72.0510  0.00  0.00     0.000 C
ATOM     82  O5  IDS C   5     152.921  32.291  73.3010  0.00  0.00     0.000 O
BRANCH 78 83
ATOM     83   O  IDS C   5     154.216  35.460  74.5380  0.00  0.00     0.000 O
ATOM     84   S  IDS C   5     155.334  36.543  74.1900  0.00  0.00     0.000 S
ATOM     85   O  IDS C   5     156.335  35.847  73.4270  0.00  0.00     0.000 OA
ATOM     86   O  IDS C   5     154.649  37.563  73.4310  0.00  0.00     0.000 OA
ATOM     87   O  IDS C   5     155.819  37.026  75.4600  0.00  0.00     0.000 OA
ENDBRANCH 78 83
BRANCH 81 88
ATOM     88   C  IDS C   5     151.480  31.556  71.5570  0.00  0.00     0.000 C
ATOM     89   O  IDS C   5     151.204  30.649  72.2950  0.00  0.00     0.000 OA
ATOM     90   O  IDS C   5     151.065  31.570  70.4210  0.00  0.00     0.000 OA
ENDBRANCH 81 88
ENDBRANCH 76 80
ENDBRANCH 56 76
ENDBRANCH 55 59
ENDBRANCH 39 55
ENDBRANCH 38 42
ENDBRANCH 18 38
ENDBRANCH 17 21
ENDBRANCH 1 17
TORSDOF 18
ENDMDL
MODEL 29
REMARK VINA RESULT:      -7.1     29.019     33.144
ROOT
ATOM      1  C1  IDS C   1     159.378  34.227  51.9960  0.00  0.00     0.000 C
ATOM      2  C2  IDS C   1     158.647  33.090  51.2780  0.00  0.00     0.000 C
ATOM      3  C3  IDS C   1     157.184  33.445  51.0520  0.00  0.00     0.000 C
ATOM      4  C4  IDS C   1     156.491  33.730  52.3770  0.00  0.00     0.000 C
ATOM      5  C5  IDS C   1     157.426  34.503  53.3020  0.00  0.00     0.000 C
ATOM      6  O5  IDS C   1     158.445  35.151  52.5400  0.00  0.00     0.000 O
ATOM      7   O  IDS C   1     156.522  32.367  50.3750  0.00  0.00     0.000 O
ATOM      9  HD  IDS C   1     157.078  32.020  49.8080  0.00  0.00     0.000 HD
ENDROOT
BRANCH 2 9
ATOM      9   O  IDS C   1     159.252  32.828  49.9520  0.00  0.00     0.000 O
ATOM     10   S  IDS C   1     159.677  31.341  49.5640  0.00  0.00     0.000 S
ATOM     11   O  IDS C   1     160.213  31.418  48.2240  0.00  0.00     0.000 OA
ATOM     12   O  IDS C   1     160.667  30.950  50.5460  0.00  0.00     0.000 OA
ATOM     13   O  IDS C   1     158.467  30.552  49.6400  0.00  0.00     0.000 OA
ENDBRANCH 2 9
BRANCH 5 14
ATOM     14   C  IDS C   1     156.690  35.554  54.1140  0.00  0.00     0.000 C
ATOM     15   O  IDS C   1     157.314  36.289  54.8400  0.00  0.00     0.000 OA
ATOM     16   O  IDS C   1     155.477  35.646  54.0280  0.00  0.00     0.000 OA
ENDBRANCH 5 14
BRANCH 1 17
ATOM     17  O4  SGN C   2     160.600  34.640  51.6480  0.00  0.00     0.000 O
BRANCH 17 21
ATOM     18  C1  SGN C   2     163.370  37.391  50.1350  0.00  0.00     0.000 C
ATOM     19  C2  SGN C   2     161.972  37.932  50.4610  0.00  0.00     0.000 C
ATOM     20  C3  SGN C   2     161.234  36.948  51.3770  0.00  0.00     0.000 C
ATOM     21  C4  SGN C   2     161.231  35.555  50.7560  0.00  0.00     0.000 C
ATOM     22  C5  SGN C   2     162.670  35.128  50.4840  0.00  0.00     0.000 C
ATOM     23  O5  SGN C   2     163.306  36.084  49.6040  0.00  0.00     0.000 O
ATOM     24   O  SGN C   2     159.912  37.403  51.6090  0.00  0.00     0.000 O
ATOM     26  HD  SGN C   2     160.681  37.060  51.8130  0.00  0.00     0.000 HD
BRANCH 19 28
ATOM     26   N  SGN C   2     162.236  39.373  50.5730  0.00  0.00     0.000 N
ATOM     28  HD  SGN C   2     162.819  39.102  49.9930  0.00  0.00     0.000 HD
ATOM     28   O  SGN C   2     161.367  41.682  50.9450  0.00  0.00     0.000 OA
ATOM     29   S  SGN C   2     161.247  40.478  49.9510  0.00  0.00     0.000 S
ATOM     30   O  SGN C   2     161.778  40.869  48.7020  0.00  0.00     0.000 OA
ATOM     31   O  SGN C   2     159.924  39.962  50.0210  0.00  0.00     0.000 OA
ENDBRANCH 19 28
BRANCH 22 32
ATOM     32   C  SGN C   2     162.777  33.780  49.8120  0.00  0.00     0.000 C
ATOM     33   S  SGN C   2     163.750  32.762  47.6540  0.00  0.00     0.000 S
ATOM     34   O  SGN C   2     162.665  33.262  46.8480  0.00  0.00     0.000 OA
ATOM     35   O  SGN C   2     165.040  32.829  47.0000  0.00  0.00     0.000 OA
ATOM     36   O  SGN C   2     163.485  31.483  48.2710  0.00  0.00     0.000 OA
ATOM     37   O  SGN C   2     163.851  33.798  48.8640  0.00  0.00     0.000 O
ENDBRANCH 22 32
BRANCH 18 38
ATOM     38  O4  IDS C   3     164.486  37.389  50.8670  0.00  0.00     0.000 O
BRANCH 38 42
ATOM     39  C1  IDS C   3     167.102  38.453  52.9050  0.00  0.00     0.000 C
ATOM     40  C2  IDS C   3     166.574  39.340  51.7660  0.00  0.00     0.000 C
ATOM     41  C3  IDS C   3     166.541  38.577  50.4420  0.00  0.00     0.000 C
ATOM     42  C4  IDS C   3     165.883  37.214  50.6080  0.00  0.00     0.000 C
ATOM     43  C5  IDS C   3     166.540  36.458  51.7690  0.00  0.00     0.000 C
ATOM     44  O5  IDS C   3     166.398  37.224  52.9640  0.00  0.00     0.000 O
ATOM     45   O  IDS C   3     167.874  38.413  49.9560  0.00  0.00     0.000 O
ATOM     47  HD  IDS C   3     168.606  38.078  50.2770  0.00  0.00     0.000 HD
BRANCH 40 47
ATOM     47   O  IDS C   3     165.192  39.791  52.0550  0.00  0.00     0.000 O
ATOM     48   S  IDS C   3     164.912  40.743  53.3090  0.00  0.00     0.000 S
ATOM     49   O  IDS C   3     164.955  39.888  54.4750  0.00  0.00     0.000 OA
ATOM     50   O  IDS C   3     163.596  41.299  53.0780  0.00  0.00     0.000 OA
ATOM     51   O  IDS C   3     165.954  41.736  53.3060  0.00  0.00     0.000 OA
ENDBRANCH 40 47
BRANCH 43 52
ATOM     52   C  IDS C   3     165.955  35.079  51.9760  0.00  0.00     0.000 C
ATOM     53   O  IDS C   3     166.201  34.195  51.1880  0.00  0.00     0.000 OA
ATOM     54   O  IDS C   3     165.246  34.868  52.9270  0.00  0.00     0.000 OA
ENDBRANCH 43 52
BRANCH 39 55
ATOM     55  O4  SGN C   4     168.392  38.356  53.2280  0.00  0.00     0.000 O
BRANCH 55 59
ATOM     56  C1  SGN C   4     172.171  36.585  52.9350  0.00  0.00     0.000 C
ATOM     57  C2  SGN C   4     171.817  37.631  51.8640  0.00  0.00     0.000 C
ATOM     58  C3  SGN C   4     170.617  38.467  52.3000  0.00  0.00     0.000 C
ATOM     59  C4  SGN C   4     169.462  37.568  52.7270  0.00  0.00     0.000 C
ATOM     60  C5  SGN C   4     169.958  36.613  53.8110  0.00  0.00     0.000 C
ATOM     61  O5  SGN C   4     171.024  35.815  53.2580  0.00  0.00     0.000 O
ATOM     62   O  SGN C   4     170.220  39.321  51.2350  0.00  0.00     0.000 O
ATOM     64  HD  SGN C   4     171.068  39.200  51.1110  0.00  0.00     0.000 HD
BRANCH 57 66
ATOM     64   N  SGN C   4     173.222  37.364  51.5160  0.00  0.00     0.000 N
ATOM     66  HD  SGN C   4     173.655  37.125  50.8050  0.00  0.00     0.000 HD
ATOM     66   S  SGN C   4     173.910  38.114  50.2870  0.00  0.00     0.000 S
ATOM     67   O  SGN C   4     175.228  37.608  50.1640  0.00  0.00     0.000 OA
ATOM     68   O  SGN C   4     173.017  38.012  49.1840  0.00  0.00     0.000 OA
ATOM     69   O  SGN C   4     173.968  39.606  50.7480  0.00  0.00     0.000 OA
ENDBRANCH 57 66
BRANCH 60 70
ATOM     70   C  SGN C   4     168.894  35.669  54.3280  0.00  0.00     0.000 C
ATOM     71   O  SGN C   4     168.898  31.921  54.0940  0.00  0.00     0.000 OA
ATOM     72   O  SGN C   4     169.452  33.279  56.0170  0.00  0.00     0.000 OA
ATOM     73   O  SGN C   4     169.145  34.327  53.8690  0.00  0.00     0.000 O
ATOM     74   S  SGN C   4     168.649  33.143  54.8230  0.00  0.00     0.000 S
ATOM     75   O  SGN C   4     167.241  33.409  55.0420  0.00  0.00     0.000 OA
ENDBRANCH 60 70
BRANCH 56 76
ATOM     76  O4  IDS C   5     173.007  36.530  53.9870  0.00  0.00     0.000 O
BRANCH 76 80
ATOM     77  C1  IDS C   5     176.231  36.042  56.4430  0.00  0.00     0.000 C
ATOM     78  C2  IDS C   5     176.067  34.950  55.3860  0.00  0.00     0.000 C
ATOM     79  C3  IDS C   5     175.147  35.436  54.2830  0.00  0.00     0.000 C
ATOM     80  C4  IDS C   5     173.744  35.645  54.8440  0.00  0.00     0.000 C
ATOM     81  C5  IDS C   5     173.844  36.229  56.2610  0.00  0.00     0.000 C
ATOM     82  O5  IDS C   5     175.093  36.904  56.4380  0.00  0.00     0.000 O
BRANCH 78 83
ATOM     83   O  IDS C   5     177.376  34.603  54.7850  0.00  0.00     0.000 O
ATOM     84   S  IDS C   5     177.972  33.136  54.9770  0.00  0.00     0.000 S
ATOM     85   O  IDS C   5     177.866  32.846  56.3820  0.00  0.00     0.000 OA
ATOM     86   O  IDS C   5     177.146  32.281  54.1570  0.00  0.00     0.000 OA
ATOM     87   O  IDS C   5     179.336  33.204  54.5110  0.00  0.00     0.000 OA
ENDBRANCH 78 83
BRANCH 81 88
ATOM     88   C  IDS C   5     172.739  37.213  56.6000  0.00  0.00     0.000 C
ATOM     89   O  IDS C   5     172.957  38.394  56.5620  0.00  0.00     0.000 OA
ATOM     90   O  IDS C   5     171.644  36.801  56.9080  0.00  0.00     0.000 OA
ENDBRANCH 81 88
ENDBRANCH 76 80
ENDBRANCH 56 76
ENDBRANCH 55 59
ENDBRANCH 39 55
ENDBRANCH 38 42
ENDBRANCH 18 38
ENDBRANCH 17 21
ENDBRANCH 1 17
TORSDOF 18
ENDMDL
MODEL 30
REMARK VINA RESULT:      -7.1     47.612     52.838
ROOT
ATOM      1  C1  IDS C   1     130.035  46.348  52.7800  0.00  0.00     0.000 C
ATOM      2  C2  IDS C   1     130.784  47.684  52.7390  0.00  0.00     0.000 C
ATOM      3  C3  IDS C   1     130.893  48.198  51.3110  0.00  0.00     0.000 C
ATOM      4  C4  IDS C   1     131.616  47.189  50.4300  0.00  0.00     0.000 C
ATOM      5  C5  IDS C   1     131.189  45.771  50.7990  0.00  0.00     0.000 C
ATOM      6  O5  IDS C   1     129.932  45.797  51.4740  0.00  0.00     0.000 O
ATOM      7   O  IDS C   1     131.593  49.450  51.2980  0.00  0.00     0.000 O
ATOM      9  HD  IDS C   1     131.368  49.894  52.0060  0.00  0.00     0.000 HD
ENDROOT
BRANCH 2 9
ATOM      9   O  IDS C   1     130.072  48.712  53.5300  0.00  0.00     0.000 O
ATOM     10   S  IDS C   1     130.836  49.457  54.7150  0.00  0.00     0.000 S
ATOM     11   O  IDS C   1     129.887  50.395  55.2720  0.00  0.00     0.000 OA
ATOM     12   O  IDS C   1     131.215  48.417  55.6490  0.00  0.00     0.000 OA
ATOM     13   O  IDS C   1     131.974  50.107  54.1030  0.00  0.00     0.000 OA
ENDBRANCH 2 9
BRANCH 5 14
ATOM     14   C  IDS C   1     131.062  44.875  49.5790  0.00  0.00     0.000 C
ATOM     15   O  IDS C   1     131.486  45.257  48.5150  0.00  0.00     0.000 OA
ATOM     16   O  IDS C   1     130.533  43.781  49.6840  0.00  0.00     0.000 OA
ENDBRANCH 5 14
BRANCH 1 17
ATOM     17  O4  SGN C   2     129.110  46.061  53.7010  0.00  0.00     0.000 O
BRANCH 17 21
ATOM     18  C1  SGN C   2     125.230  45.122  54.9610  0.00  0.00     0.000 C
ATOM     19  C2  SGN C   2     125.488  45.089  53.4500  0.00  0.00     0.000 C
ATOM     20  C3  SGN C   2     126.997  45.029  53.1820  0.00  0.00     0.000 C
ATOM     21  C4  SGN C   2     127.704  46.169  53.9060  0.00  0.00     0.000 C
ATOM     22  C5  SGN C   2     127.376  46.094  55.3940  0.00  0.00     0.000 C
ATOM     23  O5  SGN C   2     125.944  46.170  55.5830  0.00  0.00     0.000 O
ATOM     24   O  SGN C   2     127.242  45.086  51.7860  0.00  0.00     0.000 O
ATOM     26  HD  SGN C   2     127.347  44.808  52.6000  0.00  0.00     0.000 HD
BRANCH 19 28
ATOM     26   N  SGN C   2     124.348  44.291  52.9760  0.00  0.00     0.000 N
ATOM     28  HD  SGN C   2     124.022  44.743  53.6390  0.00  0.00     0.000 HD
ATOM     28   O  SGN C   2     123.137  43.208  51.0830  0.00  0.00     0.000 OA
ATOM     29   S  SGN C   2     123.584  44.617  51.6000  0.00  0.00     0.000 S
ATOM     30   O  SGN C   2     122.431  45.368  51.9210  0.00  0.00     0.000 OA
ATOM     31   O  SGN C   2     124.540  45.151  50.6920  0.00  0.00     0.000 OA
ENDBRANCH 19 28
BRANCH 22 32
ATOM     32   C  SGN C   2     127.982  47.217  56.1990  0.00  0.00     0.000 C
ATOM     33   S  SGN C   2     127.324  48.794  58.1280  0.00  0.00     0.000 S
ATOM     34   O  SGN C   2     126.520  49.624  57.2660  0.00  0.00     0.000 OA
ATOM     35   O  SGN C   2     126.751  48.595  59.4430  0.00  0.00     0.000 OA
ATOM     36   O  SGN C   2     128.721  49.157  58.1590  0.00  0.00     0.000 OA
ATOM     37   O  SGN C   2     127.280  47.354  57.4400  0.00  0.00     0.000 O
ENDBRANCH 22 32
BRANCH 18 38
ATOM     38  O4  IDS C   3     125.251  44.137  55.8610  0.00  0.00     0.000 O
BRANCH 38 42
ATOM     39  C1  IDS C   3     125.718  41.888  58.4790  0.00  0.00     0.000 C
ATOM     40  C2  IDS C   3     126.590  41.824  57.2150  0.00  0.00     0.000 C
ATOM     41  C3  IDS C   3     125.731  41.775  55.9520  0.00  0.00     0.000 C
ATOM     42  C4  IDS C   3     124.647  42.845  55.9820  0.00  0.00     0.000 C
ATOM     43  C5  IDS C   3     123.864  42.754  57.2970  0.00  0.00     0.000 C
ATOM     44  O5  IDS C   3     124.763  42.932  58.3890  0.00  0.00     0.000 O
ATOM     45   O  IDS C   3     125.131  40.484  55.8370  0.00  0.00     0.000 O
ATOM     47  HD  IDS C   3     124.633  39.992  56.3480  0.00  0.00     0.000 HD
BRANCH 40 47
ATOM     47   O  IDS C   3     127.455  43.024  57.1180  0.00  0.00     0.000 O
ATOM     48   S  IDS C   3     129.014  42.909  57.4550  0.00  0.00     0.000 S
ATOM     49   O  IDS C   3     129.107  42.869  58.8990  0.00  0.00     0.000 OA
ATOM     50   O  IDS C   3     129.613  44.102  56.8960  0.00  0.00     0.000 OA
ATOM     51   O  IDS C   3     129.477  41.698  56.8320  0.00  0.00     0.000 OA
ENDBRANCH 40 47
BRANCH 43 52
ATOM     52   C  IDS C   3     122.748  43.771  57.3860  0.00  0.00     0.000 C
ATOM     53   O  IDS C   3     121.952  43.874  56.4810  0.00  0.00     0.000 OA
ATOM     54   O  IDS C   3     122.658  44.475  58.3600  0.00  0.00     0.000 OA
ENDBRANCH 43 52
BRANCH 39 55
ATOM     55  O4  SGN C   4     125.283  40.809  59.1310  0.00  0.00     0.000 O
BRANCH 55 59
ATOM     56  C1  SGN C   4     122.581  38.846  61.6510  0.00  0.00     0.000 C
ATOM     57  C2  SGN C   4     122.245  38.847  60.1500  0.00  0.00     0.000 C
ATOM     58  C3  SGN C   4     123.469  39.230  59.3220  0.00  0.00     0.000 C
ATOM     59  C4  SGN C   4     124.088  40.521  59.8430  0.00  0.00     0.000 C
ATOM     60  C5  SGN C   4     124.394  40.354  61.3300  0.00  0.00     0.000 C
ATOM     61  O5  SGN C   4     123.157  40.089  62.0200  0.00  0.00     0.000 O
ATOM     62   O  SGN C   4     123.095  39.367  57.9570  0.00  0.00     0.000 O
ATOM     64  HD  SGN C   4     122.534  38.792  58.2780  0.00  0.00     0.000 HD
BRANCH 57 66
ATOM     64   N  SGN C   4     121.532  37.571  60.3260  0.00  0.00     0.000 N
ATOM     66  HD  SGN C   4     120.750  37.325  60.6040  0.00  0.00     0.000 HD
ATOM     66   S  SGN C   4     120.099  37.344  59.6610  0.00  0.00     0.000 S
ATOM     67   O  SGN C   4     119.647  36.060  60.0550  0.00  0.00     0.000 OA
ATOM     68   O  SGN C   4     119.312  38.487  59.9700  0.00  0.00     0.000 OA
ATOM     69   O  SGN C   4     120.398  37.341  58.1280  0.00  0.00     0.000 OA
ENDBRANCH 57 66
BRANCH 60 70
ATOM     70   C  SGN C   4     125.025  41.574  61.9640  0.00  0.00     0.000 C
ATOM     71   O  SGN C   4     127.626  41.617  64.6740  0.00  0.00     0.000 OA
ATOM     72   O  SGN C   4     127.961  41.957  62.3030  0.00  0.00     0.000 OA
ATOM     73   O  SGN C   4     125.820  41.196  63.1050  0.00  0.00     0.000 O
ATOM     74   S  SGN C   4     127.079  42.124  63.4360  0.00  0.00     0.000 S
ATOM     75   O  SGN C   4     126.534  43.462  63.5510  0.00  0.00     0.000 OA
ENDBRANCH 60 70
BRANCH 56 76
ATOM     76  O4  IDS C   5     122.992  37.927  62.5450  0.00  0.00     0.000 O
BRANCH 76 80
ATOM     77  C1  IDS C   5     124.457  35.072  65.0670  0.00  0.00     0.000 C
ATOM     78  C2  IDS C   5     124.839  36.504  65.4400  0.00  0.00     0.000 C
ATOM     79  C3  IDS C   5     123.916  37.482  64.7390  0.00  0.00     0.000 C
ATOM     80  C4  IDS C   5     124.138  37.402  63.2310  0.00  0.00     0.000 C
ATOM     81  C5  IDS C   5     124.380  35.940  62.8290  0.00  0.00     0.000 C
ATOM     82  O5  IDS C   5     123.809  35.052  63.7950  0.00  0.00     0.000 O
BRANCH 78 83
ATOM     83   O  IDS C   5     124.720  36.714  66.9020  0.00  0.00     0.000 O
ATOM     84   S  IDS C   5     126.032  36.740  67.8080  0.00  0.00     0.000 S
ATOM     85   O  IDS C   5     126.794  35.579  67.4340  0.00  0.00     0.000 OA
ATOM     86   O  IDS C   5     126.692  37.982  67.4840  0.00  0.00     0.000 OA
ATOM     87   O  IDS C   5     125.565  36.698  69.1730  0.00  0.00     0.000 OA
ENDBRANCH 78 83
BRANCH 81 88
ATOM     88   C  IDS C   5     123.808  35.571  61.4730  0.00  0.00     0.000 C
ATOM     89   O  IDS C   5     122.789  34.937  61.4060  0.00  0.00     0.000 OA
ATOM     90   O  IDS C   5     124.381  35.918  60.4660  0.00  0.00     0.000 OA
ENDBRANCH 81 88
ENDBRANCH 76 80
ENDBRANCH 56 76
ENDBRANCH 55 59
ENDBRANCH 39 55
ENDBRANCH 38 42
ENDBRANCH 18 38
ENDBRANCH 17 21
ENDBRANCH 1 17
TORSDOF 18
ENDMDL
MODEL 31
REMARK VINA RESULT:      -7.1     22.963     28.167
ROOT
ATOM      1  C1  IDS C   1     151.373  39.990  72.2390  0.00  0.00     0.000 C
ATOM      2  C2  IDS C   1     151.191  41.040  71.1390  0.00  0.00     0.000 C
ATOM      3  C3  IDS C   1     152.534  41.436  70.5430  0.00  0.00     0.000 C
ATOM      4  C4  IDS C   1     153.456  41.992  71.6200  0.00  0.00     0.000 C
ATOM      5  C5  IDS C   1     153.294  41.194  72.9100  0.00  0.00     0.000 C
ATOM      6  O5  IDS C   1     152.738  39.910  72.6270  0.00  0.00     0.000 O
ATOM      7   O  IDS C   1     152.338  42.415  69.5140  0.00  0.00     0.000 O
ATOM      9  HD  IDS C   1     151.606  42.224  69.0920  0.00  0.00     0.000 HD
ENDROOT
BRANCH 2 9
ATOM      9   O  IDS C   1     150.354  40.510  70.0390  0.00  0.00     0.000 O
ATOM     10   S  IDS C   1     149.033  41.295  69.6120  0.00  0.00     0.000 S
ATOM     11   O  IDS C   1     148.459  40.540  68.5200  0.00  0.00     0.000 OA
ATOM     12   O  IDS C   1     148.191  41.310  70.7910  0.00  0.00     0.000 OA
ATOM     13   O  IDS C   1     149.469  42.615  69.2140  0.00  0.00     0.000 OA
ENDBRANCH 2 9
BRANCH 5 14
ATOM     14   C  IDS C   1     154.616  40.998  73.6330  0.00  0.00     0.000 C
ATOM     15   O  IDS C   1     155.414  41.903  73.6680  0.00  0.00     0.000 OA
ATOM     16   O  IDS C   1     154.861  39.930  74.1670  0.00  0.00     0.000 OA
ENDBRANCH 5 14
BRANCH 1 17
ATOM     17  O4  SGN C   2     150.580  38.922  72.3640  0.00  0.00     0.000 O
BRANCH 17 21
ATOM     18  C1  SGN C   2     149.906  34.808  72.7460  0.00  0.00     0.000 C
ATOM     19  C2  SGN C   2     151.368  35.271  72.7850  0.00  0.00     0.000 C
ATOM     20  C3  SGN C   2     151.428  36.778  73.0610  0.00  0.00     0.000 C
ATOM     21  C4  SGN C   2     150.566  37.531  72.0540  0.00  0.00     0.000 C
ATOM     22  C5  SGN C   2     149.142  36.987  72.1120  0.00  0.00     0.000 C
ATOM     23  O5  SGN C   2     149.148  35.568  71.8290  0.00  0.00     0.000 O
ATOM     24   O  SGN C   2     152.773  37.224  73.0110  0.00  0.00     0.000 O
ATOM     26  HD  SGN C   2     151.965  37.172  73.3190  0.00  0.00     0.000 HD
BRANCH 19 28
ATOM     26   N  SGN C   2     152.302  34.680  73.7530  0.00  0.00     0.000 N
ATOM     28  HD  SGN C   2     151.609  34.881  74.2320  0.00  0.00     0.000 HD
ATOM     28   O  SGN C   2     154.112  33.035  74.2460  0.00  0.00     0.000 OA
ATOM     29   S  SGN C   2     152.615  33.103  73.7930  0.00  0.00     0.000 S
ATOM     30   O  SGN C   2     151.810  32.535  74.8050  0.00  0.00     0.000 OA
ATOM     31   O  SGN C   2     152.521  32.611  72.4620  0.00  0.00     0.000 OA
ENDBRANCH 19 28
BRANCH 22 32
ATOM     32   C  SGN C   2     148.215  37.627  71.1080  0.00  0.00     0.000 C
ATOM     33   S  SGN C   2     147.209  37.109  68.7930  0.00  0.00     0.000 S
ATOM     34   O  SGN C   2     148.437  37.431  68.1110  0.00  0.00     0.000 OA
ATOM     35   O  SGN C   2     146.511  35.973  68.2280  0.00  0.00     0.000 OA
ATOM     36   O  SGN C   2     146.354  38.247  69.0340  0.00  0.00     0.000 OA
ATOM     37   O  SGN C   2     147.677  36.623  70.2390  0.00  0.00     0.000 O
ENDBRANCH 22 32
BRANCH 18 38
ATOM     38  O4  IDS C   3     149.054  34.559  73.7430  0.00  0.00     0.000 O
BRANCH 38 42
ATOM     39  C1  IDS C   3     147.092  33.112  76.2290  0.00  0.00     0.000 C
ATOM     40  C2  IDS C   3     147.113  32.539  74.8030  0.00  0.00     0.000 C
ATOM     41  C3  IDS C   3     146.831  33.626  73.7660  0.00  0.00     0.000 C
ATOM     42  C4  IDS C   3     147.682  34.862  74.0190  0.00  0.00     0.000 C
ATOM     43  C5  IDS C   3     147.529  35.310  75.4780  0.00  0.00     0.000 C
ATOM     44  O5  IDS C   3     147.935  34.246  76.3370  0.00  0.00     0.000 O
ATOM     45   O  IDS C   3     145.446  33.976  73.8130  0.00  0.00     0.000 O
ATOM     47  HD  IDS C   3     144.904  34.246  74.4310  0.00  0.00     0.000 HD
BRANCH 40 47
ATOM     47   O  IDS C   3     148.443  31.963  74.4940  0.00  0.00     0.000 O
ATOM     48   S  IDS C   3     148.635  30.376  74.4590  0.00  0.00     0.000 S
ATOM     49   O  IDS C   3     148.692  29.952  75.8410  0.00  0.00     0.000 OA
ATOM     50   O  IDS C   3     149.883  30.158  73.7610  0.00  0.00     0.000 OA
ATOM     51   O  IDS C   3     147.495  29.844  73.7590  0.00  0.00     0.000 OA
ENDBRANCH 40 47
BRANCH 43 52
ATOM     52   C  IDS C   3     148.327  36.554  75.7960  0.00  0.00     0.000 C
ATOM     53   O  IDS C   3     148.169  37.557  75.1380  0.00  0.00     0.000 OA
ATOM     54   O  IDS C   3     149.117  36.540  76.7060  0.00  0.00     0.000 OA
ENDBRANCH 43 52
BRANCH 39 55
ATOM     55  O4  SGN C   4     145.993  33.179  76.9820  0.00  0.00     0.000 O
BRANCH 55 59
ATOM     56  C1  SGN C   4     144.022  32.963  80.6660  0.00  0.00     0.000 C
ATOM     57  C2  SGN C   4     145.357  33.727  80.6440  0.00  0.00     0.000 C
ATOM     58  C3  SGN C   4     145.762  34.070  79.2130  0.00  0.00     0.000 C
ATOM     59  C4  SGN C   4     145.717  32.827  78.3300  0.00  0.00     0.000 C
ATOM     60  C5  SGN C   4     144.327  32.203  78.4320  0.00  0.00     0.000 C
ATOM     61  O5  SGN C   4     144.095  31.837  79.8060  0.00  0.00     0.000 O
ATOM     62   O  SGN C   4     147.063  34.641  79.2100  0.00  0.00     0.000 O
ATOM     64  HD  SGN C   4     146.739  34.844  79.9870  0.00  0.00     0.000 HD
BRANCH 57 66
ATOM     64   N  SGN C   4     145.333  33.644  82.1140  0.00  0.00     0.000 N
ATOM     66  HD  SGN C   4     145.903  33.755  82.7560  0.00  0.00     0.000 HD
ATOM     66   S  SGN C   4     145.830  34.871  83.0050  0.00  0.00     0.000 S
ATOM     67   O  SGN C   4     145.746  34.471  84.3620  0.00  0.00     0.000 OA
ATOM     68   O  SGN C   4     147.082  35.289  82.4750  0.00  0.00     0.000 OA
ATOM     69   O  SGN C   4     144.771  35.985  82.7250  0.00  0.00     0.000 OA
ENDBRANCH 57 66
BRANCH 60 70
ATOM     70   C  SGN C   4     144.154  30.959  77.5870  0.00  0.00     0.000 C
ATOM     71   O  SGN C   4     141.429  28.392  77.8850  0.00  0.00     0.000 OA
ATOM     72   O  SGN C   4     141.602  30.177  76.2620  0.00  0.00     0.000 OA
ATOM     73   O  SGN C   4     143.119  30.118  78.1330  0.00  0.00     0.000 O
ATOM     74   S  SGN C   4     142.304  29.222  77.0890  0.00  0.00     0.000 S
ATOM     75   O  SGN C   4     143.317  28.473  76.3730  0.00  0.00     0.000 OA
ENDBRANCH 60 70
BRANCH 56 76
ATOM     76  O4  IDS C   5     142.725  33.296  80.7920  0.00  0.00     0.000 O
BRANCH 76 80
ATOM     77  C1  IDS C   5     139.334  35.065  82.2190  0.00  0.00     0.000 C
ATOM     78  C2  IDS C   5     140.233  34.455  83.2940  0.00  0.00     0.000 C
ATOM     79  C3  IDS C   5     141.624  34.231  82.7360  0.00  0.00     0.000 C
ATOM     80  C4  IDS C   5     141.569  33.176  81.6350  0.00  0.00     0.000 C
ATOM     81  C5  IDS C   5     140.285  33.365  80.8140  0.00  0.00     0.000 C
ATOM     82  O5  IDS C   5     139.813  34.711  80.9210  0.00  0.00     0.000 O
BRANCH 78 83
ATOM     83   O  IDS C   5     140.337  35.359  84.4640  0.00  0.00     0.000 O
ATOM     84   S  IDS C   5     139.656  34.949  85.8470  0.00  0.00     0.000 S
ATOM     85   O  IDS C   5     138.313  34.547  85.5220  0.00  0.00     0.000 OA
ATOM     86   O  IDS C   5     140.464  33.868  86.3600  0.00  0.00     0.000 OA
ATOM     87   O  IDS C   5     139.713  36.128  86.6750  0.00  0.00     0.000 OA
ENDBRANCH 78 83
BRANCH 81 88
ATOM     88   C  IDS C   5     140.446  33.052  79.3380  0.00  0.00     0.000 C
ATOM     89   O  IDS C   5     140.483  33.948  78.5370  0.00  0.00     0.000 OA
ATOM     90   O  IDS C   5     140.538  31.902  78.9760  0.00  0.00     0.000 OA
ENDBRANCH 81 88
ENDBRANCH 76 80
ENDBRANCH 56 76
ENDBRANCH 55 59
ENDBRANCH 39 55
ENDBRANCH 38 42
ENDBRANCH 18 38
ENDBRANCH 17 21
ENDBRANCH 1 17
TORSDOF 18
ENDMDL
MODEL 32
REMARK VINA RESULT:      -7.0     16.180     20.636
ROOT
ATOM      1  C1  IDS C   1     155.098  11.744  87.9780  0.00  0.00     0.000 C
ATOM      2  C2  IDS C   1     156.438  11.157  87.5260  0.00  0.00     0.000 C
ATOM      3  C3  IDS C   1     156.355   9.642  87.4180  0.00  0.00     0.000 C
ATOM      4  C4  IDS C   1     155.964   9.029  88.7560  0.00  0.00     0.000 C
ATOM      5  C5  IDS C   1     154.914   9.896  89.4420  0.00  0.00     0.000 C
ATOM      6  O5  IDS C   1     154.251  10.718  88.4810  0.00  0.00     0.000 O
ATOM      7   O  IDS C   1     157.619   9.116  86.9890  0.00  0.00     0.000 O
ATOM      9  HD  IDS C   1     157.966   9.670  86.4210  0.00  0.00     0.000 HD
ENDROOT
BRANCH 2 9
ATOM      9   O  IDS C   1     156.819  11.679  86.1940  0.00  0.00     0.000 O
ATOM     10   S  IDS C   1     158.240  12.376  86.0030  0.00  0.00     0.000 S
ATOM     11   O  IDS C   1     158.311  12.757  84.6100  0.00  0.00     0.000 OA
ATOM     12   O  IDS C   1     158.240  13.514  86.8990  0.00  0.00     0.000 OA
ATOM     13   O  IDS C   1     159.222  11.376  86.3620  0.00  0.00     0.000 OA
ENDBRANCH 2 9
BRANCH 5 14
ATOM     14   C  IDS C   1     153.869   9.066  90.1670  0.00  0.00     0.000 C
ATOM     15   O  IDS C   1     153.285   8.194  89.5700  0.00  0.00     0.000 OA
ATOM     16   O  IDS C   1     153.627   9.287  91.3420  0.00  0.00     0.000 OA
ENDBRANCH 5 14
BRANCH 1 17
ATOM     17  O4  SGN C   2     154.564  12.843  87.4360  0.00  0.00     0.000 O
BRANCH 17 21
ATOM     18  C1  SGN C   2     152.128  14.943  84.7570  0.00  0.00     0.000 C
ATOM     19  C2  SGN C   2     151.873  13.436  84.8800  0.00  0.00     0.000 C
ATOM     20  C3  SGN C   2     152.520  12.903  86.1640  0.00  0.00     0.000 C
ATOM     21  C4  SGN C   2     153.994  13.288  86.2080  0.00  0.00     0.000 C
ATOM     22  C5  SGN C   2     154.118  14.803  86.0810  0.00  0.00     0.000 C
ATOM     23  O5  SGN C   2     153.505  15.242  84.8470  0.00  0.00     0.000 O
ATOM     24   O  SGN C   2     152.360  11.496  86.2370  0.00  0.00     0.000 O
ATOM     26  HD  SGN C   2     152.375  12.310  86.5340  0.00  0.00     0.000 HD
BRANCH 19 28
ATOM     26   N  SGN C   2     150.566  13.294  84.2220  0.00  0.00     0.000 N
ATOM     28  HD  SGN C   2     151.010  13.812  83.6890  0.00  0.00     0.000 HD
ATOM     28   O  SGN C   2     148.567  11.889  83.7230  0.00  0.00     0.000 OA
ATOM     29   S  SGN C   2     150.115  11.934  83.4930  0.00  0.00     0.000 S
ATOM     30   O  SGN C   2     150.363  12.090  82.1110  0.00  0.00     0.000 OA
ATOM     31   O  SGN C   2     150.710  10.850  84.1950  0.00  0.00     0.000 OA
ENDBRANCH 19 28
BRANCH 22 32
ATOM     32   C  SGN C   2     155.547  15.287  86.0550  0.00  0.00     0.000 C
ATOM     33   S  SGN C   2     156.840  17.498  85.7670  0.00  0.00     0.000 S
ATOM     34   O  SGN C   2     156.634  17.512  84.3400  0.00  0.00     0.000 OA
ATOM     35   O  SGN C   2     156.748  18.807  86.3800  0.00  0.00     0.000 OA
ATOM     36   O  SGN C   2     157.998  16.746  86.1880  0.00  0.00     0.000 OA
ATOM     37   O  SGN C   2     155.586  16.691  86.3370  0.00  0.00     0.000 O
ENDBRANCH 22 32
BRANCH 18 38
ATOM     38  O4  IDS C   3     151.533  15.971  85.3660  0.00  0.00     0.000 O
BRANCH 38 42
ATOM     39  C1  IDS C   3     149.869  18.914  86.2020  0.00  0.00     0.000 C
ATOM     40  C2  IDS C   3     151.102  18.935  85.2850  0.00  0.00     0.000 C
ATOM     41  C3  IDS C   3     152.278  18.196  85.9220  0.00  0.00     0.000 C
ATOM     42  C4  IDS C   3     151.849  16.838  86.4610  0.00  0.00     0.000 C
ATOM     43  C5  IDS C   3     150.624  17.002  87.3690  0.00  0.00     0.000 C
ATOM     44  O5  IDS C   3     149.564  17.594  86.6200  0.00  0.00     0.000 O
ATOM     45   O  IDS C   3     152.815  18.988  86.9840  0.00  0.00     0.000 O
ATOM     47  HD  IDS C   3     152.491  19.352  87.6990  0.00  0.00     0.000 HD
BRANCH 40 47
ATOM     47   O  IDS C   3     150.803  18.266  83.9960  0.00  0.00     0.000 O
ATOM     48   S  IDS C   3     150.041  19.069  82.8410  0.00  0.00     0.000 S
ATOM     49   O  IDS C   3     148.648  19.101  83.2320  0.00  0.00     0.000 OA
ATOM     50   O  IDS C   3     150.260  18.300  81.6360  0.00  0.00     0.000 OA
ATOM     51   O  IDS C   3     150.637  20.377  82.7950  0.00  0.00     0.000 OA
ENDBRANCH 40 47
BRANCH 43 52
ATOM     52   C  IDS C   3     150.157  15.693  87.9650  0.00  0.00     0.000 C
ATOM     53   O  IDS C   3     149.031  15.303  87.7540  0.00  0.00     0.000 OA
ATOM     54   O  IDS C   3     150.909  15.045  88.6460  0.00  0.00     0.000 OA
ENDBRANCH 43 52
BRANCH 39 55
ATOM     55  O4  SGN C   4     149.617  19.846  87.1220  0.00  0.00     0.000 O
BRANCH 55 59
ATOM     56  C1  SGN C   4     145.962  21.872  86.9230  0.00  0.00     0.000 C
ATOM     57  C2  SGN C   4     147.031  22.280  85.8950  0.00  0.00     0.000 C
ATOM     58  C3  SGN C   4     148.133  21.227  85.8130  0.00  0.00     0.000 C
ATOM     59  C4  SGN C   4     148.669  20.900  87.2020  0.00  0.00     0.000 C
ATOM     60  C5  SGN C   4     147.500  20.482  88.0930  0.00  0.00     0.000 C
ATOM     61  O5  SGN C   4     146.574  21.584  88.1700  0.00  0.00     0.000 O
ATOM     62   O  SGN C   4     149.178  21.696  84.9710  0.00  0.00     0.000 O
ATOM     64  HD  SGN C   4     148.466  22.088  84.6720  0.00  0.00     0.000 HD
BRANCH 57 66
ATOM     64   N  SGN C   4     147.192  23.532  85.1390  0.00  0.00     0.000 N
ATOM     66  HD  SGN C   4     147.147  23.772  84.3080  0.00  0.00     0.000 HD
ATOM     66   S  SGN C   4     146.045  24.038  84.1520  0.00  0.00     0.000 S
ATOM     67   O  SGN C   4     146.511  25.223  83.5300  0.00  0.00     0.000 OA
ATOM     68   O  SGN C   4     145.669  22.927  83.3470  0.00  0.00     0.000 OA
ATOM     69   O  SGN C   4     144.859  24.385  85.1090  0.00  0.00     0.000 OA
ENDBRANCH 57 66
BRANCH 60 70
ATOM     70   C  SGN C   4     147.907  20.121  89.5050  0.00  0.00     0.000 C
ATOM     71   O  SGN C   4     148.744  16.698  90.8060  0.00  0.00     0.000 OA
ATOM     72   O  SGN C   4     150.284  18.459  90.1900  0.00  0.00     0.000 OA
ATOM     73   O  SGN C   4     147.943  18.690  89.6700  0.00  0.00     0.000 O
ATOM     74   S  SGN C   4     148.989  18.121  90.7360  0.00  0.00     0.000 S
ATOM     75   O  SGN C   4     148.682  18.821  91.9680  0.00  0.00     0.000 OA
ENDBRANCH 60 70
BRANCH 56 76
ATOM     76  O4  IDS C   5     144.791  21.210  86.8820  0.00  0.00     0.000 O
BRANCH 76 80
ATOM     77  C1  IDS C   5     142.384  17.915  86.9660  0.00  0.00     0.000 C
ATOM     78  C2  IDS C   5     143.528  17.839  85.9560  0.00  0.00     0.000 C
ATOM     79  C3  IDS C   5     144.587  18.869  86.3000  0.00  0.00     0.000 C
ATOM     80  C4  IDS C   5     144.011  20.271  86.1270  0.00  0.00     0.000 C
ATOM     81  C5  IDS C   5     142.551  20.283  86.6010  0.00  0.00     0.000 C
ATOM     82  O5  IDS C   5     142.317  19.223  87.5340  0.00  0.00     0.000 O
BRANCH 78 83
ATOM     83   O  IDS C   5     144.156  16.497  85.9750  0.00  0.00     0.000 O
ATOM     84   S  IDS C   5     144.269  15.655  84.6250  0.00  0.00     0.000 S
ATOM     85   O  IDS C   5     142.962  15.694  84.0240  0.00  0.00     0.000 OA
ATOM     86   O  IDS C   5     145.275  16.332  83.8400  0.00  0.00     0.000 OA
ATOM     87   O  IDS C   5     144.674  14.330  85.0240  0.00  0.00     0.000 OA
ENDBRANCH 78 83
BRANCH 81 88
ATOM     88   C  IDS C   5     142.130  21.580  87.2680  0.00  0.00     0.000 C
ATOM     89   O  IDS C   5     142.023  21.631  88.4640  0.00  0.00     0.000 OA
ATOM     90   O  IDS C   5     141.907  22.557  86.5900  0.00  0.00     0.000 OA
ENDBRANCH 81 88
ENDBRANCH 76 80
ENDBRANCH 56 76
ENDBRANCH 55 59
ENDBRANCH 39 55
ENDBRANCH 38 42
ENDBRANCH 18 38
ENDBRANCH 17 21
ENDBRANCH 1 17
TORSDOF 18
ENDMDL
MODEL 33
REMARK VINA RESULT:      -7.0     43.158     48.131
ROOT
ATOM      1  C1  IDS C   1     139.080  50.057  58.5100  0.00  0.00     0.000 C
ATOM      2  C2  IDS C   1     140.487  50.647  58.3820  0.00  0.00     0.000 C
ATOM      3  C3  IDS C   1     140.515  51.758  57.3430  0.00  0.00     0.000 C
ATOM      4  C4  IDS C   1     140.064  51.236  55.9860  0.00  0.00     0.000 C
ATOM      5  C5  IDS C   1     138.908  50.256  56.1600  0.00  0.00     0.000 C
ATOM      6  O5  IDS C   1     138.268  50.469  57.4180  0.00  0.00     0.000 O
ATOM      7   O  IDS C   1     141.840  52.298  57.2440  0.00  0.00     0.000 O
ATOM      9  HD  IDS C   1     142.192  52.303  58.0360  0.00  0.00     0.000 HD
ENDROOT
BRANCH 2 9
ATOM      9   O  IDS C   1     140.934  51.228  59.6680  0.00  0.00     0.000 O
ATOM     10   S  IDS C   1     142.267  50.682  60.3530  0.00  0.00     0.000 S
ATOM     11   O  IDS C   1     142.432  51.451  61.5670  0.00  0.00     0.000 OA
ATOM     12   O  IDS C   1     142.028  49.275  60.6050  0.00  0.00     0.000 OA
ATOM     13   O  IDS C   1     143.326  50.911  59.3950  0.00  0.00     0.000 OA
ENDBRANCH 2 9
BRANCH 5 14
ATOM     14   C  IDS C   1     137.868  50.395  55.0610  0.00  0.00     0.000 C
ATOM     15   O  IDS C   1     138.031  49.819  54.0130  0.00  0.00     0.000 OA
ATOM     16   O  IDS C   1     136.881  51.087  55.2460  0.00  0.00     0.000 OA
ENDBRANCH 5 14
BRANCH 1 17
ATOM     17  O4  SGN C   2     138.518  49.764  59.6860  0.00  0.00     0.000 O
BRANCH 17 21
ATOM     18  C1  SGN C   2     135.757  50.335  62.7810  0.00  0.00     0.000 C
ATOM     19  C2  SGN C   2     135.521  51.135  61.4930  0.00  0.00     0.000 C
ATOM     20  C3  SGN C   2     136.328  50.519  60.3440  0.00  0.00     0.000 C
ATOM     21  C4  SGN C   2     137.795  50.398  60.7380  0.00  0.00     0.000 C
ATOM     22  C5  SGN C   2     137.900  49.582  62.0230  0.00  0.00     0.000 C
ATOM     23  O5  SGN C   2     137.134  50.220  63.0710  0.00  0.00     0.000 O
ATOM     24   O  SGN C   2     136.180  51.307  59.1740  0.00  0.00     0.000 O
ATOM     26  HD  SGN C   2     136.232  50.577  59.6390  0.00  0.00     0.000 HD
BRANCH 19 28
ATOM     26   N  SGN C   2     134.101  51.489  61.6250  0.00  0.00     0.000 N
ATOM     28  HD  SGN C   2     134.382  51.458  62.4440  0.00  0.00     0.000 HD
ATOM     28   O  SGN C   2     132.095  52.657  60.7110  0.00  0.00     0.000 OA
ATOM     29   S  SGN C   2     133.539  52.946  61.2430  0.00  0.00     0.000 S
ATOM     30   O  SGN C   2     133.439  53.691  62.4390  0.00  0.00     0.000 OA
ATOM     31   O  SGN C   2     134.327  53.444  60.1690  0.00  0.00     0.000 OA
ENDBRANCH 19 28
BRANCH 22 32
ATOM     32   C  SGN C   2     139.313  49.451  62.5350  0.00  0.00     0.000 C
ATOM     33   S  SGN C   2     140.535  48.808  64.7120  0.00  0.00     0.000 S
ATOM     34   O  SGN C   2     140.255  50.081  65.3260  0.00  0.00     0.000 OA
ATOM     35   O  SGN C   2     140.444  47.689  65.6260  0.00  0.00     0.000 OA
ATOM     36   O  SGN C   2     141.732  48.794  63.9040  0.00  0.00     0.000 OA
ATOM     37   O  SGN C   2     139.333  48.594  63.6830  0.00  0.00     0.000 O
ENDBRANCH 22 32
BRANCH 18 38
ATOM     38  O4  IDS C   3     135.243  49.169  63.1770  0.00  0.00     0.000 O
BRANCH 38 42
ATOM     39  C1  IDS C   3     133.478  46.173  63.3810  0.00  0.00     0.000 C
ATOM     40  C2  IDS C   3     132.792  47.467  62.9120  0.00  0.00     0.000 C
ATOM     41  C3  IDS C   3     133.016  48.604  63.9090  0.00  0.00     0.000 C
ATOM     42  C4  IDS C   3     134.483  48.711  64.3010  0.00  0.00     0.000 C
ATOM     43  C5  IDS C   3     135.000  47.343  64.7600  0.00  0.00     0.000 C
ATOM     44  O5  IDS C   3     134.841  46.403  63.6980  0.00  0.00     0.000 O
ATOM     45   O  IDS C   3     132.221  48.375  65.0740  0.00  0.00     0.000 O
ATOM     47  HD  IDS C   3     132.137  47.725  65.6400  0.00  0.00     0.000 HD
BRANCH 40 47
ATOM     47   O  IDS C   3     133.342  47.904  61.6070  0.00  0.00     0.000 O
ATOM     48   S  IDS C   3     132.371  48.540  60.5070  0.00  0.00     0.000 S
ATOM     49   O  IDS C   3     131.658  47.428  59.9160  0.00  0.00     0.000 OA
ATOM     50   O  IDS C   3     133.246  49.200  59.5630  0.00  0.00     0.000 OA
ATOM     51   O  IDS C   3     131.504  49.450  61.2070  0.00  0.00     0.000 OA
ENDBRANCH 40 47
BRANCH 43 52
ATOM     52   C  IDS C   3     136.449  47.379  65.1930  0.00  0.00     0.000 C
ATOM     53   O  IDS C   3     137.200  46.490  64.8630  0.00  0.00     0.000 OA
ATOM     54   O  IDS C   3     136.848  48.295  65.8660  0.00  0.00     0.000 OA
ENDBRANCH 43 52
BRANCH 39 55
ATOM     55  O4  SGN C   4     132.888  45.262  64.1540  0.00  0.00     0.000 O
BRANCH 55 59
ATOM     56  C1  SGN C   4     130.026  42.899  62.2230  0.00  0.00     0.000 C
ATOM     57  C2  SGN C   4     129.628  43.481  63.5900  0.00  0.00     0.000 C
ATOM     58  C3  SGN C   4     130.569  44.613  63.9910  0.00  0.00     0.000 C
ATOM     59  C4  SGN C   4     132.023  44.169  63.8790  0.00  0.00     0.000 C
ATOM     60  C5  SGN C   4     132.271  43.652  62.4640  0.00  0.00     0.000 C
ATOM     61  O5  SGN C   4     131.395  42.530  62.2330  0.00  0.00     0.000 O
ATOM     62   O  SGN C   4     130.273  45.031  65.3170  0.00  0.00     0.000 O
ATOM     64  HD  SGN C   4     129.521  44.727  65.0130  0.00  0.00     0.000 HD
BRANCH 57 66
ATOM     64   N  SGN C   4     128.203  43.817  63.4350  0.00  0.00     0.000 N
ATOM     66  HD  SGN C   4     127.487  43.401  63.1820  0.00  0.00     0.000 HD
ATOM     66   S  SGN C   4     127.079  42.933  64.1440  0.00  0.00     0.000 S
ATOM     67   O  SGN C   4     125.820  43.462  63.7630  0.00  0.00     0.000 OA
ATOM     68   O  SGN C   4     127.381  41.572  63.8630  0.00  0.00     0.000 OA
ATOM     69   O  SGN C   4     127.310  43.193  65.6680  0.00  0.00     0.000 OA
ENDBRANCH 57 66
BRANCH 60 70
ATOM     70   C  SGN C   4     133.691  43.187  62.2240  0.00  0.00     0.000 C
ATOM     71   O  SGN C   4     135.925  41.407  64.6620  0.00  0.00     0.000 OA
ATOM     72   O  SGN C   4     134.679  40.441  62.8280  0.00  0.00     0.000 OA
ATOM     73   O  SGN C   4     134.289  42.735  63.4540  0.00  0.00     0.000 O
ATOM     74   S  SGN C   4     135.399  41.590  63.3290  0.00  0.00     0.000 S
ATOM     75   O  SGN C   4     136.370  42.117  62.3920  0.00  0.00     0.000 OA
ENDBRANCH 60 70
BRANCH 56 76
ATOM     76  O4  IDS C   5     129.674  43.123  60.9430  0.00  0.00     0.000 O
BRANCH 76 80
ATOM     77  C1  IDS C   5     129.094  43.919  56.9820  0.00  0.00     0.000 C
ATOM     78  C2  IDS C   5     130.333  44.579  57.5870  0.00  0.00     0.000 C
ATOM     79  C3  IDS C   5     130.699  43.891  58.8880  0.00  0.00     0.000 C
ATOM     80  C4  IDS C   5     129.596  44.123  59.9160  0.00  0.00     0.000 C
ATOM     81  C5  IDS C   5     128.229  44.068  59.2170  0.00  0.00     0.000 C
ATOM     82  O5  IDS C   5     128.313  43.307  58.0090  0.00  0.00     0.000 O
BRANCH 78 83
ATOM     83   O  IDS C   5     131.486  44.476  56.6620  0.00  0.00     0.000 O
ATOM     84   S  IDS C   5     132.502  45.698  56.5240  0.00  0.00     0.000 S
ATOM     85   O  IDS C   5     131.690  46.870  56.3350  0.00  0.00     0.000 OA
ATOM     86   O  IDS C   5     133.244  45.715  57.7620  0.00  0.00     0.000 OA
ATOM     87   O  IDS C   5     133.331  45.389  55.3840  0.00  0.00     0.000 OA
ENDBRANCH 78 83
BRANCH 81 88
ATOM     88   C  IDS C   5     127.128  43.459  60.0660  0.00  0.00     0.000 C
ATOM     89   O  IDS C   5     126.449  44.165  60.7620  0.00  0.00     0.000 OA
ATOM     90   O  IDS C   5     126.940  42.264  60.0350  0.00  0.00     0.000 OA
ENDBRANCH 81 88
ENDBRANCH 76 80
ENDBRANCH 56 76
ENDBRANCH 55 59
ENDBRANCH 39 55
ENDBRANCH 38 42
ENDBRANCH 18 38
ENDBRANCH 17 21
ENDBRANCH 1 17
TORSDOF 18
ENDMDL
MODEL 34
REMARK VINA RESULT:      -7.0     28.219     33.158
ROOT
ATOM      1  C1  IDS C   1     159.679  34.291  51.8280  0.00  0.00     0.000 C
ATOM      2  C2  IDS C   1     158.788  33.181  51.2620  0.00  0.00     0.000 C
ATOM      3  C3  IDS C   1     157.329  33.611  51.2520  0.00  0.00     0.000 C
ATOM      4  C4  IDS C   1     156.863  33.962  52.6590  0.00  0.00     0.000 C
ATOM      5  C5  IDS C   1     157.967  34.700  53.4070  0.00  0.00     0.000 C
ATOM      6  O5  IDS C   1     158.888  35.276  52.4810  0.00  0.00     0.000 O
ATOM      7   O  IDS C   1     156.516  32.558  50.7150  0.00  0.00     0.000 O
ATOM      9  HD  IDS C   1     156.959  32.169  50.0810  0.00  0.00     0.000 HD
ENDROOT
BRANCH 2 9
ATOM      9   O  IDS C   1     159.168  32.859  49.8680  0.00  0.00     0.000 O
ATOM     10   S  IDS C   1     159.517  31.352  49.4790  0.00  0.00     0.000 S
ATOM     11   O  IDS C   1     159.828  31.370  48.0670  0.00  0.00     0.000 OA
ATOM     12   O  IDS C   1     160.652  30.990  50.3020  0.00  0.00     0.000 OA
ATOM     13   O  IDS C   1     158.331  30.582  49.7820  0.00  0.00     0.000 OA
ENDBRANCH 2 9
BRANCH 5 14
ATOM     14   C  IDS C   1     157.419  35.807  54.2920  0.00  0.00     0.000 C
ATOM     15   O  IDS C   1     156.226  35.911  54.4420  0.00  0.00     0.000 OA
ATOM     16   O  IDS C   1     158.187  36.581  54.8390  0.00  0.00     0.000 OA
ENDBRANCH 5 14
BRANCH 1 17
ATOM     17  O4  SGN C   2     160.853  34.629  51.2860  0.00  0.00     0.000 O
BRANCH 17 21
ATOM     18  C1  SGN C   2     163.598  37.241  49.5070  0.00  0.00     0.000 C
ATOM     19  C2  SGN C   2     162.385  37.882  50.1930  0.00  0.00     0.000 C
ATOM     20  C3  SGN C   2     161.725  36.868  51.1360  0.00  0.00     0.000 C
ATOM     21  C4  SGN C   2     161.403  35.583  50.3820  0.00  0.00     0.000 C
ATOM     22  C5  SGN C   2     162.683  35.042  49.7520  0.00  0.00     0.000 C
ATOM     23  O5  SGN C   2     163.248  36.033  48.8640  0.00  0.00     0.000 O
ATOM     24   O  SGN C   2     160.554  37.429  51.7050  0.00  0.00     0.000 O
ATOM     26  HD  SGN C   2     161.294  36.980  51.6940  0.00  0.00     0.000 HD
BRANCH 19 28
ATOM     26   N  SGN C   2     162.824  39.150  50.7920  0.00  0.00     0.000 N
ATOM     28  HD  SGN C   2     163.565  38.757  50.5740  0.00  0.00     0.000 HD
ATOM     28   O  SGN C   2     162.409  41.574  51.2090  0.00  0.00     0.000 OA
ATOM     29   S  SGN C   2     162.654  40.560  50.0400  0.00  0.00     0.000 S
ATOM     30   O  SGN C   2     163.888  40.867  49.4260  0.00  0.00     0.000 OA
ATOM     31   O  SGN C   2     161.474  40.488  49.2490  0.00  0.00     0.000 OA
ENDBRANCH 19 28
BRANCH 22 32
ATOM     32   C  SGN C   2     162.465  33.795  48.9300  0.00  0.00     0.000 C
ATOM     33   S  SGN C   2     163.743  32.353  47.2180  0.00  0.00     0.000 S
ATOM     34   O  SGN C   2     163.515  33.296  46.1510  0.00  0.00     0.000 OA
ATOM     35   O  SGN C   2     165.059  31.751  47.1900  0.00  0.00     0.000 OA
ATOM     36   O  SGN C   2     162.676  31.396  47.3960  0.00  0.00     0.000 OA
ATOM     37   O  SGN C   2     163.730  33.246  48.5410  0.00  0.00     0.000 O
ENDBRANCH 22 32
BRANCH 18 38
ATOM     38  O4  IDS C   3     164.830  37.017  49.9690  0.00  0.00     0.000 O
BRANCH 38 42
ATOM     39  C1  IDS C   3     168.136  36.059  50.5020  0.00  0.00     0.000 C
ATOM     40  C2  IDS C   3     167.052  35.019  50.1750  0.00  0.00     0.000 C
ATOM     41  C3  IDS C   3     165.853  35.156  51.1120  0.00  0.00     0.000 C
ATOM     42  C4  IDS C   3     165.399  36.606  51.2160  0.00  0.00     0.000 C
ATOM     43  C5  IDS C   3     166.595  37.501  51.5660  0.00  0.00     0.000 C
ATOM     44  O5  IDS C   3     167.590  37.367  50.5530  0.00  0.00     0.000 O
ATOM     45   O  IDS C   3     166.206  34.667  52.4070  0.00  0.00     0.000 O
ATOM     47  HD  IDS C   3     166.833  34.842  52.9770  0.00  0.00     0.000 HD
BRANCH 40 47
ATOM     47   O  IDS C   3     166.558  35.200  48.7890  0.00  0.00     0.000 O
ATOM     48   S  IDS C   3     167.428  34.668  47.5580  0.00  0.00     0.000 S
ATOM     49   O  IDS C   3     168.495  35.629  47.3800  0.00  0.00     0.000 OA
ATOM     50   O  IDS C   3     166.518  34.638  46.4340  0.00  0.00     0.000 OA
ATOM     51   O  IDS C   3     167.908  33.365  47.9320  0.00  0.00     0.000 OA
ENDBRANCH 40 47
BRANCH 43 52
ATOM     52   C  IDS C   3     166.213  38.957  51.7150  0.00  0.00     0.000 C
ATOM     53   O  IDS C   3     166.833  39.806  51.1180  0.00  0.00     0.000 OA
ATOM     54   O  IDS C   3     165.292  39.263  52.4280  0.00  0.00     0.000 OA
ENDBRANCH 43 52
BRANCH 39 55
ATOM     55  O4  SGN C   4     169.123  35.849  51.3720  0.00  0.00     0.000 O
BRANCH 55 59
ATOM     56  C1  SGN C   4     172.942  34.325  52.1440  0.00  0.00     0.000 C
ATOM     57  C2  SGN C   4     172.602  34.614  50.6720  0.00  0.00     0.000 C
ATOM     58  C3  SGN C   4     171.373  35.513  50.5670  0.00  0.00     0.000 C
ATOM     59  C4  SGN C   4     170.223  34.950  51.3950  0.00  0.00     0.000 C
ATOM     60  C5  SGN C   4     170.704  34.751  52.8300  0.00  0.00     0.000 C
ATOM     61  O5  SGN C   4     171.801  33.816  52.8150  0.00  0.00     0.000 O
ATOM     62   O  SGN C   4     170.993  35.642  49.2030  0.00  0.00     0.000 O
ATOM     64  HD  SGN C   4     171.847  35.502  49.1780  0.00  0.00     0.000 HD
BRANCH 57 66
ATOM     64   N  SGN C   4     174.049  34.374  50.5520  0.00  0.00     0.000 N
ATOM     66  HD  SGN C   4     174.556  33.793  50.1580  0.00  0.00     0.000 HD
ATOM     66   S  SGN C   4     174.733  34.236  49.1170  0.00  0.00     0.000 S
ATOM     67   O  SGN C   4     176.106  33.950  49.3260  0.00  0.00     0.000 OA
ATOM     68   O  SGN C   4     173.938  33.330  48.3620  0.00  0.00     0.000 OA
ATOM     69   O  SGN C   4     174.589  35.663  48.4990  0.00  0.00     0.000 OA
ENDBRANCH 57 66
BRANCH 60 70
ATOM     70   C  SGN C   4     169.642  34.202  53.7590  0.00  0.00     0.000 C
ATOM     71   O  SGN C   4     170.060  31.461  56.2930  0.00  0.00     0.000 OA
ATOM     72   O  SGN C   4     170.007  33.845  56.6950  0.00  0.00     0.000 OA
ATOM     73   O  SGN C   4     170.122  33.023  54.4330  0.00  0.00     0.000 O
ATOM     74   S  SGN C   4     169.528  32.743  55.8910  0.00  0.00     0.000 S
ATOM     75   O  SGN C   4     168.090  32.741  55.7120  0.00  0.00     0.000 OA
ENDBRANCH 60 70
BRANCH 56 76
ATOM     76  O4  IDS C   5     173.747  34.876  53.0710  0.00  0.00     0.000 O
BRANCH 76 80
ATOM     77  C1  IDS C   5     175.572  36.424  56.3780  0.00  0.00     0.000 C
ATOM     78  C2  IDS C   5     174.065  36.668  56.3130  0.00  0.00     0.000 C
ATOM     79  C3  IDS C   5     173.431  35.710  55.3230  0.00  0.00     0.000 C
ATOM     80  C4  IDS C   5     173.934  36.021  53.9170  0.00  0.00     0.000 C
ATOM     81  C5  IDS C   5     175.420  36.403  53.9810  0.00  0.00     0.000 C
ATOM     82  O5  IDS C   5     176.030  35.852  55.1520  0.00  0.00     0.000 O
BRANCH 78 83
ATOM     83   O  IDS C   5     173.441  36.451  57.6390  0.00  0.00     0.000 O
ATOM     84   S  IDS C   5     172.416  37.527  58.2190  0.00  0.00     0.000 S
ATOM     85   O  IDS C   5     173.055  38.806  58.0630  0.00  0.00     0.000 OA
ATOM     86   O  IDS C   5     171.224  37.385  57.4160  0.00  0.00     0.000 OA
ATOM     87   O  IDS C   5     172.204  37.160  59.5980  0.00  0.00     0.000 OA
ENDBRANCH 78 83
BRANCH 81 88
ATOM     88   C  IDS C   5     176.228  35.938  52.7830  0.00  0.00     0.000 C
ATOM     89   O  IDS C   5     177.017  35.040  52.9050  0.00  0.00     0.000 OA
ATOM     90   O  IDS C   5     176.071  36.475  51.7110  0.00  0.00     0.000 OA
ENDBRANCH 81 88
ENDBRANCH 76 80
ENDBRANCH 56 76
ENDBRANCH 55 59
ENDBRANCH 39 55
ENDBRANCH 38 42
ENDBRANCH 18 38
ENDBRANCH 17 21
ENDBRANCH 1 17
TORSDOF 18
ENDMDL
MODEL 35
REMARK VINA RESULT:      -6.9     22.390     26.814
ROOT
ATOM      1  C1  IDS C   1     180.638  29.941  60.2390  0.00  0.00     0.000 C
ATOM      2  C2  IDS C   1     180.155  30.986  59.2280  0.00  0.00     0.000 C
ATOM      3  C3  IDS C   1     180.886  32.305  59.4230  0.00  0.00     0.000 C
ATOM      4  C4  IDS C   1     180.671  32.835  60.8340  0.00  0.00     0.000 C
ATOM      5  C5  IDS C   1     180.699  31.685  61.8350  0.00  0.00     0.000 C
ATOM      6  O5  IDS C   1     181.385  30.564  61.2760  0.00  0.00     0.000 O
ATOM      7   O  IDS C   1     180.421  33.265  58.4630  0.00  0.00     0.000 O
ATOM      9  HD  IDS C   1     180.263  32.851  57.7190  0.00  0.00     0.000 HD
ENDROOT
BRANCH 2 9
ATOM      9   O  IDS C   1     180.411  30.534  57.8410  0.00  0.00     0.000 O
ATOM     10   S  IDS C   1     179.188  30.379  56.8290  0.00  0.00     0.000 S
ATOM     11   O  IDS C   1     179.764  29.944  55.5760  0.00  0.00     0.000 OA
ATOM     12   O  IDS C   1     178.314  29.389  57.4230  0.00  0.00     0.000 OA
ATOM     13   O  IDS C   1     178.580  31.688  56.7420  0.00  0.00     0.000 OA
ENDBRANCH 2 9
BRANCH 5 14
ATOM     14   C  IDS C   1     181.388  32.071  63.1330  0.00  0.00     0.000 C
ATOM     15   O  IDS C   1     182.441  32.660  63.0940  0.00  0.00     0.000 OA
ATOM     16   O  IDS C   1     180.874  31.782  64.2000  0.00  0.00     0.000 OA
ENDBRANCH 5 14
BRANCH 1 17
ATOM     17  O4  SGN C   2     180.884  28.670  59.9100  0.00  0.00     0.000 O
BRANCH 17 21
ATOM     18  C1  SGN C   2     183.668  25.578  59.4470  0.00  0.00     0.000 C
ATOM     19  C2  SGN C   2     184.235  26.982  59.6910  0.00  0.00     0.000 C
ATOM     20  C3  SGN C   2     183.138  27.895  60.2530  0.00  0.00     0.000 C
ATOM     21  C4  SGN C   2     181.917  27.870  59.3410  0.00  0.00     0.000 C
ATOM     22  C5  SGN C   2     181.445  26.428  59.1800  0.00  0.00     0.000 C
ATOM     23  O5  SGN C   2     182.515  25.622  58.6330  0.00  0.00     0.000 O
ATOM     24   O  SGN C   2     183.636  29.215  60.3970  0.00  0.00     0.000 O
ATOM     26  HD  SGN C   2     183.198  28.503  60.6230  0.00  0.00     0.000 HD
BRANCH 19 28
ATOM     26   N  SGN C   2     185.601  26.673  60.1340  0.00  0.00     0.000 N
ATOM     28  HD  SGN C   2     185.423  26.046  59.5630  0.00  0.00     0.000 HD
ATOM     28   O  SGN C   2     187.829  27.479  60.9160  0.00  0.00     0.000 OA
ATOM     29   S  SGN C   2     186.871  27.548  59.6790  0.00  0.00     0.000 S
ATOM     30   O  SGN C   2     187.483  26.880  58.5960  0.00  0.00     0.000 OA
ATOM     31   O  SGN C   2     186.434  28.892  59.5200  0.00  0.00     0.000 OA
ENDBRANCH 19 28
BRANCH 22 32
ATOM     32   C  SGN C   2     180.270  26.283  58.2450  0.00  0.00     0.000 C
ATOM     33   S  SGN C   2     177.730  25.863  58.3740  0.00  0.00     0.000 S
ATOM     34   O  SGN C   2     177.907  24.456  58.6350  0.00  0.00     0.000 OA
ATOM     35   O  SGN C   2     176.646  26.461  59.1240  0.00  0.00     0.000 OA
ATOM     36   O  SGN C   2     177.715  26.204  56.9710  0.00  0.00     0.000 OA
ATOM     37   O  SGN C   2     179.053  26.540  58.9560  0.00  0.00     0.000 O
ENDBRANCH 22 32
BRANCH 18 38
ATOM     38  O4  IDS C   3     183.421  24.587  60.3070  0.00  0.00     0.000 O
BRANCH 38 42
ATOM     39  C1  IDS C   3     183.372  21.731  62.2980  0.00  0.00     0.000 C
ATOM     40  C2  IDS C   3     182.190  22.074  61.3770  0.00  0.00     0.000 C
ATOM     41  C3  IDS C   3     181.705  23.505  61.6100  0.00  0.00     0.000 C
ATOM     42  C4  IDS C   3     182.869  24.486  61.6240  0.00  0.00     0.000 C
ATOM     43  C5  IDS C   3     183.944  24.003  62.6050  0.00  0.00     0.000 C
ATOM     44  O5  IDS C   3     184.394  22.709  62.2060  0.00  0.00     0.000 O
ATOM     45   O  IDS C   3     181.005  23.570  62.8540  0.00  0.00     0.000 O
ATOM     47  HD  IDS C   3     181.194  23.364  63.6740  0.00  0.00     0.000 HD
BRANCH 40 47
ATOM     47   O  IDS C   3     182.591  21.967  59.9540  0.00  0.00     0.000 O
ATOM     48   S  IDS C   3     183.083  20.562  59.3690  0.00  0.00     0.000 S
ATOM     49   O  IDS C   3     184.440  20.389  59.8410  0.00  0.00     0.000 OA
ATOM     50   O  IDS C   3     183.011  20.702  57.9310  0.00  0.00     0.000 OA
ATOM     51   O  IDS C   3     182.182  19.568  59.8880  0.00  0.00     0.000 OA
ENDBRANCH 40 47
BRANCH 43 52
ATOM     52   C  IDS C   3     185.124  24.946  62.6930  0.00  0.00     0.000 C
ATOM     53   O  IDS C   3     186.216  24.581  62.3220  0.00  0.00     0.000 OA
ATOM     54   O  IDS C   3     184.969  26.056  63.1330  0.00  0.00     0.000 OA
ENDBRANCH 43 52
BRANCH 39 55
ATOM     55  O4  SGN C   4     183.231  21.206  63.5150  0.00  0.00     0.000 O
BRANCH 55 59
ATOM     56  C1  SGN C   4     186.024  18.250  64.4980  0.00  0.00     0.000 C
ATOM     57  C2  SGN C   4     184.722  17.772  63.8340  0.00  0.00     0.000 C
ATOM     58  C3  SGN C   4     183.987  18.939  63.1800  0.00  0.00     0.000 C
ATOM     59  C4  SGN C   4     183.821  20.090  64.1660  0.00  0.00     0.000 C
ATOM     60  C5  SGN C   4     185.196  20.471  64.7110  0.00  0.00     0.000 C
ATOM     61  O5  SGN C   4     185.750  19.324  65.3840  0.00  0.00     0.000 O
ATOM     62   O  SGN C   4     182.722  18.499  62.7050  0.00  0.00     0.000 O
ATOM     64  HD  SGN C   4     183.222  17.792  62.6770  0.00  0.00     0.000 HD
BRANCH 57 66
ATOM     64   N  SGN C   4     185.524  16.580  63.5140  0.00  0.00     0.000 N
ATOM     66  HD  SGN C   4     185.627  15.787  63.8480  0.00  0.00     0.000 HD
ATOM     66   S  SGN C   4     184.824  15.157  63.3270  0.00  0.00     0.000 S
ATOM     67   O  SGN C   4     185.850  14.208  63.0910  0.00  0.00     0.000 OA
ATOM     68   O  SGN C   4     183.946  14.978  64.4310  0.00  0.00     0.000 OA
ATOM     69   O  SGN C   4     183.970  15.331  62.0310  0.00  0.00     0.000 OA
ENDBRANCH 57 66
BRANCH 60 70
ATOM     70   C  SGN C   4     185.164  21.616  65.7000  0.00  0.00     0.000 C
ATOM     71   O  SGN C   4     187.314  22.021  68.7530  0.00  0.00     0.000 OA
ATOM     72   O  SGN C   4     187.577  23.110  66.6100  0.00  0.00     0.000 OA
ATOM     73   O  SGN C   4     185.985  21.317  66.8450  0.00  0.00     0.000 O
ATOM     74   S  SGN C   4     186.660  22.564  67.5850  0.00  0.00     0.000 S
ATOM     75   O  SGN C   4     185.557  23.450  67.9000  0.00  0.00     0.000 OA
ENDBRANCH 60 70
BRANCH 56 76
ATOM     76  O4  IDS C   5     187.314  18.348  64.1270  0.00  0.00     0.000 O
BRANCH 76 80
ATOM     77  C1  IDS C   5     188.856  21.736  62.4540  0.00  0.00     0.000 C
ATOM     78  C2  IDS C   5     188.332  20.713  61.4460  0.00  0.00     0.000 C
ATOM     79  C3  IDS C   5     187.409  19.733  62.1420  0.00  0.00     0.000 C
ATOM     80  C4  IDS C   5     188.204  18.910  63.1520  0.00  0.00     0.000 C
ATOM     81  C5  IDS C   5     189.247  19.809  63.8320  0.00  0.00     0.000 C
ATOM     82  O5  IDS C   5     188.845  21.181  63.7690  0.00  0.00     0.000 O
BRANCH 78 83
ATOM     83   O  IDS C   5     187.574  21.384  60.3650  0.00  0.00     0.000 O
ATOM     84   S  IDS C   5     187.939  21.090  58.8400  0.00  0.00     0.000 S
ATOM     85   O  IDS C   5     189.367  21.230  58.7410  0.00  0.00     0.000 OA
ATOM     86   O  IDS C   5     187.482  19.742  58.5950  0.00  0.00     0.000 OA
ATOM     87   O  IDS C   5     187.216  22.071  58.0690  0.00  0.00     0.000 OA
ENDBRANCH 78 83
BRANCH 81 88
ATOM     88   C  IDS C   5     189.494  19.471  65.2910  0.00  0.00     0.000 C
ATOM     89   O  IDS C   5     190.148  18.505  65.5790  0.00  0.00     0.000 OA
ATOM     90   O  IDS C   5     189.030  20.178  66.1560  0.00  0.00     0.000 OA
ENDBRANCH 81 88
ENDBRANCH 76 80
ENDBRANCH 56 76
ENDBRANCH 55 59
ENDBRANCH 39 55
ENDBRANCH 38 42
ENDBRANCH 18 38
ENDBRANCH 17 21
ENDBRANCH 1 17
TORSDOF 18
ENDMDL
MODEL 36
REMARK VINA RESULT:      -6.9     43.894     48.925
ROOT
ATOM      1  C1  IDS C   1     134.026  46.063  49.2790  0.00  0.00     0.000 C
ATOM      2  C2  IDS C   1     133.024  46.043  48.1210  0.00  0.00     0.000 C
ATOM      3  C3  IDS C   1     131.649  46.495  48.5880  0.00  0.00     0.000 C
ATOM      4  C4  IDS C   1     131.140  45.599  49.7090  0.00  0.00     0.000 C
ATOM      5  C5  IDS C   1     132.286  45.234  50.6480  0.00  0.00     0.000 C
ATOM      6  O5  IDS C   1     133.345  46.182  50.5210  0.00  0.00     0.000 O
ATOM      7   O  IDS C   1     130.730  46.472  47.4870  0.00  0.00     0.000 O
ATOM      9  HD  IDS C   1     131.155  46.716  46.7730  0.00  0.00     0.000 HD
ENDROOT
BRANCH 2 9
ATOM      9   O  IDS C   1     133.451  46.957  47.0380  0.00  0.00     0.000 O
ATOM     10   S  IDS C   1     133.604  46.396  45.5530  0.00  0.00     0.000 S
ATOM     11   O  IDS C   1     134.014  47.523  44.7440  0.00  0.00     0.000 OA
ATOM     12   O  IDS C   1     134.614  45.360  45.6300  0.00  0.00     0.000 OA
ATOM     13   O  IDS C   1     132.301  45.888  45.1870  0.00  0.00     0.000 OA
ENDBRANCH 2 9
BRANCH 5 14
ATOM     14   C  IDS C   1     131.845  45.195  52.1010  0.00  0.00     0.000 C
ATOM     15   O  IDS C   1     132.565  44.687  52.9260  0.00  0.00     0.000 OA
ATOM     16   O  IDS C   1     130.770  45.673  52.4210  0.00  0.00     0.000 OA
ENDBRANCH 5 14
BRANCH 1 17
ATOM     17  O4  SGN C   2     135.273  46.528  49.1540  0.00  0.00     0.000 O
BRANCH 17 21
ATOM     18  C1  SGN C   2     138.292  49.378  49.6930  0.00  0.00     0.000 C
ATOM     19  C2  SGN C   2     136.980  49.615  50.4510  0.00  0.00     0.000 C
ATOM     20  C3  SGN C   2     136.164  48.317  50.4970  0.00  0.00     0.000 C
ATOM     21  C4  SGN C   2     135.975  47.766  49.0880  0.00  0.00     0.000 C
ATOM     22  C5  SGN C   2     137.343  47.570  48.4420  0.00  0.00     0.000 C
ATOM     23  O5  SGN C   2     138.056  48.828  48.4140  0.00  0.00     0.000 O
ATOM     24   O  SGN C   2     134.914  48.555  51.1210  0.00  0.00     0.000 O
ATOM     26  HD  SGN C   2     135.643  48.123  50.9450  0.00  0.00     0.000 HD
BRANCH 19 28
ATOM     26   N  SGN C   2     137.406  50.575  51.4790  0.00  0.00     0.000 N
ATOM     28  HD  SGN C   2     137.883  50.788  50.7880  0.00  0.00     0.000 HD
ATOM     28   O  SGN C   2     136.838  51.969  53.4680  0.00  0.00     0.000 OA
ATOM     29   S  SGN C   2     136.473  51.794  51.9550  0.00  0.00     0.000 S
ATOM     30   O  SGN C   2     136.888  52.948  51.2540  0.00  0.00     0.000 OA
ATOM     31   O  SGN C   2     135.120  51.364  51.8620  0.00  0.00     0.000 OA
ENDBRANCH 19 28
BRANCH 22 32
ATOM     32   C  SGN C   2     137.267  47.080  47.0170  0.00  0.00     0.000 C
ATOM     33   S  SGN C   2     138.526  45.464  45.4530  0.00  0.00     0.000 S
ATOM     34   O  SGN C   2     139.608  46.395  45.2490  0.00  0.00     0.000 OA
ATOM     35   O  SGN C   2     138.958  44.086  45.5620  0.00  0.00     0.000 OA
ATOM     36   O  SGN C   2     137.413  45.648  44.5510  0.00  0.00     0.000 OA
ATOM     37   O  SGN C   2     137.958  45.831  46.8990  0.00  0.00     0.000 O
ENDBRANCH 22 32
BRANCH 18 38
ATOM     38  O4  IDS C   3     139.425  48.796  50.0920  0.00  0.00     0.000 O
BRANCH 38 42
ATOM     39  C1  IDS C   3     141.967  47.388  52.0120  0.00  0.00     0.000 C
ATOM     40  C2  IDS C   3     141.288  48.700  52.4360  0.00  0.00     0.000 C
ATOM     41  C3  IDS C   3     141.297  49.721  51.2980  0.00  0.00     0.000 C
ATOM     42  C4  IDS C   3     140.821  49.096  49.9940  0.00  0.00     0.000 C
ATOM     43  C5  IDS C   3     141.614  47.813  49.7140  0.00  0.00     0.000 C
ATOM     44  O5  IDS C   3     141.425  46.902  50.7950  0.00  0.00     0.000 O
ATOM     45   O  IDS C   3     142.620  50.234  51.1330  0.00  0.00     0.000 O
ATOM     47  HD  IDS C   3     143.400  49.883  50.9950  0.00  0.00     0.000 HD
BRANCH 40 47
ATOM     47   O  IDS C   3     139.873  48.458  52.8050  0.00  0.00     0.000 O
ATOM     48   S  IDS C   3     139.298  49.041  54.1790  0.00  0.00     0.000 S
ATOM     49   O  IDS C   3     139.795  48.168  55.2200  0.00  0.00     0.000 OA
ATOM     50   O  IDS C   3     137.859  48.980  54.0460  0.00  0.00     0.000 OA
ATOM     51   O  IDS C   3     139.799  50.385  54.2920  0.00  0.00     0.000 OA
ENDBRANCH 40 47
BRANCH 43 52
ATOM     52   C  IDS C   3     141.214  47.149  48.4150  0.00  0.00     0.000 C
ATOM     53   O  IDS C   3     141.012  45.957  48.3840  0.00  0.00     0.000 OA
ATOM     54   O  IDS C   3     141.098  47.813  47.4160  0.00  0.00     0.000 OA
ENDBRANCH 43 52
BRANCH 39 55
ATOM     55  O4  SGN C   4     143.270  47.150  52.1580  0.00  0.00     0.000 O
BRANCH 55 59
ATOM     56  C1  SGN C   4     147.255  48.372  52.5290  0.00  0.00     0.000 C
ATOM     57  C2  SGN C   4     146.254  48.979  53.5270  0.00  0.00     0.000 C
ATOM     58  C3  SGN C   4     144.956  48.176  53.5480  0.00  0.00     0.000 C
ATOM     59  C4  SGN C   4     144.419  47.986  52.1340  0.00  0.00     0.000 C
ATOM     60  C5  SGN C   4     145.509  47.347  51.2770  0.00  0.00     0.000 C
ATOM     61  O5  SGN C   4     146.646  48.234  51.2560  0.00  0.00     0.000 O
ATOM     62   O  SGN C   4     143.999  48.840  54.3630  0.00  0.00     0.000 O
ATOM     64  HD  SGN C   4     144.764  49.073  54.6940  0.00  0.00     0.000 HD
BRANCH 57 66
ATOM     64   N  SGN C   4     147.362  49.133  54.4830  0.00  0.00     0.000 N
ATOM     66  HD  SGN C   4     147.989  49.713  54.6250  0.00  0.00     0.000 HD
ATOM     66   S  SGN C   4     147.514  50.470  55.3410  0.00  0.00     0.000 S
ATOM     67   O  SGN C   4     148.696  50.347  56.1140  0.00  0.00     0.000 OA
ATOM     68   O  SGN C   4     147.380  51.561  54.4380  0.00  0.00     0.000 OA
ATOM     69   O  SGN C   4     146.271  50.448  56.2860  0.00  0.00     0.000 OA
ENDBRANCH 57 66
BRANCH 60 70
ATOM     70   C  SGN C   4     145.092  47.097  49.8440  0.00  0.00     0.000 C
ATOM     71   O  SGN C   4     145.030  49.598  47.0430  0.00  0.00     0.000 OA
ATOM     72   O  SGN C   4     146.699  47.900  47.4660  0.00  0.00     0.000 OA
ATOM     73   O  SGN C   4     145.003  48.339  49.1200  0.00  0.00     0.000 O
ATOM     74   S  SGN C   4     145.305  48.274  47.5510  0.00  0.00     0.000 S
ATOM     75   O  SGN C   4     144.404  47.261  47.0410  0.00  0.00     0.000 OA
ENDBRANCH 60 70
BRANCH 56 76
ATOM     76  O4  IDS C   5     148.261  47.481  52.5980  0.00  0.00     0.000 O
BRANCH 76 80
ATOM     77  C1  IDS C   5     150.810  44.344  52.0280  0.00  0.00     0.000 C
ATOM     78  C2  IDS C   5     149.329  43.990  51.8980  0.00  0.00     0.000 C
ATOM     79  C3  IDS C   5     148.515  45.252  51.6860  0.00  0.00     0.000 C
ATOM     80  C4  IDS C   5     148.595  46.126  52.9340  0.00  0.00     0.000 C
ATOM     81  C5  IDS C   5     150.014  46.052  53.5170  0.00  0.00     0.000 C
ATOM     82  O5  IDS C   5     150.954  45.682  52.5040  0.00  0.00     0.000 O
BRANCH 78 83
ATOM     83   O  IDS C   5     149.105  43.090  50.7420  0.00  0.00     0.000 O
ATOM     84   S  IDS C   5     148.254  41.754  50.9310  0.00  0.00     0.000 S
ATOM     85   O  IDS C   5     148.789  41.105  52.0970  0.00  0.00     0.000 OA
ATOM     86   O  IDS C   5     146.890  42.196  51.1030  0.00  0.00     0.000 OA
ATOM     87   O  IDS C   5     148.443  40.995  49.7190  0.00  0.00     0.000 OA
ENDBRANCH 78 83
BRANCH 81 88
ATOM     88   C  IDS C   5     150.494  47.352  54.1350  0.00  0.00     0.000 C
ATOM     89   O  IDS C   5     150.082  47.692  55.2110  0.00  0.00     0.000 OA
ATOM     90   O  IDS C   5     151.291  48.040  53.5380  0.00  0.00     0.000 OA
ENDBRANCH 81 88
ENDBRANCH 76 80
ENDBRANCH 56 76
ENDBRANCH 55 59
ENDBRANCH 39 55
ENDBRANCH 38 42
ENDBRANCH 18 38
ENDBRANCH 17 21
ENDBRANCH 1 17
TORSDOF 18
ENDMDL
MODEL 37
REMARK VINA RESULT:      -6.8     42.853     48.750
ROOT
ATOM      1  C1  IDS C   1     135.089  43.923  65.0170  0.00  0.00     0.000 C
ATOM      2  C2  IDS C   1     136.194  44.898  65.4340  0.00  0.00     0.000 C
ATOM      3  C3  IDS C   1     137.513  44.538  64.7660  0.00  0.00     0.000 C
ATOM      4  C4  IDS C   1     137.930  43.120  65.1320  0.00  0.00     0.000 C
ATOM      5  C5  IDS C   1     136.709  42.207  65.1620  0.00  0.00     0.000 C
ATOM      6  O5  IDS C   1     135.650  42.776  64.3920  0.00  0.00     0.000 O
ATOM      7   O  IDS C   1     138.530  45.467  65.1680  0.00  0.00     0.000 O
ATOM      9  HD  IDS C   1     138.169  46.250  65.2410  0.00  0.00     0.000 HD
ENDROOT
BRANCH 2 9
ATOM      9   O  IDS C   1     135.854  46.282  65.0330  0.00  0.00     0.000 O
ATOM     10   S  IDS C   1     135.611  47.387  66.1570  0.00  0.00     0.000 S
ATOM     11   O  IDS C   1     135.318  48.614  65.4510  0.00  0.00     0.000 OA
ATOM     12   O  IDS C   1     134.492  46.905  66.9400  0.00  0.00     0.000 OA
ATOM     13   O  IDS C   1     136.841  47.456  66.9150  0.00  0.00     0.000 OA
ENDBRANCH 2 9
BRANCH 5 14
ATOM     14   C  IDS C   1     137.014  40.823  64.6130  0.00  0.00     0.000 C
ATOM     15   O  IDS C   1     137.873  40.154  65.1320  0.00  0.00     0.000 OA
ATOM     16   O  IDS C   1     136.391  40.403  63.6520  0.00  0.00     0.000 OA
ENDBRANCH 5 14
BRANCH 1 17
ATOM     17  O4  SGN C   2     133.852  44.317  64.7000  0.00  0.00     0.000 O
BRANCH 17 21
ATOM     18  C1  SGN C   2     131.166  45.683  61.7950  0.00  0.00     0.000 C
ATOM     19  C2  SGN C   2     132.643  45.622  61.3890  0.00  0.00     0.000 C
ATOM     20  C3  SGN C   2     133.415  44.729  62.3680  0.00  0.00     0.000 C
ATOM     21  C4  SGN C   2     133.183  45.197  63.8000  0.00  0.00     0.000 C
ATOM     22  C5  SGN C   2     131.684  45.210  64.0840  0.00  0.00     0.000 C
ATOM     23  O5  SGN C   2     131.016  46.080  63.1420  0.00  0.00     0.000 O
ATOM     24   O  SGN C   2     134.795  44.741  62.0470  0.00  0.00     0.000 O
ATOM     26  HD  SGN C   2     134.038  44.392  62.2820  0.00  0.00     0.000 HD
BRANCH 19 28
ATOM     26   N  SGN C   2     132.781  45.194  59.9900  0.00  0.00     0.000 N
ATOM     28  HD  SGN C   2     131.996  44.908  60.2170  0.00  0.00     0.000 HD
ATOM     28   O  SGN C   2     133.685  45.620  57.7040  0.00  0.00     0.000 OA
ATOM     29   S  SGN C   2     132.706  46.231  58.7630  0.00  0.00     0.000 S
ATOM     30   O  SGN C   2     131.393  46.183  58.2460  0.00  0.00     0.000 OA
ATOM     31   O  SGN C   2     133.239  47.470  59.2120  0.00  0.00     0.000 OA
ENDBRANCH 19 28
BRANCH 22 32
ATOM     32   C  SGN C   2     131.341  45.716  65.4640  0.00  0.00     0.000 C
ATOM     33   S  SGN C   2     130.481  44.790  67.7100  0.00  0.00     0.000 S
ATOM     34   O  SGN C   2     129.126  44.691  67.2290  0.00  0.00     0.000 OA
ATOM     35   O  SGN C   2     130.876  43.690  68.5650  0.00  0.00     0.000 OA
ATOM     36   O  SGN C   2     130.822  46.087  68.2470  0.00  0.00     0.000 OA
ATOM     37   O  SGN C   2     131.377  44.631  66.3980  0.00  0.00     0.000 O
ENDBRANCH 22 32
BRANCH 18 38
ATOM     38  O4  IDS C   3     130.183  44.799  61.6070  0.00  0.00     0.000 O
BRANCH 38 42
ATOM     39  C1  IDS C   3     127.174  43.077  61.2790  0.00  0.00     0.000 C
ATOM     40  C2  IDS C   3     127.532  43.805  62.5850  0.00  0.00     0.000 C
ATOM     41  C3  IDS C   3     128.912  43.386  63.0910  0.00  0.00     0.000 C
ATOM     42  C4  IDS C   3     129.946  43.436  61.9750  0.00  0.00     0.000 C
ATOM     43  C5  IDS C   3     129.439  42.647  60.7620  0.00  0.00     0.000 C
ATOM     44  O5  IDS C   3     128.207  43.213  60.3180  0.00  0.00     0.000 O
ATOM     45   O  IDS C   3     128.839  42.062  63.6230  0.00  0.00     0.000 O
ATOM     47  HD  IDS C   3     128.576  41.294  63.3200  0.00  0.00     0.000 HD
BRANCH 40 47
ATOM     47   O  IDS C   3     127.563  45.272  62.3710  0.00  0.00     0.000 O
ATOM     48   S  IDS C   3     126.334  46.173  62.8580  0.00  0.00     0.000 S
ATOM     49   O  IDS C   3     125.287  45.978  61.8780  0.00  0.00     0.000 OA
ATOM     50   O  IDS C   3     126.837  47.529  62.8680  0.00  0.00     0.000 OA
ATOM     51   O  IDS C   3     125.971  45.693  64.1640  0.00  0.00     0.000 OA
ENDBRANCH 40 47
BRANCH 43 52
ATOM     52   C  IDS C   3     130.430  42.628  59.6190  0.00  0.00     0.000 C
ATOM     53   O  IDS C   3     131.611  42.498  59.8470  0.00  0.00     0.000 OA
ATOM     54   O  IDS C   3     130.037  42.743  58.4860  0.00  0.00     0.000 OA
ENDBRANCH 43 52
BRANCH 39 55
ATOM     55  O4  SGN C   4     126.544  41.903  61.2370  0.00  0.00     0.000 O
BRANCH 55 59
ATOM     56  C1  SGN C   4     123.232  39.483  62.0580  0.00  0.00     0.000 C
ATOM     57  C2  SGN C   4     123.325  40.062  60.6360  0.00  0.00     0.000 C
ATOM     58  C3  SGN C   4     124.733  40.576  60.3520  0.00  0.00     0.000 C
ATOM     59  C4  SGN C   4     125.196  41.515  61.4600  0.00  0.00     0.000 C
ATOM     60  C5  SGN C   4     125.077  40.790  62.7990  0.00  0.00     0.000 C
ATOM     61  O5  SGN C   4     123.695  40.436  63.0010  0.00  0.00     0.000 O
ATOM     62   O  SGN C   4     124.754  41.237  59.0940  0.00  0.00     0.000 O
ATOM     64  HD  SGN C   4     124.120  40.652  59.0210  0.00  0.00     0.000 HD
BRANCH 57 66
ATOM     64   N  SGN C   4     122.190  40.308  59.7320  0.00  0.00     0.000 N
ATOM     66  HD  SGN C   4     121.963  40.064  58.9330  0.00  0.00     0.000 HD
ATOM     66   S  SGN C   4     121.384  39.089  59.0910  0.00  0.00     0.000 S
ATOM     67   O  SGN C   4     120.401  39.636  58.2280  0.00  0.00     0.000 OA
ATOM     68   O  SGN C   4     122.347  38.182  58.5680  0.00  0.00     0.000 OA
ATOM     69   O  SGN C   4     120.683  38.421  60.3180  0.00  0.00     0.000 OA
ENDBRANCH 57 66
BRANCH 60 70
ATOM     70   C  SGN C   4     125.520  41.620  63.9850  0.00  0.00     0.000 C
ATOM     71   O  SGN C   4     125.688  40.520  67.5720  0.00  0.00     0.000 OA
ATOM     72   O  SGN C   4     127.519  40.724  66.0050  0.00  0.00     0.000 OA
ATOM     73   O  SGN C   4     125.251  40.924  65.2170  0.00  0.00     0.000 O
ATOM     74   S  SGN C   4     126.236  41.230  66.4390  0.00  0.00     0.000 S
ATOM     75   O  SGN C   4     126.204  42.671  66.5890  0.00  0.00     0.000 OA
ENDBRANCH 60 70
BRANCH 56 76
ATOM     76  O4  IDS C   5     123.370  38.263  62.6110  0.00  0.00     0.000 O
BRANCH 76 80
ATOM     77  C1  IDS C   5     123.889  34.842  64.7760  0.00  0.00     0.000 C
ATOM     78  C2  IDS C   5     124.608  36.067  65.3420  0.00  0.00     0.000 C
ATOM     79  C3  IDS C   5     124.015  37.330  64.7510  0.00  0.00     0.000 C
ATOM     80  C4  IDS C   5     124.297  37.375  63.2520  0.00  0.00     0.000 C
ATOM     81  C5  IDS C   5     124.173  35.959  62.6700  0.00  0.00     0.000 C
ATOM     82  O5  IDS C   5     123.335  35.147  63.4960  0.00  0.00     0.000 O
BRANCH 78 83
ATOM     83   O  IDS C   5     124.462  36.125  66.8150  0.00  0.00     0.000 O
ATOM     84   S  IDS C   5     125.761  36.175  67.7400  0.00  0.00     0.000 S
ATOM     85   O  IDS C   5     126.623  35.124  67.2680  0.00  0.00     0.000 OA
ATOM     86   O  IDS C   5     126.315  37.494  67.5440  0.00  0.00     0.000 OA
ATOM     87   O  IDS C   5     125.291  35.964  69.0870  0.00  0.00     0.000 OA
ENDBRANCH 78 83
BRANCH 81 88
ATOM     88   C  IDS C   5     123.605  35.920  61.2630  0.00  0.00     0.000 C
ATOM     89   O  IDS C   5     124.309  36.183  60.3250  0.00  0.00     0.000 OA
ATOM     90   O  IDS C   5     122.445  35.623  61.0940  0.00  0.00     0.000 OA
ENDBRANCH 81 88
ENDBRANCH 76 80
ENDBRANCH 56 76
ENDBRANCH 55 59
ENDBRANCH 39 55
ENDBRANCH 38 42
ENDBRANCH 18 38
ENDBRANCH 17 21
ENDBRANCH 1 17
TORSDOF 18
ENDMDL
MODEL 38
REMARK VINA RESULT:      -6.7     42.322     46.919
ROOT
ATOM      1  C1  IDS C   1     140.296  48.940  55.3210  0.00  0.00     0.000 C
ATOM      2  C2  IDS C   1     141.623  49.075  54.5710  0.00  0.00     0.000 C
ATOM      3  C3  IDS C   1     141.388  49.505  53.1300  0.00  0.00     0.000 C
ATOM      4  C4  IDS C   1     140.503  48.499  52.4070  0.00  0.00     0.000 C
ATOM      5  C5  IDS C   1     139.405  48.002  53.3420  0.00  0.00     0.000 C
ATOM      6  O5  IDS C   1     139.208  48.933  54.4060  0.00  0.00     0.000 O
ATOM      7   O  IDS C   1     142.645  49.630  52.4500  0.00  0.00     0.000 O
ATOM      9  HD  IDS C   1     143.228  49.943  53.0090  0.00  0.00     0.000 HD
ENDROOT
BRANCH 2 9
ATOM      9   O  IDS C   1     142.486  50.097  55.2060  0.00  0.00     0.000 O
ATOM     10   S  IDS C   1     143.999  49.736  55.5590  0.00  0.00     0.000 S
ATOM     11   O  IDS C   1     144.565  50.930  56.1450  0.00  0.00     0.000 OA
ATOM     12   O  IDS C   1     143.928  48.629  56.4910  0.00  0.00     0.000 OA
ATOM     13   O  IDS C   1     144.622  49.377  54.3040  0.00  0.00     0.000 OA
ENDBRANCH 2 9
BRANCH 5 14
ATOM     14   C  IDS C   1     138.082  47.808  52.6200  0.00  0.00     0.000 C
ATOM     15   O  IDS C   1     137.051  48.065  53.1920  0.00  0.00     0.000 OA
ATOM     16   O  IDS C   1     138.074  47.394  51.4730  0.00  0.00     0.000 OA
ENDBRANCH 5 14
BRANCH 1 17
ATOM     17  O4  SGN C   2     140.116  49.385  56.5680  0.00  0.00     0.000 O
BRANCH 17 21
ATOM     18  C1  SGN C   2     138.803  52.060  59.5090  0.00  0.00     0.000 C
ATOM     19  C2  SGN C   2     138.155  52.188  58.1250  0.00  0.00     0.000 C
ATOM     20  C3  SGN C   2     138.410  50.914  57.3120  0.00  0.00     0.000 C
ATOM     21  C4  SGN C   2     139.902  50.607  57.2710  0.00  0.00     0.000 C
ATOM     22  C5  SGN C   2     140.428  50.498  58.6990  0.00  0.00     0.000 C
ATOM     23  O5  SGN C   2     140.173  51.733  59.4090  0.00  0.00     0.000 O
ATOM     24   O  SGN C   2     137.887  51.064  56.0030  0.00  0.00     0.000 O
ATOM     26  HD  SGN C   2     138.056  50.656  56.7470  0.00  0.00     0.000 HD
BRANCH 19 28
ATOM     26   N  SGN C   2     136.924  52.924  58.4470  0.00  0.00     0.000 N
ATOM     28  HD  SGN C   2     137.493  53.207  59.0360  0.00  0.00     0.000 HD
ATOM     28   O  SGN C   2     134.820  54.013  57.6660  0.00  0.00     0.000 OA
ATOM     29   S  SGN C   2     136.375  54.123  57.5260  0.00  0.00     0.000 S
ATOM     30   O  SGN C   2     136.796  55.337  58.1140  0.00  0.00     0.000 OA
ATOM     31   O  SGN C   2     136.732  53.833  56.1810  0.00  0.00     0.000 OA
ENDBRANCH 19 28
BRANCH 22 32
ATOM     32   C  SGN C   2     141.915  50.252  58.7730  0.00  0.00     0.000 C
ATOM     33   S  SGN C   2     143.981  51.213  59.9760  0.00  0.00     0.000 S
ATOM     34   O  SGN C   2     144.047  52.355  59.0980  0.00  0.00     0.000 OA
ATOM     35   O  SGN C   2     144.292  51.523  61.3560  0.00  0.00     0.000 OA
ATOM     36   O  SGN C   2     144.674  50.048  59.4790  0.00  0.00     0.000 OA
ATOM     37   O  SGN C   2     142.437  50.811  59.9840  0.00  0.00     0.000 O
ENDBRANCH 22 32
BRANCH 18 38
ATOM     38  O4  IDS C   3     138.392  51.402  60.5960  0.00  0.00     0.000 O
BRANCH 38 42
ATOM     39  C1  IDS C   3     136.509  49.676  62.9630  0.00  0.00     0.000 C
ATOM     40  C2  IDS C   3     135.962  50.943  62.2870  0.00  0.00     0.000 C
ATOM     41  C3  IDS C   3     136.953  52.102  62.4000  0.00  0.00     0.000 C
ATOM     42  C4  IDS C   3     138.357  51.667  62.0030  0.00  0.00     0.000 C
ATOM     43  C5  IDS C   3     138.750  50.406  62.7820  0.00  0.00     0.000 C
ATOM     44  O5  IDS C   3     137.812  49.369  62.4960  0.00  0.00     0.000 O
ATOM     45   O  IDS C   3     136.960  52.589  63.7430  0.00  0.00     0.000 O
ATOM     47  HD  IDS C   3     137.091  52.233  64.5220  0.00  0.00     0.000 HD
BRANCH 40 47
ATOM     47   O  IDS C   3     135.723  50.701  60.8440  0.00  0.00     0.000 O
ATOM     48   S  IDS C   3     134.271  50.956  60.2250  0.00  0.00     0.000 S
ATOM     49   O  IDS C   3     133.464  49.823  60.6230  0.00  0.00     0.000 OA
ATOM     50   O  IDS C   3     134.473  51.016  58.7930  0.00  0.00     0.000 OA
ATOM     51   O  IDS C   3     133.803  52.197  60.7820  0.00  0.00     0.000 OA
ENDBRANCH 40 47
BRANCH 43 52
ATOM     52   C  IDS C   3     140.148  49.930  62.4590  0.00  0.00     0.000 C
ATOM     53   O  IDS C   3     141.105  50.524  62.9000  0.00  0.00     0.000 OA
ATOM     54   O  IDS C   3     140.303  48.959  61.7630  0.00  0.00     0.000 OA
ENDBRANCH 43 52
BRANCH 39 55
ATOM     55  O4  SGN C   4     136.309  49.379  64.2470  0.00  0.00     0.000 O
BRANCH 55 59
ATOM     56  C1  SGN C   4     134.017  45.990  65.1200  0.00  0.00     0.000 C
ATOM     57  C2  SGN C   4     133.246  47.247  64.6810  0.00  0.00     0.000 C
ATOM     58  C3  SGN C   4     134.184  48.256  64.0260  0.00  0.00     0.000 C
ATOM     59  C4  SGN C   4     135.395  48.521  64.9140  0.00  0.00     0.000 C
ATOM     60  C5  SGN C   4     136.069  47.188  65.2340  0.00  0.00     0.000 C
ATOM     61  O5  SGN C   4     135.121  46.357  65.9310  0.00  0.00     0.000 O
ATOM     62   O  SGN C   4     133.479  49.463  63.7660  0.00  0.00     0.000 O
ATOM     64  HD  SGN C   4     132.872  48.846  63.7370  0.00  0.00     0.000 HD
BRANCH 57 66
ATOM     64   N  SGN C   4     131.847  47.674  64.8480  0.00  0.00     0.000 N
ATOM     66  HD  SGN C   4     131.150  47.743  64.3400  0.00  0.00     0.000 HD
ATOM     66   S  SGN C   4     130.648  46.716  64.4100  0.00  0.00     0.000 S
ATOM     67   O  SGN C   4     129.439  47.421  64.6330  0.00  0.00     0.000 OA
ATOM     68   O  SGN C   4     130.951  46.241  63.1040  0.00  0.00     0.000 OA
ATOM     69   O  SGN C   4     130.744  45.521  65.4120  0.00  0.00     0.000 OA
ENDBRANCH 57 66
BRANCH 60 70
ATOM     70   C  SGN C   4     137.298  47.321  66.1080  0.00  0.00     0.000 C
ATOM     71   O  SGN C   4     140.820  47.955  64.9680  0.00  0.00     0.000 OA
ATOM     72   O  SGN C   4     139.264  49.551  65.9070  0.00  0.00     0.000 OA
ATOM     73   O  SGN C   4     138.491  47.351  65.3010  0.00  0.00     0.000 O
ATOM     74   S  SGN C   4     139.726  48.181  65.8850  0.00  0.00     0.000 S
ATOM     75   O  SGN C   4     139.955  47.627  67.2040  0.00  0.00     0.000 OA
ENDBRANCH 60 70
BRANCH 56 76
ATOM     76  O4  IDS C   5     134.294  44.792  64.5730  0.00  0.00     0.000 O
BRANCH 76 80
ATOM     77  C1  IDS C   5     134.489  41.382  62.3390  0.00  0.00     0.000 C
ATOM     78  C2  IDS C   5     133.077  41.938  62.5250  0.00  0.00     0.000 C
ATOM     79  C3  IDS C   5     133.150  43.387  62.9660  0.00  0.00     0.000 C
ATOM     80  C4  IDS C   5     133.784  43.468  64.3510  0.00  0.00     0.000 C
ATOM     81  C5  IDS C   5     134.914  42.434  64.4550  0.00  0.00     0.000 C
ATOM     82  O5  IDS C   5     135.412  42.102  63.1550  0.00  0.00     0.000 O
BRANCH 78 83
ATOM     83   O  IDS C   5     132.316  41.872  61.2560  0.00  0.00     0.000 O
ATOM     84   S  IDS C   5     130.783  41.431  61.2720  0.00  0.00     0.000 S
ATOM     85   O  IDS C   5     130.725  40.232  62.0650  0.00  0.00     0.000 OA
ATOM     86   O  IDS C   5     130.077  42.540  61.8690  0.00  0.00     0.000 OA
ATOM     87   O  IDS C   5     130.423  41.220  59.8920  0.00  0.00     0.000 OA
ENDBRANCH 78 83
BRANCH 81 88
ATOM     88   C  IDS C   5     136.094  42.892  65.2930  0.00  0.00     0.000 C
ATOM     89   O  IDS C   5     136.014  42.886  66.4920  0.00  0.00     0.000 OA
ATOM     90   O  IDS C   5     137.109  43.261  64.7470  0.00  0.00     0.000 OA
ENDBRANCH 81 88
ENDBRANCH 76 80
ENDBRANCH 56 76
ENDBRANCH 55 59
ENDBRANCH 39 55
ENDBRANCH 38 42
ENDBRANCH 18 38
ENDBRANCH 17 21
ENDBRANCH 1 17
TORSDOF 18
ENDMDL
MODEL 39
REMARK VINA RESULT:      -6.7     21.727     26.878
ROOT
ATOM      1  C1  IDS C   1     181.494  30.102  60.0990  0.00  0.00     0.000 C
ATOM      2  C2  IDS C   1     180.967  31.204  59.1750  0.00  0.00     0.000 C
ATOM      3  C3  IDS C   1     182.006  32.300  58.9940  0.00  0.00     0.000 C
ATOM      4  C4  IDS C   1     182.384  32.909  60.3380  0.00  0.00     0.000 C
ATOM      5  C5  IDS C   1     182.467  31.819  61.4010  0.00  0.00     0.000 C
ATOM      6  O5  IDS C   1     182.658  30.545  60.7850  0.00  0.00     0.000 O
ATOM      7   O  IDS C   1     181.491  33.318  58.1240  0.00  0.00     0.000 O
ATOM      9  HD  IDS C   1     181.011  32.935  57.5120  0.00  0.00     0.000 HD
ENDROOT
BRANCH 2 9
ATOM      9   O  IDS C   1     180.652  30.662  57.8340  0.00  0.00     0.000 O
ATOM     10   S  IDS C   1     179.146  30.696  57.3090  0.00  0.00     0.000 S
ATOM     11   O  IDS C   1     179.175  30.116  55.9850  0.00  0.00     0.000 OA
ATOM     12   O  IDS C   1     178.386  29.905  58.2550  0.00  0.00     0.000 OA
ATOM     13   O  IDS C   1     178.762  32.090  57.3030  0.00  0.00     0.000 OA
ENDBRANCH 2 9
BRANCH 5 14
ATOM     14   C  IDS C   1     183.606  32.056  62.3780  0.00  0.00     0.000 C
ATOM     15   O  IDS C   1     184.176  31.111  62.8670  0.00  0.00     0.000 OA
ATOM     16   O  IDS C   1     183.933  33.196  62.6610  0.00  0.00     0.000 OA
ENDBRANCH 5 14
BRANCH 1 17
ATOM     17  O4  SGN C   2     181.321  28.800  59.8510  0.00  0.00     0.000 O
BRANCH 17 21
ATOM     18  C1  SGN C   2     182.406  25.192  58.0260  0.00  0.00     0.000 C
ATOM     19  C2  SGN C   2     183.349  26.382  57.8100  0.00  0.00     0.000 C
ATOM     20  C3  SGN C   2     183.062  27.469  58.8530  0.00  0.00     0.000 C
ATOM     21  C4  SGN C   2     181.583  27.839  58.8320  0.00  0.00     0.000 C
ATOM     22  C5  SGN C   2     180.752  26.580  59.0610  0.00  0.00     0.000 C
ATOM     23  O5  SGN C   2     181.054  25.602  58.0400  0.00  0.00     0.000 O
ATOM     24   O  SGN C   2     183.873  28.604  58.6020  0.00  0.00     0.000 O
ATOM     26  HD  SGN C   2     183.480  28.000  59.0830  0.00  0.00     0.000 HD
BRANCH 19 28
ATOM     26   N  SGN C   2     184.580  25.704  57.3800  0.00  0.00     0.000 N
ATOM     28  HD  SGN C   2     183.948  25.211  57.0520  0.00  0.00     0.000 HD
ATOM     28   O  SGN C   2     186.966  25.855  56.6690  0.00  0.00     0.000 OA
ATOM     29   S  SGN C   2     185.531  26.299  56.2280  0.00  0.00     0.000 S
ATOM     30   O  SGN C   2     185.204  25.637  55.0230  0.00  0.00     0.000 OA
ATOM     31   O  SGN C   2     185.453  27.717  56.2940  0.00  0.00     0.000 OA
ENDBRANCH 19 28
BRANCH 22 32
ATOM     32   C  SGN C   2     179.264  26.826  59.0020  0.00  0.00     0.000 C
ATOM     33   S  SGN C   2     177.264  26.254  57.4810  0.00  0.00     0.000 S
ATOM     34   O  SGN C   2     177.635  27.246  56.5040  0.00  0.00     0.000 OA
ATOM     35   O  SGN C   2     176.757  25.028  56.9000  0.00  0.00     0.000 OA
ATOM     36   O  SGN C   2     176.445  26.762  58.5550  0.00  0.00     0.000 OA
ATOM     37   O  SGN C   2     178.646  25.841  58.1660  0.00  0.00     0.000 O
ENDBRANCH 22 32
BRANCH 18 38
ATOM     38  O4  IDS C   3     182.455  24.205  58.9230  0.00  0.00     0.000 O
BRANCH 38 42
ATOM     39  C1  IDS C   3     183.772  22.179  61.4310  0.00  0.00     0.000 C
ATOM     40  C2  IDS C   3     184.662  22.720  60.3000  0.00  0.00     0.000 C
ATOM     41  C3  IDS C   3     184.064  22.409  58.9290  0.00  0.00     0.000 C
ATOM     42  C4  IDS C   3     182.588  22.780  58.8750  0.00  0.00     0.000 C
ATOM     43  C5  IDS C   3     181.849  22.145  60.0580  0.00  0.00     0.000 C
ATOM     44  O5  IDS C   3     182.430  22.609  61.2750  0.00  0.00     0.000 O
ATOM     45   O  IDS C   3     184.221  21.017  58.6480  0.00  0.00     0.000 O
ATOM     47  HD  IDS C   3     184.002  20.283  59.0520  0.00  0.00     0.000 HD
BRANCH 40 47
ATOM     47   O  IDS C   3     184.797  24.192  60.4030  0.00  0.00     0.000 O
ATOM     48   S  IDS C   3     186.249  24.862  60.3840  0.00  0.00     0.000 S
ATOM     49   O  IDS C   3     186.804  24.646  61.7040  0.00  0.00     0.000 OA
ATOM     50   O  IDS C   3     186.019  26.262  60.1040  0.00  0.00     0.000 OA
ATOM     51   O  IDS C   3     186.993  24.192  59.3510  0.00  0.00     0.000 OA
ENDBRANCH 40 47
BRANCH 43 52
ATOM     52   C  IDS C   3     180.367  22.448  60.0550  0.00  0.00     0.000 C
ATOM     53   O  IDS C   3     179.675  22.066  59.1390  0.00  0.00     0.000 OA
ATOM     54   O  IDS C   3     179.883  23.070  60.9660  0.00  0.00     0.000 OA
ENDBRANCH 43 52
BRANCH 39 55
ATOM     55  O4  SGN C   4     183.894  20.955  61.9450  0.00  0.00     0.000 O
BRANCH 55 59
ATOM     56  C1  SGN C   4     185.574  18.224  64.6320  0.00  0.00     0.000 C
ATOM     57  C2  SGN C   4     185.136  19.579  65.2130  0.00  0.00     0.000 C
ATOM     58  C3  SGN C   4     184.203  20.305  64.2490  0.00  0.00     0.000 C
ATOM     59  C4  SGN C   4     184.816  20.371  62.8550  0.00  0.00     0.000 C
ATOM     60  C5  SGN C   4     185.165  18.954  62.4050  0.00  0.00     0.000 C
ATOM     61  O5  SGN C   4     186.119  18.406  63.3350  0.00  0.00     0.000 O
ATOM     62   O  SGN C   4     183.933  21.611  64.7400  0.00  0.00     0.000 O
ATOM     64  HD  SGN C   4     184.091  21.141  65.4500  0.00  0.00     0.000 HD
BRANCH 57 66
ATOM     64   N  SGN C   4     185.966  19.306  66.3980  0.00  0.00     0.000 N
ATOM     66  HD  SGN C   4     186.239  19.754  67.0870  0.00  0.00     0.000 HD
ATOM     66   S  SGN C   4     185.412  19.604  67.8640  0.00  0.00     0.000 S
ATOM     67   O  SGN C   4     186.450  19.302  68.7810  0.00  0.00     0.000 OA
ATOM     68   O  SGN C   4     184.859  20.915  67.8410  0.00  0.00     0.000 OA
ATOM     69   O  SGN C   4     184.250  18.574  68.0370  0.00  0.00     0.000 OA
ENDBRANCH 57 66
BRANCH 60 70
ATOM     70   C  SGN C   4     185.777  18.886  61.0220  0.00  0.00     0.000 C
ATOM     71   O  SGN C   4     186.904  15.799  59.2040  0.00  0.00     0.000 OA
ATOM     72   O  SGN C   4     184.855  17.039  58.8720  0.00  0.00     0.000 OA
ATOM     73   O  SGN C   4     186.269  17.559  60.7530  0.00  0.00     0.000 O
ATOM     74   S  SGN C   4     186.256  17.090  59.2240  0.00  0.00     0.000 S
ATOM     75   O  SGN C   4     186.993  18.117  58.5150  0.00  0.00     0.000 OA
ENDBRANCH 60 70
BRANCH 56 76
ATOM     76  O4  IDS C   5     185.135  16.955  64.7140  0.00  0.00     0.000 O
BRANCH 76 80
ATOM     77  C1  IDS C   5     184.045  13.137  65.6600  0.00  0.00     0.000 C
ATOM     78  C2  IDS C   5     185.298  13.635  66.3800  0.00  0.00     0.000 C
ATOM     79  C3  IDS C   5     185.362  15.149  66.3120  0.00  0.00     0.000 C
ATOM     80  C4  IDS C   5     185.547  15.588  64.8620  0.00  0.00     0.000 C
ATOM     81  C5  IDS C   5     184.720  14.675  63.9450  0.00  0.00     0.000 C
ATOM     82  O5  IDS C   5     183.639  14.081  64.6700  0.00  0.00     0.000 O
BRANCH 78 83
ATOM     83   O  IDS C   5     185.280  13.231  67.8050  0.00  0.00     0.000 O
ATOM     84   S  IDS C   5     186.405  12.247  68.3640  0.00  0.00     0.000 S
ATOM     85   O  IDS C   5     186.470  11.151  67.4340  0.00  0.00     0.000 OA
ATOM     86   O  IDS C   5     187.614  13.035  68.3980  0.00  0.00     0.000 OA
ATOM     87   O  IDS C   5     185.961  11.853  69.6790  0.00  0.00     0.000 OA
ENDBRANCH 78 83
BRANCH 81 88
ATOM     88   C  IDS C   5     184.128  15.386  62.7420  0.00  0.00     0.000 C
ATOM     89   O  IDS C   5     183.209  16.147  62.8880  0.00  0.00     0.000 OA
ATOM     90   O  IDS C   5     184.586  15.182  61.6410  0.00  0.00     0.000 OA
ENDBRANCH 81 88
ENDBRANCH 76 80
ENDBRANCH 56 76
ENDBRANCH 55 59
ENDBRANCH 39 55
ENDBRANCH 38 42
ENDBRANCH 18 38
ENDBRANCH 17 21
ENDBRANCH 1 17
TORSDOF 18
ENDMDL
MODEL 40
REMARK VINA RESULT:      -6.7     29.706     32.935
ROOT
ATOM      1  C1  IDS C   1     159.584  34.502  51.8290  0.00  0.00     0.000 C
ATOM      2  C2  IDS C   1     158.810  33.314  51.2510  0.00  0.00     0.000 C
ATOM      3  C3  IDS C   1     157.325  33.632  51.1540  0.00  0.00     0.000 C
ATOM      4  C4  IDS C   1     156.760  33.982  52.5230  0.00  0.00     0.000 C
ATOM      5  C5  IDS C   1     157.765  34.821  53.3060  0.00  0.00     0.000 C
ATOM      6  O5  IDS C   1     158.690  35.441  52.4110  0.00  0.00     0.000 O
ATOM      7   O  IDS C   1     156.623  32.508  50.6060  0.00  0.00     0.000 O
ATOM      9  HD  IDS C   1     157.126  32.137  50.0070  0.00  0.00     0.000 HD
ENDROOT
BRANCH 2 9
ATOM      9   O  IDS C   1     159.287  32.986  49.8880  0.00  0.00     0.000 O
ATOM     10   S  IDS C   1     159.752  31.497  49.5580  0.00  0.00     0.000 S
ATOM     11   O  IDS C   1     160.140  31.504  48.1650  0.00  0.00     0.000 OA
ATOM     12   O  IDS C   1     160.861  31.228  50.4500  0.00  0.00     0.000 OA
ATOM     13   O  IDS C   1     158.603  30.658  49.8170  0.00  0.00     0.000 OA
ENDBRANCH 2 9
BRANCH 5 14
ATOM     14   C  IDS C   1     157.090  35.905  54.1280  0.00  0.00     0.000 C
ATOM     15   O  IDS C   1     155.891  35.889  54.2620  0.00  0.00     0.000 OA
ATOM     16   O  IDS C   1     157.764  36.782  54.6430  0.00  0.00     0.000 OA
ENDBRANCH 5 14
BRANCH 1 17
ATOM     17  O4  SGN C   2     160.757  34.913  51.3390  0.00  0.00     0.000 O
BRANCH 17 21
ATOM     18  C1  SGN C   2     163.312  37.613  49.4120  0.00  0.00     0.000 C
ATOM     19  C2  SGN C   2     161.948  38.156  49.8570  0.00  0.00     0.000 C
ATOM     20  C3  SGN C   2     161.325  37.210  50.8920  0.00  0.00     0.000 C
ATOM     21  C4  SGN C   2     161.277  35.789  50.3420  0.00  0.00     0.000 C
ATOM     22  C5  SGN C   2     162.686  35.363  49.9410  0.00  0.00     0.000 C
ATOM     23  O5  SGN C   2     163.212  36.280  48.9540  0.00  0.00     0.000 O
ATOM     24   O  SGN C   2     160.028  37.664  51.2400  0.00  0.00     0.000 O
ATOM     26  HD  SGN C   2     160.819  37.339  51.3780  0.00  0.00     0.000 HD
BRANCH 19 28
ATOM     26   N  SGN C   2     162.189  39.605  49.8320  0.00  0.00     0.000 N
ATOM     28  HD  SGN C   2     162.661  39.307  49.1710  0.00  0.00     0.000 HD
ATOM     28   O  SGN C   2     161.341  41.919  50.2220  0.00  0.00     0.000 OA
ATOM     29   S  SGN C   2     161.072  40.653  49.3410  0.00  0.00     0.000 S
ATOM     30   O  SGN C   2     161.352  40.972  47.9940  0.00  0.00     0.000 OA
ATOM     31   O  SGN C   2     159.799  40.121  49.6870  0.00  0.00     0.000 OA
ENDBRANCH 19 28
BRANCH 22 32
ATOM     32   C  SGN C   2     162.742  33.985  49.3270  0.00  0.00     0.000 C
ATOM     33   S  SGN C   2     164.408  32.507  48.0300  0.00  0.00     0.000 S
ATOM     34   O  SGN C   2     164.194  33.227  46.7990  0.00  0.00     0.000 OA
ATOM     35   O  SGN C   2     165.786  32.116  48.2420  0.00  0.00     0.000 OA
ATOM     36   O  SGN C   2     163.465  31.438  48.2590  0.00  0.00     0.000 OA
ATOM     37   O  SGN C   2     164.108  33.582  49.1710  0.00  0.00     0.000 O
ENDBRANCH 22 32
BRANCH 18 38
ATOM     38  O4  IDS C   3     164.498  37.658  50.0220  0.00  0.00     0.000 O
BRANCH 38 42
ATOM     39  C1  IDS C   3     167.817  37.591  51.0740  0.00  0.00     0.000 C
ATOM     40  C2  IDS C   3     167.011  36.292  50.9140  0.00  0.00     0.000 C
ATOM     41  C3  IDS C   3     165.688  36.366  51.6740  0.00  0.00     0.000 C
ATOM     42  C4  IDS C   3     164.954  37.667  51.3790  0.00  0.00     0.000 C
ATOM     43  C5  IDS C   3     165.894  38.857  51.6070  0.00  0.00     0.000 C
ATOM     44  O5  IDS C   3     167.029  38.725  50.7530  0.00  0.00     0.000 O
ATOM     45   O  IDS C   3     165.942  36.263  53.0770  0.00  0.00     0.000 O
ATOM     47  HD  IDS C   3     166.437  36.693  53.6420  0.00  0.00     0.000 HD
BRANCH 40 47
ATOM     47   O  IDS C   3     166.691  36.051  49.4870  0.00  0.00     0.000 O
ATOM     48   S  IDS C   3     167.793  35.410  48.5210  0.00  0.00     0.000 S
ATOM     49   O  IDS C   3     168.717  36.479  48.2090  0.00  0.00     0.000 OA
ATOM     50   O  IDS C   3     167.062  34.954  47.3590  0.00  0.00     0.000 OA
ATOM     51   O  IDS C   3     168.408  34.339  49.2600  0.00  0.00     0.000 OA
ENDBRANCH 40 47
BRANCH 43 52
ATOM     52   C  IDS C   3     165.224  40.190  51.3590  0.00  0.00     0.000 C
ATOM     53   O  IDS C   3     165.734  40.992  50.6110  0.00  0.00     0.000 OA
ATOM     54   O  IDS C   3     164.182  40.445  51.9080  0.00  0.00     0.000 OA
ENDBRANCH 43 52
BRANCH 39 55
ATOM     55  O4  SGN C   4     168.694  37.799  52.0560  0.00  0.00     0.000 O
BRANCH 55 59
ATOM     56  C1  SGN C   4     171.118  36.425  55.1770  0.00  0.00     0.000 C
ATOM     57  C2  SGN C   4     171.051  35.543  53.9190  0.00  0.00     0.000 C
ATOM     58  C3  SGN C   4     170.477  36.323  52.7390  0.00  0.00     0.000 C
ATOM     59  C4  SGN C   4     169.163  36.993  53.1270  0.00  0.00     0.000 C
ATOM     60  C5  SGN C   4     169.398  37.855  54.3650  0.00  0.00     0.000 C
ATOM     61  O5  SGN C   4     169.847  36.999  55.4340  0.00  0.00     0.000 O
ATOM     62   O  SGN C   4     170.288  35.448  51.6360  0.00  0.00     0.000 O
ATOM     64  HD  SGN C   4     170.944  35.098  52.0800  0.00  0.00     0.000 HD
BRANCH 57 66
ATOM     64   N  SGN C   4     172.170  34.893  54.6200  0.00  0.00     0.000 N
ATOM     66  HD  SGN C   4     172.321  34.115  54.9720  0.00  0.00     0.000 HD
ATOM     66   S  SGN C   4     172.747  33.496  54.1080  0.00  0.00     0.000 S
ATOM     67   O  SGN C   4     173.764  33.099  55.0130  0.00  0.00     0.000 OA
ATOM     68   O  SGN C   4     171.633  32.640  53.8900  0.00  0.00     0.000 OA
ATOM     69   O  SGN C   4     173.389  33.844  52.7270  0.00  0.00     0.000 OA
ENDBRANCH 57 66
BRANCH 60 70
ATOM     70   C  SGN C   4     168.162  38.584  54.8450  0.00  0.00     0.000 C
ATOM     71   O  SGN C   4     167.650  40.190  58.2010  0.00  0.00     0.000 OA
ATOM     72   O  SGN C   4     168.193  41.281  56.1130  0.00  0.00     0.000 OA
ATOM     73   O  SGN C   4     168.262  38.877  56.2520  0.00  0.00     0.000 O
ATOM     74   S  SGN C   4     167.506  40.189  56.7640  0.00  0.00     0.000 S
ATOM     75   O  SGN C   4     166.136  40.024  56.3210  0.00  0.00     0.000 OA
ENDBRANCH 60 70
BRANCH 56 76
ATOM     76  O4  IDS C   5     172.045  37.215  55.7490  0.00  0.00     0.000 O
BRANCH 76 80
ATOM     77  C1  IDS C   5     174.158  40.166  57.6160  0.00  0.00     0.000 C
ATOM     78  C2  IDS C   5     173.049  40.668  56.6920  0.00  0.00     0.000 C
ATOM     79  C3  IDS C   5     172.070  39.546  56.4070  0.00  0.00     0.000 C
ATOM     80  C4  IDS C   5     172.769  38.447  55.6120  0.00  0.00     0.000 C
ATOM     81  C5  IDS C   5     174.207  38.284  56.1260  0.00  0.00     0.000 C
ATOM     82  O5  IDS C   5     174.316  38.755  57.4730  0.00  0.00     0.000 O
BRANCH 78 83
ATOM     83   O  IDS C   5     172.309  41.787  57.3210  0.00  0.00     0.000 O
ATOM     84   S  IDS C   5     172.106  43.152  56.5200  0.00  0.00     0.000 S
ATOM     85   O  IDS C   5     173.402  43.507  56.0090  0.00  0.00     0.000 OA
ATOM     86   O  IDS C   5     171.151  42.842  55.4820  0.00  0.00     0.000 OA
ATOM     87   O  IDS C   5     171.594  44.096  57.4830  0.00  0.00     0.000 OA
ENDBRANCH 78 83
BRANCH 81 88
ATOM     88   C  IDS C   5     174.712  36.853  56.0990  0.00  0.00     0.000 C
ATOM     89   O  IDS C   5     174.898  36.264  57.1300  0.00  0.00     0.000 OA
ATOM     90   O  IDS C   5     174.923  36.312  55.0380  0.00  0.00     0.000 OA
ENDBRANCH 81 88
ENDBRANCH 76 80
ENDBRANCH 56 76
ENDBRANCH 55 59
ENDBRANCH 39 55
ENDBRANCH 38 42
ENDBRANCH 18 38
ENDBRANCH 17 21
ENDBRANCH 1 17
TORSDOF 18
ENDMDL
MODEL 41
REMARK VINA RESULT:      -6.6     11.128     19.169
ROOT
ATOM      1  C1  IDS C   1     155.875  28.308  85.5200  0.00  0.00     0.000 C
ATOM      2  C2  IDS C   1     154.613  28.667  86.3090  0.00  0.00     0.000 C
ATOM      3  C3  IDS C   1     154.617  27.990  87.6720  0.00  0.00     0.000 C
ATOM      4  C4  IDS C   1     154.702  26.478  87.5210  0.00  0.00     0.000 C
ATOM      5  C5  IDS C   1     155.654  26.118  86.3840  0.00  0.00     0.000 C
ATOM      6  O5  IDS C   1     156.541  27.206  86.1240  0.00  0.00     0.000 O
ATOM      7   O  IDS C   1     153.428  28.344  88.3930  0.00  0.00     0.000 O
ATOM      9  HD  IDS C   1     153.235  29.168  88.2100  0.00  0.00     0.000 HD
ENDROOT
BRANCH 2 9
ATOM      9   O  IDS C   1     154.531  30.127  86.5360  0.00  0.00     0.000 O
ATOM     10   S  IDS C   1     153.242  30.926  86.0420  0.00  0.00     0.000 S
ATOM     11   O  IDS C   1     153.460  32.304  86.4200  0.00  0.00     0.000 OA
ATOM     12   O  IDS C   1     153.192  30.735  84.6070  0.00  0.00     0.000 OA
ATOM     13   O  IDS C   1     152.119  30.327  86.7300  0.00  0.00     0.000 OA
ENDBRANCH 2 9
BRANCH 5 14
ATOM     14   C  IDS C   1     156.484  24.885  86.6990  0.00  0.00     0.000 C
ATOM     15   O  IDS C   1     156.114  24.125  87.5610  0.00  0.00     0.000 OA
ATOM     16   O  IDS C   1     157.515  24.676  86.0830  0.00  0.00     0.000 OA
ENDBRANCH 5 14
BRANCH 1 17
ATOM     17  O4  SGN C   2     156.573  29.205  84.8170  0.00  0.00     0.000 O
BRANCH 17 21
ATOM     18  C1  SGN C   2     160.023  31.399  83.9190  0.00  0.00     0.000 C
ATOM     19  C2  SGN C   2     160.172  30.278  84.9550  0.00  0.00     0.000 C
ATOM     20  C3  SGN C   2     158.978  29.321  84.8610  0.00  0.00     0.000 C
ATOM     21  C4  SGN C   2     157.672  30.099  84.9730  0.00  0.00     0.000 C
ATOM     22  C5  SGN C   2     157.640  31.176  83.8920  0.00  0.00     0.000 C
ATOM     23  O5  SGN C   2     158.778  32.054  84.0430  0.00  0.00     0.000 O
ATOM     24   O  SGN C   2     159.069  28.334  85.8750  0.00  0.00     0.000 O
ATOM     26  HD  SGN C   2     158.920  28.644  85.0800  0.00  0.00     0.000 HD
BRANCH 19 28
ATOM     26   N  SGN C   2     161.631  30.107  84.9970  0.00  0.00     0.000 N
ATOM     28  HD  SGN C   2     161.526  30.964  84.9400  0.00  0.00     0.000 HD
ATOM     28   O  SGN C   2     163.610  28.831  85.8220  0.00  0.00     0.000 OA
ATOM     29   S  SGN C   2     162.409  29.691  86.3420  0.00  0.00     0.000 S
ATOM     30   O  SGN C   2     162.918  30.874  86.9220  0.00  0.00     0.000 OA
ATOM     31   O  SGN C   2     161.545  28.853  87.0990  0.00  0.00     0.000 OA
ENDBRANCH 19 28
BRANCH 22 32
ATOM     32   C  SGN C   2     156.408  32.046  83.9510  0.00  0.00     0.000 C
ATOM     33   S  SGN C   2     155.787  34.496  84.4530  0.00  0.00     0.000 S
ATOM     34   O  SGN C   2     155.926  34.311  85.8760  0.00  0.00     0.000 OA
ATOM     35   O  SGN C   2     156.274  35.776  83.9830  0.00  0.00     0.000 OA
ATOM     36   O  SGN C   2     154.482  34.154  83.9400  0.00  0.00     0.000 OA
ATOM     37   O  SGN C   2     156.783  33.422  83.8180  0.00  0.00     0.000 O
ENDBRANCH 22 32
BRANCH 18 38
ATOM     38  O4  IDS C   3     160.258  31.394  82.6050  0.00  0.00     0.000 O
BRANCH 38 42
ATOM     39  C1  IDS C   3     160.795  31.960  79.2110  0.00  0.00     0.000 C
ATOM     40  C2  IDS C   3     159.396  31.614  79.7440  0.00  0.00     0.000 C
ATOM     41  C3  IDS C   3     159.427  30.347  80.5980  0.00  0.00     0.000 C
ATOM     42  C4  IDS C   3     160.555  30.399  81.6200  0.00  0.00     0.000 C
ATOM     43  C5  IDS C   3     161.876  30.735  80.9180  0.00  0.00     0.000 C
ATOM     44  O5  IDS C   3     161.749  31.994  80.2600  0.00  0.00     0.000 O
ATOM     45   O  IDS C   3     159.597  29.210  79.7500  0.00  0.00     0.000 O
ATOM     47  HD  IDS C   3     160.176  28.974  79.1510  0.00  0.00     0.000 HD
BRANCH 40 47
ATOM     47   O  IDS C   3     158.878  32.712  80.5960  0.00  0.00     0.000 O
ATOM     48   S  IDS C   3     157.999  33.878  79.9430  0.00  0.00     0.000 S
ATOM     49   O  IDS C   3     158.935  34.748  79.2650  0.00  0.00     0.000 OA
ATOM     50   O  IDS C   3     157.345  34.529  81.0570  0.00  0.00     0.000 OA
ATOM     51   O  IDS C   3     157.079  33.238  79.0420  0.00  0.00     0.000 OA
ENDBRANCH 40 47
BRANCH 43 52
ATOM     52   C  IDS C   3     163.051  30.776  81.8700  0.00  0.00     0.000 C
ATOM     53   O  IDS C   3     163.313  29.808  82.5460  0.00  0.00     0.000 OA
ATOM     54   O  IDS C   3     163.720  31.774  81.9500  0.00  0.00     0.000 OA
ENDBRANCH 43 52
BRANCH 39 55
ATOM     55  O4  SGN C   4     161.278  31.507  78.0540  0.00  0.00     0.000 O
BRANCH 55 59
ATOM     56  C1  SGN C   4     163.354  31.960  74.4500  0.00  0.00     0.000 C
ATOM     57  C2  SGN C   4     164.143  32.246  75.7390  0.00  0.00     0.000 C
ATOM     58  C3  SGN C   4     163.420  31.674  76.9550  0.00  0.00     0.000 C
ATOM     59  C4  SGN C   4     161.965  32.129  76.9770  0.00  0.00     0.000 C
ATOM     60  C5  SGN C   4     161.310  31.747  75.6510  0.00  0.00     0.000 C
ATOM     61  O5  SGN C   4     162.018  32.416  74.5880  0.00  0.00     0.000 O
ATOM     62   O  SGN C   4     164.090  32.079  78.1410  0.00  0.00     0.000 O
ATOM     64  HD  SGN C   4     164.710  32.062  77.5370  0.00  0.00     0.000 HD
BRANCH 57 66
ATOM     64   N  SGN C   4     165.151  33.034  75.0110  0.00  0.00     0.000 N
ATOM     66  HD  SGN C   4     165.857  33.492  75.2190  0.00  0.00     0.000 HD
ATOM     66   S  SGN C   4     166.707  32.725  75.1900  0.00  0.00     0.000 S
ATOM     67   O  SGN C   4     167.420  33.677  74.4200  0.00  0.00     0.000 OA
ATOM     68   O  SGN C   4     166.954  32.629  76.5870  0.00  0.00     0.000 OA
ATOM     69   O  SGN C   4     166.879  31.309  74.5530  0.00  0.00     0.000 OA
ENDBRANCH 57 66
BRANCH 60 70
ATOM     70   C  SGN C   4     159.852  32.139  75.5550  0.00  0.00     0.000 C
ATOM     71   O  SGN C   4     158.480  35.519  74.6600  0.00  0.00     0.000 OA
ATOM     72   O  SGN C   4     158.654  33.574  73.2340  0.00  0.00     0.000 OA
ATOM     73   O  SGN C   4     159.722  33.565  75.3930  0.00  0.00     0.000 O
ATOM     74   S  SGN C   4     158.449  34.077  74.5730  0.00  0.00     0.000 S
ATOM     75   O  SGN C   4     157.311  33.482  75.2460  0.00  0.00     0.000 OA
ENDBRANCH 60 70
BRANCH 56 76
ATOM     76  O4  IDS C   5     163.359  30.994  73.5130  0.00  0.00     0.000 O
BRANCH 76 80
ATOM     77  C1  IDS C   5     161.285  27.498  73.8820  0.00  0.00     0.000 C
ATOM     78  C2  IDS C   5     162.711  27.450  74.4290  0.00  0.00     0.000 C
ATOM     79  C3  IDS C   5     163.225  28.859  74.6490  0.00  0.00     0.000 C
ATOM     80  C4  IDS C   5     163.349  29.573  73.3070  0.00  0.00     0.000 C
ATOM     81  C5  IDS C   5     162.173  29.170  72.4050  0.00  0.00     0.000 C
ATOM     82  O5  IDS C   5     161.064  28.729  73.1940  0.00  0.00     0.000 O
BRANCH 78 83
ATOM     83   O  IDS C   5     162.752  26.729  75.7230  0.00  0.00     0.000 O
ATOM     84   S  IDS C   5     163.730  25.483  75.9060  0.00  0.00     0.000 S
ATOM     85   O  IDS C   5     163.515  24.640  74.7600  0.00  0.00     0.000 OA
ATOM     86   O  IDS C   5     165.058  26.048  75.9530  0.00  0.00     0.000 OA
ATOM     87   O  IDS C   5     163.345  24.863  77.1500  0.00  0.00     0.000 OA
ENDBRANCH 78 83
BRANCH 81 88
ATOM     88   C  IDS C   5     161.679  30.285  71.5030  0.00  0.00     0.000 C
ATOM     89   O  IDS C   5     162.209  30.476  70.4410  0.00  0.00     0.000 OA
ATOM     90   O  IDS C   5     160.751  30.976  71.8580  0.00  0.00     0.000 OA
ENDBRANCH 81 88
ENDBRANCH 76 80
ENDBRANCH 56 76
ENDBRANCH 55 59
ENDBRANCH 39 55
ENDBRANCH 38 42
ENDBRANCH 18 38
ENDBRANCH 17 21
ENDBRANCH 1 17
TORSDOF 18
ENDMDL
MODEL 42
REMARK VINA RESULT:      -6.6     20.788     28.380
ROOT
ATOM      1  C1  IDS C   1     150.491  31.579  86.4420  0.00  0.00     0.000 C
ATOM      2  C2  IDS C   1     150.722  31.826  87.9350  0.00  0.00     0.000 C
ATOM      3  C3  IDS C   1     152.201  31.719  88.2780  0.00  0.00     0.000 C
ATOM      4  C4  IDS C   1     152.740  30.345  87.9070  0.00  0.00     0.000 C
ATOM      5  C5  IDS C   1     152.132  29.883  86.5870  0.00  0.00     0.000 C
ATOM      6  O5  IDS C   1     151.649  31.006  85.8490  0.00  0.00     0.000 O
ATOM      7   O  IDS C   1     152.392  31.959  89.6800  0.00  0.00     0.000 O
ATOM      9  HD  IDS C   1     151.832  32.570  89.9310  0.00  0.00     0.000 HD
ENDROOT
BRANCH 2 9
ATOM      9   O  IDS C   1     150.272  33.183  88.3210  0.00  0.00     0.000 O
ATOM     10   S  IDS C   1     149.241  33.353  89.5260  0.00  0.00     0.000 S
ATOM     11   O  IDS C   1     149.017  34.776  89.6580  0.00  0.00     0.000 OA
ATOM     12   O  IDS C   1     148.052  32.629  89.1280  0.00  0.00     0.000 OA
ATOM     13   O  IDS C   1     149.890  32.778  90.6840  0.00  0.00     0.000 OA
ENDBRANCH 2 9
BRANCH 5 14
ATOM     14   C  IDS C   1     153.135  29.136  85.7240  0.00  0.00     0.000 C
ATOM     15   O  IDS C   1     154.168  29.676  85.4130  0.00  0.00     0.000 OA
ATOM     16   O  IDS C   1     152.888  28.001  85.3530  0.00  0.00     0.000 OA
ENDBRANCH 5 14
BRANCH 1 17
ATOM     17  O4  SGN C   2     149.659  32.319  85.7020  0.00  0.00     0.000 O
BRANCH 17 21
ATOM     18  C1  SGN C   2     148.617  35.435  83.1090  0.00  0.00     0.000 C
ATOM     19  C2  SGN C   2     150.103  35.058  83.1670  0.00  0.00     0.000 C
ATOM     20  C3  SGN C   2     150.262  33.672  83.8040  0.00  0.00     0.000 C
ATOM     21  C4  SGN C   2     149.558  33.631  85.1550  0.00  0.00     0.000 C
ATOM     22  C5  SGN C   2     148.095  34.018  84.9660  0.00  0.00     0.000 C
ATOM     23  O5  SGN C   2     148.010  35.337  84.3800  0.00  0.00     0.000 O
ATOM     24   O  SGN C   2     151.638  33.358  83.9390  0.00  0.00     0.000 O
ATOM     26  HD  SGN C   2     150.805  33.210  83.7570  0.00  0.00     0.000 HD
BRANCH 19 28
ATOM     26   N  SGN C   2     150.606  35.658  81.9240  0.00  0.00     0.000 N
ATOM     28  HD  SGN C   2     149.991  36.209  82.1850  0.00  0.00     0.000 HD
ATOM     28   O  SGN C   2     152.513  36.072  80.3700  0.00  0.00     0.000 OA
ATOM     29   S  SGN C   2     152.045  36.370  81.8340  0.00  0.00     0.000 S
ATOM     30   O  SGN C   2     151.841  37.761  81.9690  0.00  0.00     0.000 OA
ATOM     31   O  SGN C   2     152.916  35.697  82.7340  0.00  0.00     0.000 OA
ENDBRANCH 19 28
BRANCH 22 32
ATOM     32   C  SGN C   2     147.317  34.065  86.2590  0.00  0.00     0.000 C
ATOM     33   S  SGN C   2     145.141  35.100  87.1750  0.00  0.00     0.000 S
ATOM     34   O  SGN C   2     145.732  36.410  87.2900  0.00  0.00     0.000 OA
ATOM     35   O  SGN C   2     143.766  35.121  86.7220  0.00  0.00     0.000 OA
ATOM     36   O  SGN C   2     145.355  34.254  88.3250  0.00  0.00     0.000 OA
ATOM     37   O  SGN C   2     145.952  34.406  85.9870  0.00  0.00     0.000 O
ENDBRANCH 22 32
BRANCH 18 38
ATOM     38  O4  IDS C   3     147.662  35.045  82.2620  0.00  0.00     0.000 O
BRANCH 38 42
ATOM     39  C1  IDS C   3     145.968  33.604  79.5820  0.00  0.00     0.000 C
ATOM     40  C2  IDS C   3     147.300  34.341  79.3720  0.00  0.00     0.000 C
ATOM     41  C3  IDS C   3     147.261  35.740  79.9870  0.00  0.00     0.000 C
ATOM     42  C4  IDS C   3     146.717  35.701  81.4090  0.00  0.00     0.000 C
ATOM     43  C5  IDS C   3     145.381  34.950  81.4340  0.00  0.00     0.000 C
ATOM     44  O5  IDS C   3     145.581  33.625  80.9460  0.00  0.00     0.000 O
ATOM     45   O  IDS C   3     146.443  36.588  79.1800  0.00  0.00     0.000 O
ATOM     47  HD  IDS C   3     145.628  36.555  78.8880  0.00  0.00     0.000 HD
BRANCH 40 47
ATOM     47   O  IDS C   3     148.411  33.602  80.0180  0.00  0.00     0.000 O
ATOM     48   S  IDS C   3     149.833  33.510  79.2930  0.00  0.00     0.000 S
ATOM     49   O  IDS C   3     149.684  32.519  78.2490  0.00  0.00     0.000 OA
ATOM     50   O  IDS C   3     150.759  33.093  80.3240  0.00  0.00     0.000 OA
ATOM     51   O  IDS C   3     150.113  34.824  78.7790  0.00  0.00     0.000 OA
ENDBRANCH 40 47
BRANCH 43 52
ATOM     52   C  IDS C   3     144.765  34.896  82.8140  0.00  0.00     0.000 C
ATOM     53   O  IDS C   3     144.670  35.907  83.4720  0.00  0.00     0.000 OA
ATOM     54   O  IDS C   3     144.370  33.845  83.2510  0.00  0.00     0.000 OA
ENDBRANCH 43 52
BRANCH 39 55
ATOM     55  O4  SGN C   4     144.946  33.667  78.7280  0.00  0.00     0.000 O
BRANCH 55 59
ATOM     56  C1  SGN C   4     143.200  32.328  75.1690  0.00  0.00     0.000 C
ATOM     57  C2  SGN C   4     144.314  31.448  75.7620  0.00  0.00     0.000 C
ATOM     58  C3  SGN C   4     144.581  31.820  77.2180  0.00  0.00     0.000 C
ATOM     59  C4  SGN C   4     144.804  33.321  77.3570  0.00  0.00     0.000 C
ATOM     60  C5  SGN C   4     143.606  34.054  76.7570  0.00  0.00     0.000 C
ATOM     61  O5  SGN C   4     143.510  33.698  75.3630  0.00  0.00     0.000 O
ATOM     62   O  SGN C   4     145.709  31.099  77.6950  0.00  0.00     0.000 O
ATOM     64  HD  SGN C   4     145.371  30.590  77.0800  0.00  0.00     0.000 HD
BRANCH 57 66
ATOM     64   N  SGN C   4     144.498  30.782  74.4630  0.00  0.00     0.000 N
ATOM     66  HD  SGN C   4     145.050  30.205  74.1280  0.00  0.00     0.000 HD
ATOM     66   S  SGN C   4     144.577  29.190  74.3710  0.00  0.00     0.000 S
ATOM     67   O  SGN C   4     144.816  28.855  73.0140  0.00  0.00     0.000 OA
ATOM     68   O  SGN C   4     145.494  28.761  75.3690  0.00  0.00     0.000 OA
ATOM     69   O  SGN C   4     143.142  28.724  74.7750  0.00  0.00     0.000 OA
ENDBRANCH 57 66
BRANCH 60 70
ATOM     70   C  SGN C   4     143.706  35.561  76.8430  0.00  0.00     0.000 C
ATOM     71   O  SGN C   4     145.793  37.812  74.6790  0.00  0.00     0.000 OA
ATOM     72   O  SGN C   4     143.417  37.396  74.5130  0.00  0.00     0.000 OA
ATOM     73   O  SGN C   4     144.760  36.047  75.9900  0.00  0.00     0.000 O
ATOM     74   S  SGN C   4     144.566  37.513  75.3810  0.00  0.00     0.000 S
ATOM     75   O  SGN C   4     144.336  38.365  76.5310  0.00  0.00     0.000 OA
ENDBRANCH 60 70
BRANCH 56 76
ATOM     76  O4  IDS C   5     141.865  32.228  75.0330  0.00  0.00     0.000 O
BRANCH 76 80
ATOM     77  C1  IDS C   5     138.878  31.139  77.5920  0.00  0.00     0.000 C
ATOM     78  C2  IDS C   5     139.689  29.972  77.0310  0.00  0.00     0.000 C
ATOM     79  C3  IDS C   5     141.003  30.480  76.4720  0.00  0.00     0.000 C
ATOM     80  C4  IDS C   5     140.732  31.378  75.2680  0.00  0.00     0.000 C
ATOM     81  C5  IDS C   5     139.476  32.220  75.5330  0.00  0.00     0.000 C
ATOM     82  O5  IDS C   5     139.249  32.353  76.9390  0.00  0.00     0.000 O
BRANCH 78 83
ATOM     83   O  IDS C   5     139.984  28.981  78.0920  0.00  0.00     0.000 O
ATOM     84   S  IDS C   5     139.589  27.450  77.8800  0.00  0.00     0.000 S
ATOM     85   O  IDS C   5     138.222  27.453  77.4310  0.00  0.00     0.000 OA
ATOM     86   O  IDS C   5     140.512  26.955  76.8860  0.00  0.00     0.000 OA
ATOM     87   O  IDS C   5     139.765  26.819  79.1650  0.00  0.00     0.000 OA
ENDBRANCH 78 83
BRANCH 81 88
ATOM     88   C  IDS C   5     139.536  33.618  74.9450  0.00  0.00     0.000 C
ATOM     89   O  IDS C   5     139.728  34.562  75.6630  0.00  0.00     0.000 OA
ATOM     90   O  IDS C   5     139.391  33.773  73.7540  0.00  0.00     0.000 OA
ENDBRANCH 81 88
ENDBRANCH 76 80
ENDBRANCH 56 76
ENDBRANCH 55 59
ENDBRANCH 39 55
ENDBRANCH 38 42
ENDBRANCH 18 38
ENDBRANCH 17 21
ENDBRANCH 1 17
TORSDOF 18
ENDMDL
MODEL 43
REMARK VINA RESULT:      -6.6     25.015     31.921
ROOT
ATOM      1  C1  IDS C   1     152.710  45.723  67.8280  0.00  0.00     0.000 C
ATOM      2  C2  IDS C   1     152.746  46.658  66.6160  0.00  0.00     0.000 C
ATOM      3  C3  IDS C   1     153.333  45.950  65.4040  0.00  0.00     0.000 C
ATOM      4  C4  IDS C   1     154.743  45.458  65.7000  0.00  0.00     0.000 C
ATOM      5  C5  IDS C   1     154.821  44.921  67.1260  0.00  0.00     0.000 C
ATOM      6  O5  IDS C   1     153.517  44.576  67.5930  0.00  0.00     0.000 O
ATOM      7   O  IDS C   1     153.351  46.843  64.2820  0.00  0.00     0.000 O
ATOM      9  HD  IDS C   1     152.641  47.337  64.3150  0.00  0.00     0.000 HD
ENDROOT
BRANCH 2 9
ATOM      9   O  IDS C   1     151.381  47.104  66.2540  0.00  0.00     0.000 O
ATOM     10   S  IDS C   1     151.016  48.654  66.3380  0.00  0.00     0.000 S
ATOM     11   O  IDS C   1     149.637  48.760  65.9140  0.00  0.00     0.000 OA
ATOM     12   O  IDS C   1     151.209  49.026  67.7250  0.00  0.00     0.000 OA
ATOM     13   O  IDS C   1     151.931  49.325  65.4420  0.00  0.00     0.000 OA
ENDBRANCH 2 9
BRANCH 5 14
ATOM     14   C  IDS C   1     155.710  43.693  67.2280  0.00  0.00     0.000 C
ATOM     15   O  IDS C   1     155.803  43.114  68.2830  0.00  0.00     0.000 OA
ATOM     16   O  IDS C   1     156.322  43.306  66.2480  0.00  0.00     0.000 OA
ENDBRANCH 5 14
BRANCH 1 17
ATOM     17  O4  SGN C   2     151.665  45.645  68.6560  0.00  0.00     0.000 O
BRANCH 17 21
ATOM     18  C1  SGN C   2     147.987  43.847  69.5340  0.00  0.00     0.000 C
ATOM     19  C2  SGN C   2     148.548  43.613  68.1260  0.00  0.00     0.000 C
ATOM     20  C3  SGN C   2     150.042  43.955  68.0970  0.00  0.00     0.000 C
ATOM     21  C4  SGN C   2     150.267  45.367  68.6270  0.00  0.00     0.000 C
ATOM     22  C5  SGN C   2     149.674  45.473  70.0290  0.00  0.00     0.000 C
ATOM     23  O5  SGN C   2     148.263  45.156  69.9880  0.00  0.00     0.000 O
ATOM     24   O  SGN C   2     150.542  43.823  66.7770  0.00  0.00     0.000 O
ATOM     26  HD  SGN C   2     150.548  43.744  67.6400  0.00  0.00     0.000 HD
BRANCH 19 28
ATOM     26   N  SGN C   2     148.150  42.257  67.7230  0.00  0.00     0.000 N
ATOM     28  HD  SGN C   2     147.928  42.297  68.5590  0.00  0.00     0.000 HD
ATOM     28   O  SGN C   2     147.295  40.717  65.9560  0.00  0.00     0.000 OA
ATOM     29   S  SGN C   2     146.876  41.980  66.7810  0.00  0.00     0.000 S
ATOM     30   O  SGN C   2     145.794  41.632  67.6210  0.00  0.00     0.000 OA
ATOM     31   O  SGN C   2     146.748  43.082  65.8920  0.00  0.00     0.000 OA
ENDBRANCH 19 28
BRANCH 22 32
ATOM     32   C  SGN C   2     149.792  46.854  70.6250  0.00  0.00     0.000 C
ATOM     33   S  SGN C   2     148.706  48.258  72.4940  0.00  0.00     0.000 S
ATOM     34   O  SGN C   2     147.527  48.519  71.7070  0.00  0.00     0.000 OA
ATOM     35   O  SGN C   2     148.428  48.028  73.8960  0.00  0.00     0.000 OA
ATOM     36   O  SGN C   2     149.784  49.191  72.2670  0.00  0.00     0.000 OA
ATOM     37   O  SGN C   2     149.241  46.857  71.9480  0.00  0.00     0.000 O
ENDBRANCH 22 32
BRANCH 18 38
ATOM     38  O4  IDS C   3     148.079  43.097  70.6340  0.00  0.00     0.000 O
BRANCH 38 42
ATOM     39  C1  IDS C   3     147.898  40.795  73.2410  0.00  0.00     0.000 C
ATOM     40  C2  IDS C   3     147.281  42.196  73.3780  0.00  0.00     0.000 C
ATOM     41  C3  IDS C   3     148.297  43.283  73.0280  0.00  0.00     0.000 C
ATOM     42  C4  IDS C   3     149.007  42.973  71.7170  0.00  0.00     0.000 C
ATOM     43  C5  IDS C   3     149.577  41.550  71.7590  0.00  0.00     0.000 C
ATOM     44  O5  IDS C   3     148.511  40.627  71.9740  0.00  0.00     0.000 O
ATOM     45   O  IDS C   3     149.256  43.391  74.0820  0.00  0.00     0.000 O
ATOM     47  HD  IDS C   3     149.792  42.840  74.4800  0.00  0.00     0.000 HD
BRANCH 40 47
ATOM     47   O  IDS C   3     146.130  42.350  72.4570  0.00  0.00     0.000 O
ATOM     48   S  IDS C   3     144.642  42.131  73.0000  0.00  0.00     0.000 S
ATOM     49   O  IDS C   3     144.463  40.698  73.1010  0.00  0.00     0.000 OA
ATOM     50   O  IDS C   3     143.781  42.727  72.0010  0.00  0.00     0.000 OA
ATOM     51   O  IDS C   3     144.573  42.793  74.2750  0.00  0.00     0.000 OA
ENDBRANCH 40 47
BRANCH 43 52
ATOM     52   C  IDS C   3     150.323  41.180  70.4960  0.00  0.00     0.000 C
ATOM     53   O  IDS C   3     149.795  40.471  69.6700  0.00  0.00     0.000 OA
ATOM     54   O  IDS C   3     151.440  41.596  70.3190  0.00  0.00     0.000 OA
ENDBRANCH 43 52
BRANCH 39 55
ATOM     55  O4  SGN C   4     148.524  40.163  74.2340  0.00  0.00     0.000 O
BRANCH 55 59
ATOM     56  C1  SGN C   4     148.448  35.984  74.4070  0.00  0.00     0.000 C
ATOM     57  C2  SGN C   4     147.120  36.708  74.6880  0.00  0.00     0.000 C
ATOM     58  C3  SGN C   4     147.183  38.157  74.2140  0.00  0.00     0.000 C
ATOM     59  C4  SGN C   4     148.423  38.850  74.7670  0.00  0.00     0.000 C
ATOM     60  C5  SGN C   4     149.655  38.035  74.3800  0.00  0.00     0.000 C
ATOM     61  O5  SGN C   4     149.528  36.721  74.9580  0.00  0.00     0.000 O
ATOM     62   O  SGN C   4     146.004  38.841  74.6170  0.00  0.00     0.000 O
ATOM     64  HD  SGN C   4     145.758  38.015  74.5340  0.00  0.00     0.000 HD
BRANCH 57 66
ATOM     64   N  SGN C   4     146.557  35.540  75.3840  0.00  0.00     0.000 N
ATOM     66  HD  SGN C   4     145.818  35.353  75.7950  0.00  0.00     0.000 HD
ATOM     66   S  SGN C   4     145.131  34.957  74.9690  0.00  0.00     0.000 S
ATOM     67   O  SGN C   4     144.837  33.886  75.8500  0.00  0.00     0.000 OA
ATOM     68   O  SGN C   4     144.238  36.061  74.8890  0.00  0.00     0.000 OA
ATOM     69   O  SGN C   4     145.363  34.396  73.5300  0.00  0.00     0.000 OA
ENDBRANCH 57 66
BRANCH 60 70
ATOM     70   C  SGN C   4     150.958  38.630  74.8660  0.00  0.00     0.000 C
ATOM     71   O  SGN C   4     154.268  38.568  73.0910  0.00  0.00     0.000 OA
ATOM     72   O  SGN C   4     152.703  40.407  73.2300  0.00  0.00     0.000 OA
ATOM     73   O  SGN C   4     152.047  38.225  74.0140  0.00  0.00     0.000 O
ATOM     74   S  SGN C   4     153.269  39.249  73.8830  0.00  0.00     0.000 S
ATOM     75   O  SGN C   4     153.688  39.502  75.2470  0.00  0.00     0.000 OA
ENDBRANCH 60 70
BRANCH 56 76
ATOM     76  O4  IDS C   5     148.939  35.228  73.4080  0.00  0.00     0.000 O
BRANCH 76 80
ATOM     77  C1  IDS C   5     150.267  36.607  69.8030  0.00  0.00     0.000 C
ATOM     78  C2  IDS C   5     148.765  36.330  69.8620  0.00  0.00     0.000 C
ATOM     79  C3  IDS C   5     148.312  36.257  71.3070  0.00  0.00     0.000 C
ATOM     80  C4  IDS C   5     148.955  35.050  71.9830  0.00  0.00     0.000 C
ATOM     81  C5  IDS C   5     150.396  34.892  71.4790  0.00  0.00     0.000 C
ATOM     82  O5  IDS C   5     150.899  36.141  70.9950  0.00  0.00     0.000 O
BRANCH 78 83
ATOM     83   O  IDS C   5     148.007  37.410  69.1870  0.00  0.00     0.000 O
ATOM     84   S  IDS C   5     146.496  37.159  68.7430  0.00  0.00     0.000 S
ATOM     85   O  IDS C   5     146.493  35.902  68.0430  0.00  0.00     0.000 OA
ATOM     86   O  IDS C   5     145.740  37.126  69.9730  0.00  0.00     0.000 OA
ATOM     87   O  IDS C   5     146.145  38.279  67.9040  0.00  0.00     0.000 OA
ENDBRANCH 78 83
BRANCH 81 88
ATOM     88   C  IDS C   5     151.365  34.385  72.5310  0.00  0.00     0.000 C
ATOM     89   O  IDS C   5     151.412  33.211  72.7860  0.00  0.00     0.000 OA
ATOM     90   O  IDS C   5     152.086  35.166  73.1070  0.00  0.00     0.000 OA
ENDBRANCH 81 88
ENDBRANCH 76 80
ENDBRANCH 56 76
ENDBRANCH 55 59
ENDBRANCH 39 55
ENDBRANCH 38 42
ENDBRANCH 18 38
ENDBRANCH 17 21
ENDBRANCH 1 17
TORSDOF 18
ENDMDL
MODEL 44
REMARK VINA RESULT:      -6.6     24.039     28.881
ROOT
ATOM      1  C1  IDS C   1     181.995  24.725  60.5230  0.00  0.00     0.000 C
ATOM      2  C2  IDS C   1     183.284  24.446  61.3010  0.00  0.00     0.000 C
ATOM      3  C3  IDS C   1     183.886  23.110  60.8880  0.00  0.00     0.000 C
ATOM      4  C4  IDS C   1     182.898  21.978  61.1310  0.00  0.00     0.000 C
ATOM      5  C5  IDS C   1     181.486  22.428  60.7690  0.00  0.00     0.000 C
ATOM      6  O5  IDS C   1     181.540  23.542  59.8770  0.00  0.00     0.000 O
ATOM      7   O  IDS C   1     185.093  22.874  61.6260  0.00  0.00     0.000 O
ATOM      9  HD  IDS C   1     185.502  23.630  61.7300  0.00  0.00     0.000 HD
ENDROOT
BRANCH 2 9
ATOM      9   O  IDS C   1     184.297  25.493  61.0360  0.00  0.00     0.000 O
ATOM     10   S  IDS C   1     184.802  26.415  62.2340  0.00  0.00     0.000 S
ATOM     11   O  IDS C   1     185.782  27.310  61.6600  0.00  0.00     0.000 OA
ATOM     12   O  IDS C   1     183.624  27.104  62.7200  0.00  0.00     0.000 OA
ATOM     13   O  IDS C   1     185.372  25.514  63.2120  0.00  0.00     0.000 OA
ENDBRANCH 2 9
BRANCH 5 14
ATOM     14   C  IDS C   1     180.683  21.321  60.1080  0.00  0.00     0.000 C
ATOM     15   O  IDS C   1     181.012  20.171  60.2690  0.00  0.00     0.000 OA
ATOM     16   O  IDS C   1     179.716  21.603  59.4200  0.00  0.00     0.000 OA
ENDBRANCH 5 14
BRANCH 1 17
ATOM     17  O4  SGN C   2     181.701  25.921  60.0070  0.00  0.00     0.000 O
BRANCH 17 21
ATOM     18  C1  SGN C   2     181.630  28.374  56.6150  0.00  0.00     0.000 C
ATOM     19  C2  SGN C   2     182.448  27.081  56.5110  0.00  0.00     0.000 C
ATOM     20  C3  SGN C   2     182.040  26.116  57.6310  0.00  0.00     0.000 C
ATOM     21  C4  SGN C   2     182.146  26.809  58.9850  0.00  0.00     0.000 C
ATOM     22  C5  SGN C   2     181.290  28.072  58.9660  0.00  0.00     0.000 C
ATOM     23  O5  SGN C   2     181.732  28.946  57.9020  0.00  0.00     0.000 O
ATOM     24   O  SGN C   2     182.854  24.956  57.5890  0.00  0.00     0.000 O
ATOM     26  HD  SGN C   2     182.120  25.408  57.6720  0.00  0.00     0.000 HD
BRANCH 19 28
ATOM     26   N  SGN C   2     182.543  26.912  55.0540  0.00  0.00     0.000 N
ATOM     28  HD  SGN C   2     182.503  27.771  55.1600  0.00  0.00     0.000 HD
ATOM     28   O  SGN C   2     183.413  25.622  53.1050  0.00  0.00     0.000 OA
ATOM     29   S  SGN C   2     183.907  26.465  54.3290  0.00  0.00     0.000 S
ATOM     30   O  SGN C   2     184.536  27.634  53.8470  0.00  0.00     0.000 OA
ATOM     31   O  SGN C   2     184.607  25.606  55.2190  0.00  0.00     0.000 OA
ENDBRANCH 19 28
BRANCH 22 32
ATOM     32   C  SGN C   2     181.370  28.868  60.2460  0.00  0.00     0.000 C
ATOM     33   S  SGN C   2     180.976  31.283  61.0540  0.00  0.00     0.000 S
ATOM     34   O  SGN C   2     182.220  31.747  60.4940  0.00  0.00     0.000 OA
ATOM     35   O  SGN C   2     179.888  32.228  60.9150  0.00  0.00     0.000 OA
ATOM     36   O  SGN C   2     181.097  30.738  62.3860  0.00  0.00     0.000 OA
ATOM     37   O  SGN C   2     180.565  30.047  60.1310  0.00  0.00     0.000 O
ENDBRANCH 22 32
BRANCH 18 38
ATOM     38  O4  IDS C   3     180.374  28.632  56.2450  0.00  0.00     0.000 O
BRANCH 38 42
ATOM     39  C1  IDS C   3     177.652  29.457  54.2350  0.00  0.00     0.000 C
ATOM     40  C2  IDS C   3     179.006  30.163  54.0630  0.00  0.00     0.000 C
ATOM     41  C3  IDS C   3     179.514  30.718  55.3930  0.00  0.00     0.000 C
ATOM     42  C4  IDS C   3     179.423  29.672  56.4970  0.00  0.00     0.000 C
ATOM     43  C5  IDS C   3     178.006  29.087  56.5420  0.00  0.00     0.000 C
ATOM     44  O5  IDS C   3     177.704  28.498  55.2790  0.00  0.00     0.000 O
ATOM     45   O  IDS C   3     178.742  31.866  55.7520  0.00  0.00     0.000 O
ATOM     47  HD  IDS C   3     177.898  32.026  55.8610  0.00  0.00     0.000 HD
BRANCH 40 47
ATOM     47   O  IDS C   3     180.027  29.214  53.5580  0.00  0.00     0.000 O
ATOM     48   S  IDS C   3     180.197  28.991  51.9840  0.00  0.00     0.000 S
ATOM     49   O  IDS C   3     179.100  28.138  51.5820  0.00  0.00     0.000 OA
ATOM     50   O  IDS C   3     181.484  28.349  51.8270  0.00  0.00     0.000 OA
ATOM     51   O  IDS C   3     180.139  30.296  51.3800  0.00  0.00     0.000 OA
ENDBRANCH 40 47
BRANCH 43 52
ATOM     52   C  IDS C   3     177.833  28.057  57.6370  0.00  0.00     0.000 C
ATOM     53   O  IDS C   3     177.769  26.883  57.3550  0.00  0.00     0.000 OA
ATOM     54   O  IDS C   3     177.759  28.413  58.7850  0.00  0.00     0.000 OA
ENDBRANCH 43 52
BRANCH 39 55
ATOM     55  O4  SGN C   4     176.477  30.077  54.1260  0.00  0.00     0.000 O
BRANCH 55 59
ATOM     56  C1  SGN C   4     173.722  32.508  52.1250  0.00  0.00     0.000 C
ATOM     57  C2  SGN C   4     174.207  31.256  51.3740  0.00  0.00     0.000 C
ATOM     58  C3  SGN C   4     174.874  30.273  52.3330  0.00  0.00     0.000 C
ATOM     59  C4  SGN C   4     175.938  30.976  53.1670  0.00  0.00     0.000 C
ATOM     60  C5  SGN C   4     175.300  32.170  53.8740  0.00  0.00     0.000 C
ATOM     61  O5  SGN C   4     174.790  33.070  52.8700  0.00  0.00     0.000 O
ATOM     62   O  SGN C   4     175.442  29.200  51.5950  0.00  0.00     0.000 O
ATOM     64  HD  SGN C   4     174.778  29.469  51.1090  0.00  0.00     0.000 HD
BRANCH 57 66
ATOM     64   N  SGN C   4     173.533  31.872  50.2190  0.00  0.00     0.000 N
ATOM     66  HD  SGN C   4     173.597  31.820  49.3570  0.00  0.00     0.000 HD
ATOM     66   S  SGN C   4     172.891  30.964  49.0750  0.00  0.00     0.000 S
ATOM     67   O  SGN C   4     172.377  31.834  48.0800  0.00  0.00     0.000 OA
ATOM     68   O  SGN C   4     173.866  29.993  48.7180  0.00  0.00     0.000 OA
ATOM     69   O  SGN C   4     171.707  30.243  49.7950  0.00  0.00     0.000 OA
ENDBRANCH 57 66
BRANCH 60 70
ATOM     70   C  SGN C   4     176.260  32.948  54.7470  0.00  0.00     0.000 C
ATOM     71   O  SGN C   4     177.011  36.623  54.5560  0.00  0.00     0.000 OA
ATOM     72   O  SGN C   4     175.573  35.493  56.1380  0.00  0.00     0.000 OA
ATOM     73   O  SGN C   4     176.434  34.285  54.2390  0.00  0.00     0.000 O
ATOM     74   S  SGN C   4     176.760  35.421  55.3160  0.00  0.00     0.000 S
ATOM     75   O  SGN C   4     177.926  34.934  56.0270  0.00  0.00     0.000 OA
ENDBRANCH 60 70
BRANCH 56 76
ATOM     76  O4  IDS C   5     172.571  32.895  52.7060  0.00  0.00     0.000 O
BRANCH 76 80
ATOM     77  C1  IDS C   5     169.294  34.444  54.5820  0.00  0.00     0.000 C
ATOM     78  C2  IDS C   5     170.616  35.109  54.9630  0.00  0.00     0.000 C
ATOM     79  C3  IDS C   5     171.673  34.785  53.9250  0.00  0.00     0.000 C
ATOM     80  C4  IDS C   5     171.971  33.289  53.9490  0.00  0.00     0.000 C
ATOM     81  C5  IDS C   5     170.666  32.514  54.1830  0.00  0.00     0.000 C
ATOM     82  O5  IDS C   5     169.538  33.293  53.7730  0.00  0.00     0.000 O
BRANCH 78 83
ATOM     83   O  IDS C   5     170.462  36.581  55.0320  0.00  0.00     0.000 O
ATOM     84   S  IDS C   5     170.806  37.352  56.3850  0.00  0.00     0.000 S
ATOM     85   O  IDS C   5     170.131  36.633  57.4320  0.00  0.00     0.000 OA
ATOM     86   O  IDS C   5     172.245  37.299  56.4960  0.00  0.00     0.000 OA
ATOM     87   O  IDS C   5     170.311  38.695  56.2060  0.00  0.00     0.000 OA
ENDBRANCH 78 83
BRANCH 81 88
ATOM     88   C  IDS C   5     170.597  31.188  53.4480  0.00  0.00     0.000 C
ATOM     89   O  IDS C   5     169.874  31.068  52.4960  0.00  0.00     0.000 OA
ATOM     90   O  IDS C   5     171.273  30.258  53.8260  0.00  0.00     0.000 OA
ENDBRANCH 81 88
ENDBRANCH 76 80
ENDBRANCH 56 76
ENDBRANCH 55 59
ENDBRANCH 39 55
ENDBRANCH 38 42
ENDBRANCH 18 38
ENDBRANCH 17 21
ENDBRANCH 1 17
TORSDOF 18
ENDMDL
MODEL 45
REMARK VINA RESULT:      -6.6     12.269     19.562
ROOT
ATOM      1  C1  IDS C   1     155.222  29.043  85.4350  0.00  0.00     0.000 C
ATOM      2  C2  IDS C   1     153.966  29.494  86.1850  0.00  0.00     0.000 C
ATOM      3  C3  IDS C   1     153.957  28.946  87.6040  0.00  0.00     0.000 C
ATOM      4  C4  IDS C   1     154.016  27.424  87.5930  0.00  0.00     0.000 C
ATOM      5  C5  IDS C   1     154.962  26.946  86.4960  0.00  0.00     0.000 C
ATOM      6  O5  IDS C   1     155.868  27.990  86.1390  0.00  0.00     0.000 O
ATOM      7   O  IDS C   1     152.774  29.385  88.2870  0.00  0.00     0.000 O
ATOM      9  HD  IDS C   1     152.594  30.192  88.0280  0.00  0.00     0.000 HD
ENDROOT
BRANCH 2 9
ATOM      9   O  IDS C   1     153.908  30.971  86.2770  0.00  0.00     0.000 O
ATOM     10   S  IDS C   1     152.647  31.744  85.6810  0.00  0.00     0.000 S
ATOM     11   O  IDS C   1     152.886  33.147  85.9370  0.00  0.00     0.000 OA
ATOM     12   O  IDS C   1     152.626  31.425  84.2680  0.00  0.00     0.000 OA
ATOM     13   O  IDS C   1     151.497  31.231  86.3920  0.00  0.00     0.000 OA
ENDBRANCH 2 9
BRANCH 5 14
ATOM     14   C  IDS C   1     155.770  25.733  86.9260  0.00  0.00     0.000 C
ATOM     15   O  IDS C   1     156.924  25.637  86.5840  0.00  0.00     0.000 OA
ATOM     16   O  IDS C   1     155.248  24.868  87.6080  0.00  0.00     0.000 OA
ENDBRANCH 5 14
BRANCH 1 17
ATOM     17  O4  SGN C   2     155.936  29.859  84.6540  0.00  0.00     0.000 O
BRANCH 17 21
ATOM     18  C1  SGN C   2     159.430  31.871  83.5280  0.00  0.00     0.000 C
ATOM     19  C2  SGN C   2     159.571  30.815  84.6310  0.00  0.00     0.000 C
ATOM     20  C3  SGN C   2     158.344  29.895  84.6300  0.00  0.00     0.000 C
ATOM     21  C4  SGN C   2     157.067  30.723  84.7230  0.00  0.00     0.000 C
ATOM     22  C5  SGN C   2     157.041  31.728  83.5750  0.00  0.00     0.000 C
ATOM     23  O5  SGN C   2     158.211  32.575  83.6400  0.00  0.00     0.000 O
ATOM     24   O  SGN C   2     158.431  28.974  85.7040  0.00  0.00     0.000 O
ATOM     26  HD  SGN C   2     158.269  29.236  84.8950  0.00  0.00     0.000 HD
BRANCH 19 28
ATOM     26   N  SGN C   2     161.021  30.579  84.6290  0.00  0.00     0.000 N
ATOM     28  HD  SGN C   2     160.951  31.429  84.4790  0.00  0.00     0.000 HD
ATOM     28   O  SGN C   2     162.982  29.309  85.5050  0.00  0.00     0.000 OA
ATOM     29   S  SGN C   2     161.845  30.278  85.9760  0.00  0.00     0.000 S
ATOM     30   O  SGN C   2     162.432  31.492  86.3960  0.00  0.00     0.000 OA
ATOM     31   O  SGN C   2     160.984  29.571  86.8600  0.00  0.00     0.000 OA
ENDBRANCH 19 28
BRANCH 22 32
ATOM     32   C  SGN C   2     155.840  32.642  83.6080  0.00  0.00     0.000 C
ATOM     33   S  SGN C   2     155.318  35.147  83.9120  0.00  0.00     0.000 S
ATOM     34   O  SGN C   2     155.517  35.085  85.3390  0.00  0.00     0.000 OA
ATOM     35   O  SGN C   2     155.822  36.363  83.3080  0.00  0.00     0.000 OA
ATOM     36   O  SGN C   2     153.981  34.806  83.4880  0.00  0.00     0.000 OA
ATOM     37   O  SGN C   2     156.250  33.987  83.3350  0.00  0.00     0.000 O
ENDBRANCH 22 32
BRANCH 18 38
ATOM     38  O4  IDS C   3     159.628  31.772  82.2110  0.00  0.00     0.000 O
BRANCH 38 42
ATOM     39  C1  IDS C   3     159.965  32.100  78.7600  0.00  0.00     0.000 C
ATOM     40  C2  IDS C   3     158.581  31.931  79.4090  0.00  0.00     0.000 C
ATOM     41  C3  IDS C   3     158.549  30.714  80.3320  0.00  0.00     0.000 C
ATOM     42  C4  IDS C   3     159.749  30.701  81.2690  0.00  0.00     0.000 C
ATOM     43  C5  IDS C   3     161.041  30.859  80.4590  0.00  0.00     0.000 C
ATOM     44  O5  IDS C   3     160.992  32.089  79.7370  0.00  0.00     0.000 O
ATOM     45   O  IDS C   3     158.539  29.522  79.5440  0.00  0.00     0.000 O
ATOM     47  HD  IDS C   3     159.045  29.196  78.9220  0.00  0.00     0.000 HD
BRANCH 40 47
ATOM     47   O  IDS C   3     158.242  33.120  80.2260  0.00  0.00     0.000 O
ATOM     48   S  IDS C   3     157.881  34.503  79.5090  0.00  0.00     0.000 S
ATOM     49   O  IDS C   3     159.142  35.068  79.0790  0.00  0.00     0.000 OA
ATOM     50   O  IDS C   3     157.234  35.302  80.5260  0.00  0.00     0.000 OA
ATOM     51   O  IDS C   3     157.013  34.176  78.4090  0.00  0.00     0.000 OA
ENDBRANCH 40 47
BRANCH 43 52
ATOM     52   C  IDS C   3     162.282  30.827  81.3240  0.00  0.00     0.000 C
ATOM     53   O  IDS C   3     163.069  31.745  81.2840  0.00  0.00     0.000 OA
ATOM     54   O  IDS C   3     162.480  29.886  82.0500  0.00  0.00     0.000 OA
ENDBRANCH 43 52
BRANCH 39 55
ATOM     55  O4  SGN C   4     160.311  31.539  77.6020  0.00  0.00     0.000 O
BRANCH 55 59
ATOM     56  C1  SGN C   4     163.011  29.294  75.3260  0.00  0.00     0.000 C
ATOM     57  C2  SGN C   4     161.695  28.598  75.7170  0.00  0.00     0.000 C
ATOM     58  C3  SGN C   4     160.660  29.619  76.1820  0.00  0.00     0.000 C
ATOM     59  C4  SGN C   4     161.249  30.530  77.2540  0.00  0.00     0.000 C
ATOM     60  C5  SGN C   4     162.524  31.169  76.7080  0.00  0.00     0.000 C
ATOM     61  O5  SGN C   4     163.457  30.118  76.3910  0.00  0.00     0.000 O
ATOM     62   O  SGN C   4     159.512  28.941  76.6760  0.00  0.00     0.000 O
ATOM     64  HD  SGN C   4     159.848  28.400  76.0890  0.00  0.00     0.000 HD
BRANCH 57 66
ATOM     64   N  SGN C   4     161.137  27.236  75.7190  0.00  0.00     0.000 N
ATOM     66  HD  SGN C   4     160.699  26.739  75.1620  0.00  0.00     0.000 HD
ATOM     66   S  SGN C   4     161.515  26.202  74.5630  0.00  0.00     0.000 S
ATOM     67   O  SGN C   4     160.783  25.012  74.8020  0.00  0.00     0.000 OA
ATOM     68   O  SGN C   4     161.355  26.885  73.3260  0.00  0.00     0.000 OA
ATOM     69   O  SGN C   4     163.036  25.930  74.7920  0.00  0.00     0.000 OA
ENDBRANCH 57 66
BRANCH 60 70
ATOM     70   C  SGN C   4     163.200  32.110  77.6820  0.00  0.00     0.000 C
ATOM     71   O  SGN C   4     166.884  32.777  77.9840  0.00  0.00     0.000 OA
ATOM     72   O  SGN C   4     165.219  34.159  76.9040  0.00  0.00     0.000 OA
ATOM     73   O  SGN C   4     164.630  31.940  77.6360  0.00  0.00     0.000 O
ATOM     74   S  SGN C   4     165.513  33.231  77.9720  0.00  0.00     0.000 S
ATOM     75   O  SGN C   4     165.040  33.676  79.2680  0.00  0.00     0.000 OA
ENDBRANCH 60 70
BRANCH 56 76
ATOM     76  O4  IDS C   5     163.543  29.775  74.1880  0.00  0.00     0.000 O
BRANCH 76 80
ATOM     77  C1  IDS C   5     163.261  31.417  70.4620  0.00  0.00     0.000 C
ATOM     78  C2  IDS C   5     162.486  30.112  70.6410  0.00  0.00     0.000 C
ATOM     79  C3  IDS C   5     162.289  29.828  72.1170  0.00  0.00     0.000 C
ATOM     80  C4  IDS C   5     163.643  29.567  72.7710  0.00  0.00     0.000 C
ATOM     81  C5  IDS C   5     164.692  30.509  72.1630  0.00  0.00     0.000 C
ATOM     82  O5  IDS C   5     164.065  31.672  71.6140  0.00  0.00     0.000 O
BRANCH 78 83
ATOM     83   O  IDS C   5     161.153  30.203  70.0000  0.00  0.00     0.000 O
ATOM     84   S  IDS C   5     160.987  29.825  68.4590  0.00  0.00     0.000 S
ATOM     85   O  IDS C   5     162.031  30.529  67.7640  0.00  0.00     0.000 OA
ATOM     86   O  IDS C   5     161.135  28.390  68.4030  0.00  0.00     0.000 OA
ATOM     87   O  IDS C   5     159.662  30.262  68.0900  0.00  0.00     0.000 OA
ENDBRANCH 78 83
BRANCH 81 88
ATOM     88   C  IDS C   5     165.743  30.979  73.1520  0.00  0.00     0.000 C
ATOM     89   O  IDS C   5     166.695  30.285  73.3890  0.00  0.00     0.000 OA
ATOM     90   O  IDS C   5     165.617  32.053  73.6950  0.00  0.00     0.000 OA
ENDBRANCH 81 88
ENDBRANCH 76 80
ENDBRANCH 56 76
ENDBRANCH 55 59
ENDBRANCH 39 55
ENDBRANCH 38 42
ENDBRANCH 18 38
ENDBRANCH 17 21
ENDBRANCH 1 17
TORSDOF 18
ENDMDL
MODEL 46
REMARK VINA RESULT:      -6.5     44.639     49.711
ROOT
ATOM      1  C1  IDS C   1     133.574  45.972  49.7540  0.00  0.00     0.000 C
ATOM      2  C2  IDS C   1     132.417  45.852  48.7590  0.00  0.00     0.000 C
ATOM      3  C3  IDS C   1     131.107  46.289  49.3980  0.00  0.00     0.000 C
ATOM      4  C4  IDS C   1     130.801  45.445  50.6270  0.00  0.00     0.000 C
ATOM      5  C5  IDS C   1     132.084  45.171  51.4060  0.00  0.00     0.000 C
ATOM      6  O5  IDS C   1     133.076  46.143  51.0750  0.00  0.00     0.000 O
ATOM      7   O  IDS C   1     130.040  46.172  48.4460  0.00  0.00     0.000 O
ATOM      9  HD  IDS C   1     130.348  46.386  47.6650  0.00  0.00     0.000 HD
ENDROOT
BRANCH 2 9
ATOM      9   O  IDS C   1     132.647  46.714  47.5770  0.00  0.00     0.000 O
ATOM     10   S  IDS C   1     132.592  46.073  46.1180  0.00  0.00     0.000 S
ATOM     11   O  IDS C   1     132.840  47.162  45.1980  0.00  0.00     0.000 OA
ATOM     12   O  IDS C   1     133.634  45.067  46.0940  0.00  0.00     0.000 OA
ATOM     13   O  IDS C   1     131.266  45.514  45.9810  0.00  0.00     0.000 OA
ENDBRANCH 2 9
BRANCH 5 14
ATOM     14   C  IDS C   1     131.860  45.205  52.9090  0.00  0.00     0.000 C
ATOM     15   O  IDS C   1     132.604  44.590  53.6340  0.00  0.00     0.000 OA
ATOM     16   O  IDS C   1     130.932  45.849  53.3680  0.00  0.00     0.000 OA
ENDBRANCH 5 14
BRANCH 1 17
ATOM     17  O4  SGN C   2     134.771  46.466  49.4240  0.00  0.00     0.000 O
BRANCH 17 21
ATOM     18  C1  SGN C   2     137.756  49.400  49.3750  0.00  0.00     0.000 C
ATOM     19  C2  SGN C   2     136.597  49.616  50.3560  0.00  0.00     0.000 C
ATOM     20  C3  SGN C   2     135.839  48.299  50.5630  0.00  0.00     0.000 C
ATOM     21  C4  SGN C   2     135.414  47.721  49.2180  0.00  0.00     0.000 C
ATOM     22  C5  SGN C   2     136.648  47.549  48.3370  0.00  0.00     0.000 C
ATOM     23  O5  SGN C   2     137.309  48.824  48.1660  0.00  0.00     0.000 O
ATOM     24   O  SGN C   2     134.716  48.515  51.4000  0.00  0.00     0.000 O
ATOM     26  HD  SGN C   2     135.414  48.099  51.1000  0.00  0.00     0.000 HD
BRANCH 19 28
ATOM     26   N  SGN C   2     137.203  50.527  51.3370  0.00  0.00     0.000 N
ATOM     28  HD  SGN C   2     137.665  50.663  50.6170  0.00  0.00     0.000 HD
ATOM     28   O  SGN C   2     136.936  52.015  53.3210  0.00  0.00     0.000 OA
ATOM     29   S  SGN C   2     136.467  51.867  51.8350  0.00  0.00     0.000 S
ATOM     30   O  SGN C   2     136.992  52.944  51.0860  0.00  0.00     0.000 OA
ATOM     31   O  SGN C   2     135.067  51.620  51.8230  0.00  0.00     0.000 OA
ENDBRANCH 19 28
BRANCH 22 32
ATOM     32   C  SGN C   2     136.330  47.034  46.9550  0.00  0.00     0.000 C
ATOM     33   S  SGN C   2     137.581  46.298  44.8250  0.00  0.00     0.000 S
ATOM     34   O  SGN C   2     137.857  47.658  44.4350  0.00  0.00     0.000 OA
ATOM     35   O  SGN C   2     138.673  45.384  44.5620  0.00  0.00     0.000 OA
ATOM     36   O  SGN C   2     136.299  45.806  44.3780  0.00  0.00     0.000 OA
ATOM     37   O  SGN C   2     137.474  46.360  46.4170  0.00  0.00     0.000 O
ENDBRANCH 22 32
BRANCH 18 38
ATOM     38  O4  IDS C   3     138.959  48.854  49.5690  0.00  0.00     0.000 O
BRANCH 38 42
ATOM     39  C1  IDS C   3     141.776  47.389  51.0000  0.00  0.00     0.000 C
ATOM     40  C2  IDS C   3     141.073  48.579  51.6730  0.00  0.00     0.000 C
ATOM     41  C3  IDS C   3     140.896  49.742  50.6980  0.00  0.00     0.000 C
ATOM     42  C4  IDS C   3     140.316  49.265  49.3730  0.00  0.00     0.000 C
ATOM     43  C5  IDS C   3     141.145  48.093  48.8340  0.00  0.00     0.000 C
ATOM     44  O5  IDS C   3     141.131  47.034  49.7880  0.00  0.00     0.000 O
ATOM     45   O  IDS C   3     142.161  50.367  50.4730  0.00  0.00     0.000 O
ATOM     47  HD  IDS C   3     142.940  50.096  50.2070  0.00  0.00     0.000 HD
BRANCH 40 47
ATOM     47   O  IDS C   3     139.725  48.186  52.1470  0.00  0.00     0.000 O
ATOM     48   S  IDS C   3     139.206  48.685  53.5750  0.00  0.00     0.000 S
ATOM     49   O  IDS C   3     139.872  47.852  54.5530  0.00  0.00     0.000 OA
ATOM     50   O  IDS C   3     137.775  48.478  53.5540  0.00  0.00     0.000 OA
ATOM     51   O  IDS C   3     139.576  50.072  53.6800  0.00  0.00     0.000 OA
ENDBRANCH 40 47
BRANCH 43 52
ATOM     52   C  IDS C   3     140.642  47.584  47.5010  0.00  0.00     0.000 C
ATOM     53   O  IDS C   3     140.616  46.395  47.2810  0.00  0.00     0.000 OA
ATOM     54   O  IDS C   3     140.270  48.367  46.6650  0.00  0.00     0.000 OA
ENDBRANCH 43 52
BRANCH 39 55
ATOM     55  O4  SGN C   4     143.099  47.229  50.9770  0.00  0.00     0.000 O
BRANCH 55 59
ATOM     56  C1  SGN C   4     147.028  48.622  51.3370  0.00  0.00     0.000 C
ATOM     57  C2  SGN C   4     146.142  48.732  52.5900  0.00  0.00     0.000 C
ATOM     58  C3  SGN C   4     144.903  47.851  52.4550  0.00  0.00     0.000 C
ATOM     59  C4  SGN C   4     144.189  48.127  51.1360  0.00  0.00     0.000 C
ATOM     60  C5  SGN C   4     145.184  47.946  49.9920  0.00  0.00     0.000 C
ATOM     61  O5  SGN C   4     146.259  48.889  50.1750  0.00  0.00     0.000 O
ATOM     62   O  SGN C   4     144.032  48.084  53.5540  0.00  0.00     0.000 O
ATOM     64  HD  SGN C   4     144.823  48.257  53.8630  0.00  0.00     0.000 HD
BRANCH 57 66
ATOM     64   N  SGN C   4     146.172  49.343  53.9280  0.00  0.00     0.000 N
ATOM     66  HD  SGN C   4     146.507  49.141  54.7010  0.00  0.00     0.000 HD
ATOM     66   S  SGN C   4     147.559  49.594  54.6760  0.00  0.00     0.000 S
ATOM     67   O  SGN C   4     147.262  50.130  55.9540  0.00  0.00     0.000 OA
ATOM     68   O  SGN C   4     148.307  48.388  54.5800  0.00  0.00     0.000 OA
ATOM     69   O  SGN C   4     148.257  50.687  53.8050  0.00  0.00     0.000 OA
ENDBRANCH 57 66
BRANCH 60 70
ATOM     70   C  SGN C   4     144.589  48.184  48.6220  0.00  0.00     0.000 C
ATOM     71   O  SGN C   4     143.857  51.505  47.0250  0.00  0.00     0.000 OA
ATOM     72   O  SGN C   4     145.737  50.045  46.5970  0.00  0.00     0.000 OA
ATOM     73   O  SGN C   4     144.266  49.577  48.4460  0.00  0.00     0.000 O
ATOM     74   S  SGN C   4     144.340  50.145  46.9530  0.00  0.00     0.000 S
ATOM     75   O  SGN C   4     143.483  49.268  46.1810  0.00  0.00     0.000 OA
ENDBRANCH 60 70
BRANCH 56 76
ATOM     76  O4  IDS C   5     148.079  47.869  50.9650  0.00  0.00     0.000 O
BRANCH 76 80
ATOM     77  C1  IDS C   5     147.269  44.338  49.0860  0.00  0.00     0.000 C
ATOM     78  C2  IDS C   5     147.653  44.199  50.5580  0.00  0.00     0.000 C
ATOM     79  C3  IDS C   5     147.502  45.535  51.2580  0.00  0.00     0.000 C
ATOM     80  C4  IDS C   5     148.510  46.528  50.6860  0.00  0.00     0.000 C
ATOM     81  C5  IDS C   5     148.637  46.309  49.1720  0.00  0.00     0.000 C
ATOM     82  O5  IDS C   5     147.458  45.685  48.6540  0.00  0.00     0.000 O
BRANCH 78 83
ATOM     83   O  IDS C   5     146.780  43.213  51.2370  0.00  0.00     0.000 O
ATOM     84   S  IDS C   5     147.415  41.892  51.8670  0.00  0.00     0.000 S
ATOM     85   O  IDS C   5     148.261  41.335  50.8460  0.00  0.00     0.000 OA
ATOM     86   O  IDS C   5     148.146  42.340  53.0280  0.00  0.00     0.000 OA
ATOM     87   O  IDS C   5     146.297  41.045  52.2060  0.00  0.00     0.000 OA
ENDBRANCH 78 83
BRANCH 81 88
ATOM     88   C  IDS C   5     148.864  47.585  48.3820  0.00  0.00     0.000 C
ATOM     89   O  IDS C   5     148.017  47.980  47.6260  0.00  0.00     0.000 OA
ATOM     90   O  IDS C   5     149.897  48.199  48.5200  0.00  0.00     0.000 OA
ENDBRANCH 81 88
ENDBRANCH 76 80
ENDBRANCH 56 76
ENDBRANCH 55 59
ENDBRANCH 39 55
ENDBRANCH 38 42
ENDBRANCH 18 38
ENDBRANCH 17 21
ENDBRANCH 1 17
TORSDOF 18
ENDMDL
MODEL 47
REMARK VINA RESULT:      -6.5     23.912     28.628
ROOT
ATOM      1  C1  IDS C   1     181.987  24.153  60.5970  0.00  0.00     0.000 C
ATOM      2  C2  IDS C   1     183.024  23.727  61.6400  0.00  0.00     0.000 C
ATOM      3  C3  IDS C   1     183.664  22.401  61.2560  0.00  0.00     0.000 C
ATOM      4  C4  IDS C   1     182.607  21.313  61.1240  0.00  0.00     0.000 C
ATOM      5  C5  IDS C   1     181.352  21.879  60.4690  0.00  0.00     0.000 C
ATOM      6  O5  IDS C   1     181.671  23.064  59.7390  0.00  0.00     0.000 O
ATOM      7   O  IDS C   1     184.633  22.025  62.2440  0.00  0.00     0.000 O
ATOM      9  HD  IDS C   1     185.028  22.743  62.5250  0.00  0.00     0.000 HD
ENDROOT
BRANCH 2 9
ATOM      9   O  IDS C   1     184.107  24.730  61.7480  0.00  0.00     0.000 O
ATOM     10   S  IDS C   1     184.368  25.455  63.1440  0.00  0.00     0.000 S
ATOM     11   O  IDS C   1     185.482  26.351  62.9230  0.00  0.00     0.000 OA
ATOM     12   O  IDS C   1     183.137  26.152  63.4570  0.00  0.00     0.000 OA
ATOM     13   O  IDS C   1     184.674  24.401  64.0850  0.00  0.00     0.000 OA
ENDBRANCH 2 9
BRANCH 5 14
ATOM     14   C  IDS C   1     180.705  20.887  59.5160  0.00  0.00     0.000 C
ATOM     15   O  IDS C   1     181.334  19.927  59.1420  0.00  0.00     0.000 OA
ATOM     16   O  IDS C   1     179.561  21.070  59.1370  0.00  0.00     0.000 OA
ENDBRANCH 5 14
BRANCH 1 17
ATOM     17  O4  SGN C   2     181.877  25.408  60.1510  0.00  0.00     0.000 O
BRANCH 17 21
ATOM     18  C1  SGN C   2     182.408  28.233  57.1090  0.00  0.00     0.000 C
ATOM     19  C2  SGN C   2     182.953  26.825  56.8400  0.00  0.00     0.000 C
ATOM     20  C3  SGN C   2     182.324  25.829  57.8230  0.00  0.00     0.000 C
ATOM     21  C4  SGN C   2     182.523  26.308  59.2560  0.00  0.00     0.000 C
ATOM     22  C5  SGN C   2     181.939  27.711  59.3980  0.00  0.00     0.000 C
ATOM     23  O5  SGN C   2     182.582  28.605  58.4600  0.00  0.00     0.000 O
ATOM     24   O  SGN C   2     182.890  24.543  57.6340  0.00  0.00     0.000 O
ATOM     26  HD  SGN C   2     182.259  25.120  57.7720  0.00  0.00     0.000 HD
BRANCH 19 28
ATOM     26   N  SGN C   2     183.075  26.833  55.3760  0.00  0.00     0.000 N
ATOM     28  HD  SGN C   2     183.229  27.655  55.6000  0.00  0.00     0.000 HD
ATOM     28   O  SGN C   2     183.715  25.644  53.2790  0.00  0.00     0.000 OA
ATOM     29   S  SGN C   2     184.331  26.178  54.6150  0.00  0.00     0.000 S
ATOM     30   O  SGN C   2     185.235  27.220  54.3120  0.00  0.00     0.000 OA
ATOM     31   O  SGN C   2     184.772  25.068  55.3870  0.00  0.00     0.000 OA
ENDBRANCH 19 28
BRANCH 22 32
ATOM     32   C  SGN C   2     182.137  28.305  60.7710  0.00  0.00     0.000 C
ATOM     33   S  SGN C   2     181.895  30.585  61.9490  0.00  0.00     0.000 S
ATOM     34   O  SGN C   2     183.117  31.088  61.3750  0.00  0.00     0.000 OA
ATOM     35   O  SGN C   2     180.839  31.573  62.0280  0.00  0.00     0.000 OA
ATOM     36   O  SGN C   2     182.082  29.844  63.1750  0.00  0.00     0.000 OA
ATOM     37   O  SGN C   2     181.374  29.512  60.8870  0.00  0.00     0.000 O
ENDBRANCH 22 32
BRANCH 18 38
ATOM     38  O4  IDS C   3     181.241  28.785  56.7680  0.00  0.00     0.000 O
BRANCH 38 42
ATOM     39  C1  IDS C   3     178.784  30.486  54.9800  0.00  0.00     0.000 C
ATOM     40  C2  IDS C   3     180.232  31.000  55.0210  0.00  0.00     0.000 C
ATOM     41  C3  IDS C   3     180.735  31.123  56.4580  0.00  0.00     0.000 C
ATOM     42  C4  IDS C   3     180.434  29.862  57.2570  0.00  0.00     0.000 C
ATOM     43  C5  IDS C   3     178.949  29.505  57.1240  0.00  0.00     0.000 C
ATOM     44  O5  IDS C   3     178.640  29.302  55.7460  0.00  0.00     0.000 O
ATOM     45   O  IDS C   3     180.114  32.248  57.0820  0.00  0.00     0.000 O
ATOM     47  HD  IDS C   3     179.297  32.503  57.2120  0.00  0.00     0.000 HD
BRANCH 40 47
ATOM     47   O  IDS C   3     181.136  30.063  54.3120  0.00  0.00     0.000 O
ATOM     48   S  IDS C   3     182.016  30.584  53.0820  0.00  0.00     0.000 S
ATOM     49   O  IDS C   3     181.110  30.677  51.9570  0.00  0.00     0.000 OA
ATOM     50   O  IDS C   3     183.035  29.576  52.8900  0.00  0.00     0.000 OA
ATOM     51   O  IDS C   3     182.549  31.861  53.4760  0.00  0.00     0.000 OA
ENDBRANCH 40 47
BRANCH 43 52
ATOM     52   C  IDS C   3     178.569  28.274  57.9160  0.00  0.00     0.000 C
ATOM     53   O  IDS C   3     178.262  27.256  57.3390  0.00  0.00     0.000 OA
ATOM     54   O  IDS C   3     178.575  28.313  59.1200  0.00  0.00     0.000 OA
ENDBRANCH 43 52
BRANCH 39 55
ATOM     55  O4  SGN C   4     177.716  31.284  55.0090  0.00  0.00     0.000 O
BRANCH 55 59
ATOM     56  C1  SGN C   4     174.648  33.436  53.1480  0.00  0.00     0.000 C
ATOM     57  C2  SGN C   4     174.846  31.982  52.6870  0.00  0.00     0.000 C
ATOM     58  C3  SGN C   4     175.697  31.207  53.6890  0.00  0.00     0.000 C
ATOM     59  C4  SGN C   4     176.984  31.964  53.9990  0.00  0.00     0.000 C
ATOM     60  C5  SGN C   4     176.624  33.370  54.4730  0.00  0.00     0.000 C
ATOM     61  O5  SGN C   4     175.906  34.035  53.4140  0.00  0.00     0.000 O
ATOM     62   O  SGN C   4     175.988  29.916  53.1690  0.00  0.00     0.000 O
ATOM     64  HD  SGN C   4     175.231  30.130  52.8070  0.00  0.00     0.000 HD
BRANCH 57 66
ATOM     64   N  SGN C   4     173.838  32.373  51.6880  0.00  0.00     0.000 N
ATOM     66  HD  SGN C   4     173.653  32.160  50.8690  0.00  0.00     0.000 HD
ATOM     66   S  SGN C   4     172.940  31.269  50.9660  0.00  0.00     0.000 S
ATOM     67   O  SGN C   4     172.118  31.939  50.0250  0.00  0.00     0.000 OA
ATOM     68   O  SGN C   4     173.819  30.243  50.5210  0.00  0.00     0.000 OA
ATOM     69   O  SGN C   4     172.052  30.700  52.1190  0.00  0.00     0.000 OA
ENDBRANCH 57 66
BRANCH 60 70
ATOM     70   C  SGN C   4     177.825  34.223  54.8230  0.00  0.00     0.000 C
ATOM     71   O  SGN C   4     178.319  37.859  54.0250  0.00  0.00     0.000 OA
ATOM     72   O  SGN C   4     177.658  36.890  56.1400  0.00  0.00     0.000 OA
ATOM     73   O  SGN C   4     177.741  35.505  54.1710  0.00  0.00     0.000 O
ATOM     74   S  SGN C   4     178.428  36.735  54.9270  0.00  0.00     0.000 S
ATOM     75   O  SGN C   4     179.794  36.311  55.1600  0.00  0.00     0.000 OA
ENDBRANCH 60 70
BRANCH 56 76
ATOM     76  O4  IDS C   5     173.722  34.102  53.8610  0.00  0.00     0.000 O
BRANCH 76 80
ATOM     77  C1  IDS C   5     170.983  34.239  56.8830  0.00  0.00     0.000 C
ATOM     78  C2  IDS C   5     170.730  33.144  55.8470  0.00  0.00     0.000 C
ATOM     79  C3  IDS C   5     171.993  32.891  55.0480  0.00  0.00     0.000 C
ATOM     80  C4  IDS C   5     172.334  34.130  54.2260  0.00  0.00     0.000 C
ATOM     81  C5  IDS C   5     172.021  35.388  55.0490  0.00  0.00     0.000 C
ATOM     82  O5  IDS C   5     172.042  35.091  56.4480  0.00  0.00     0.000 O
BRANCH 78 83
ATOM     83   O  IDS C   5     170.332  31.879  56.5080  0.00  0.00     0.000 O
ATOM     84   S  IDS C   5     169.364  30.860  55.7540  0.00  0.00     0.000 S
ATOM     85   O  IDS C   5     168.264  31.648  55.2660  0.00  0.00     0.000 OA
ATOM     86   O  IDS C   5     170.165  30.288  54.6980  0.00  0.00     0.000 OA
ATOM     87   O  IDS C   5     168.972  29.887  56.7440  0.00  0.00     0.000 OA
ENDBRANCH 78 83
BRANCH 81 88
ATOM     88   C  IDS C   5     172.986  36.535  54.8110  0.00  0.00     0.000 C
ATOM     89   O  IDS C   5     173.869  36.748  55.5980  0.00  0.00     0.000 OA
ATOM     90   O  IDS C   5     172.861  37.229  53.8280  0.00  0.00     0.000 OA
ENDBRANCH 81 88
ENDBRANCH 76 80
ENDBRANCH 56 76
ENDBRANCH 55 59
ENDBRANCH 39 55
ENDBRANCH 38 42
ENDBRANCH 18 38
ENDBRANCH 17 21
ENDBRANCH 1 17
TORSDOF 18
ENDMDL
MODEL 48
REMARK VINA RESULT:      -6.5      8.751     16.830
ROOT
ATOM      1  C1  IDS C   1     159.171  35.299  78.6910  0.00  0.00     0.000 C
ATOM      2  C2  IDS C   1     158.074  35.911  79.5660  0.00  0.00     0.000 C
ATOM      3  C3  IDS C   1     157.317  36.992  78.8080  0.00  0.00     0.000 C
ATOM      4  C4  IDS C   1     158.266  38.091  78.3510  0.00  0.00     0.000 C
ATOM      5  C5  IDS C   1     159.586  37.483  77.8850  0.00  0.00     0.000 C
ATOM      6  O5  IDS C   1     159.400  36.109  77.5450  0.00  0.00     0.000 O
ATOM      7   O  IDS C   1     156.293  37.546  79.6460  0.00  0.00     0.000 O
ATOM      9  HD  IDS C   1     155.964  36.909  80.1310  0.00  0.00     0.000 HD
ENDROOT
BRANCH 2 9
ATOM      9   O  IDS C   1     157.091  34.882  79.9750  0.00  0.00     0.000 O
ATOM     10   S  IDS C   1     156.768  34.679  81.5240  0.00  0.00     0.000 S
ATOM     11   O  IDS C   1     155.776  33.628  81.5870  0.00  0.00     0.000 OA
ATOM     12   O  IDS C   1     158.025  34.305  82.1380  0.00  0.00     0.000 OA
ATOM     13   O  IDS C   1     156.267  35.952  81.9930  0.00  0.00     0.000 OA
ENDBRANCH 2 9
BRANCH 5 14
ATOM     14   C  IDS C   1     160.155  38.206  76.6760  0.00  0.00     0.000 C
ATOM     15   O  IDS C   1     160.649  39.298  76.8150  0.00  0.00     0.000 OA
ATOM     16   O  IDS C   1     160.106  37.679  75.5770  0.00  0.00     0.000 OA
ENDBRANCH 5 14
BRANCH 1 17
ATOM     17  O4  SGN C   2     159.412  33.986  78.6380  0.00  0.00     0.000 O
BRANCH 17 21
ATOM     18  C1  SGN C   2     159.508  30.232  76.7870  0.00  0.00     0.000 C
ATOM     19  C2  SGN C   2     159.286  31.443  75.8730  0.00  0.00     0.000 C
ATOM     20  C3  SGN C   2     159.694  32.728  76.6040  0.00  0.00     0.000 C
ATOM     21  C4  SGN C   2     158.972  32.822  77.9430  0.00  0.00     0.000 C
ATOM     22  C5  SGN C   2     159.273  31.569  78.7600  0.00  0.00     0.000 C
ATOM     23  O5  SGN C   2     158.852  30.395  78.0270  0.00  0.00     0.000 O
ATOM     24   O  SGN C   2     159.409  33.856  75.7940  0.00  0.00     0.000 O
ATOM     26  HD  SGN C   2     159.872  33.366  76.3370  0.00  0.00     0.000 HD
BRANCH 19 28
ATOM     26   N  SGN C   2     159.034  31.246  74.4390  0.00  0.00     0.000 N
ATOM     28  HD  SGN C   2     158.291  31.577  74.7350  0.00  0.00     0.000 HD
ATOM     28   O  SGN C   2     159.903  31.213  72.1010  0.00  0.00     0.000 OA
ATOM     29   S  SGN C   2     159.697  32.183  73.3130  0.00  0.00     0.000 S
ATOM     30   O  SGN C   2     158.739  33.158  72.9530  0.00  0.00     0.000 OA
ATOM     31   O  SGN C   2     160.972  32.593  73.7880  0.00  0.00     0.000 OA
ENDBRANCH 19 28
BRANCH 22 32
ATOM     32   C  SGN C   2     158.557  31.533  80.0880  0.00  0.00     0.000 C
ATOM     33   S  SGN C   2     158.722  30.306  82.3480  0.00  0.00     0.000 S
ATOM     34   O  SGN C   2     158.139  29.101  81.8140  0.00  0.00     0.000 OA
ATOM     35   O  SGN C   2     159.797  30.064  83.2880  0.00  0.00     0.000 OA
ATOM     36   O  SGN C   2     157.755  31.271  82.8160  0.00  0.00     0.000 OA
ATOM     37   O  SGN C   2     159.426  30.993  81.0900  0.00  0.00     0.000 O
ENDBRANCH 22 32
BRANCH 18 38
ATOM     38  O4  IDS C   3     160.631  29.581  77.0970  0.00  0.00     0.000 O
BRANCH 38 42
ATOM     39  C1  IDS C   3     163.314  27.427  77.6370  0.00  0.00     0.000 C
ATOM     40  C2  IDS C   3     162.176  27.547  78.6630  0.00  0.00     0.000 C
ATOM     41  C3  IDS C   3     161.930  29.006  79.0460  0.00  0.00     0.000 C
ATOM     42  C4  IDS C   3     161.833  29.891  77.8110  0.00  0.00     0.000 C
ATOM     43  C5  IDS C   3     163.052  29.660  76.9100  0.00  0.00     0.000 C
ATOM     44  O5  IDS C   3     163.097  28.286  76.5300  0.00  0.00     0.000 O
ATOM     45   O  IDS C   3     162.994  29.462  79.8840  0.00  0.00     0.000 O
ATOM     47  HD  IDS C   3     163.857  29.493  79.8150  0.00  0.00     0.000 HD
BRANCH 40 47
ATOM     47   O  IDS C   3     160.911  27.015  78.1040  0.00  0.00     0.000 O
ATOM     48   S  IDS C   3     160.832  25.490  77.6260  0.00  0.00     0.000 S
ATOM     49   O  IDS C   3     161.505  25.439  76.3460  0.00  0.00     0.000 OA
ATOM     50   O  IDS C   3     159.419  25.198  77.5200  0.00  0.00     0.000 OA
ATOM     51   O  IDS C   3     161.497  24.713  78.6380  0.00  0.00     0.000 OA
ENDBRANCH 40 47
BRANCH 43 52
ATOM     52   C  IDS C   3     163.038  30.529  75.6720  0.00  0.00     0.000 C
ATOM     53   O  IDS C   3     163.444  31.667  75.7290  0.00  0.00     0.000 OA
ATOM     54   O  IDS C   3     162.622  30.082  74.6330  0.00  0.00     0.000 OA
ENDBRANCH 43 52
BRANCH 39 55
ATOM     55  O4  SGN C   4     164.597  27.283  77.9690  0.00  0.00     0.000 O
BRANCH 55 59
ATOM     56  C1  SGN C   4     167.701  24.603  78.7980  0.00  0.00     0.000 C
ATOM     57  C2  SGN C   4     166.402  23.999  78.2360  0.00  0.00     0.000 C
ATOM     58  C3  SGN C   4     165.524  25.083  77.6180  0.00  0.00     0.000 C
ATOM     59  C4  SGN C   4     165.327  26.237  78.5940  0.00  0.00     0.000 C
ATOM     60  C5  SGN C   4     166.697  26.749  79.0330  0.00  0.00     0.000 C
ATOM     61  O5  SGN C   4     167.396  25.669  79.6830  0.00  0.00     0.000 O
ATOM     62   O  SGN C   4     164.272  24.525  77.2420  0.00  0.00     0.000 O
ATOM     64  HD  SGN C   4     164.829  23.863  77.1900  0.00  0.00     0.000 HD
BRANCH 57 66
ATOM     64   N  SGN C   4     165.837  22.736  77.7350  0.00  0.00     0.000 N
ATOM     66  HD  SGN C   4     166.069  22.132  77.1590  0.00  0.00     0.000 HD
ATOM     66   S  SGN C   4     166.699  21.393  77.7670  0.00  0.00     0.000 S
ATOM     67   O  SGN C   4     165.917  20.373  77.1680  0.00  0.00     0.000 OA
ATOM     68   O  SGN C   4     167.976  21.704  77.2240  0.00  0.00     0.000 OA
ATOM     69   O  SGN C   4     166.863  21.093  79.2910  0.00  0.00     0.000 OA
ENDBRANCH 57 66
BRANCH 60 70
ATOM     70   C  SGN C   4     166.635  27.909  80.0020  0.00  0.00     0.000 C
ATOM     71   O  SGN C   4     167.781  31.431  79.3820  0.00  0.00     0.000 OA
ATOM     72   O  SGN C   4     165.514  30.589  79.3370  0.00  0.00     0.000 OA
ATOM     73   O  SGN C   4     167.356  29.042  79.4810  0.00  0.00     0.000 O
ATOM     74   S  SGN C   4     166.832  30.486  79.9240  0.00  0.00     0.000 S
ATOM     75   O  SGN C   4     166.817  30.448  81.3720  0.00  0.00     0.000 OA
ENDBRANCH 60 70
BRANCH 56 76
ATOM     76  O4  IDS C   5     168.948  24.804  78.3330  0.00  0.00     0.000 O
BRANCH 76 80
ATOM     77  C1  IDS C   5     171.557  27.501  76.7270  0.00  0.00     0.000 C
ATOM     78  C2  IDS C   5     170.330  27.212  75.8620  0.00  0.00     0.000 C
ATOM     79  C3  IDS C   5     169.245  26.573  76.7060  0.00  0.00     0.000 C
ATOM     80  C4  IDS C   5     169.712  25.202  77.1850  0.00  0.00     0.000 C
ATOM     81  C5  IDS C   5     171.206  25.265  77.5300  0.00  0.00     0.000 C
ATOM     82  O5  IDS C   5     171.594  26.608  77.8400  0.00  0.00     0.000 O
BRANCH 78 83
ATOM     83   O  IDS C   5     169.793  28.465  75.2790  0.00  0.00     0.000 O
ATOM     84   S  IDS C   5     169.938  28.737  73.7140  0.00  0.00     0.000 S
ATOM     85   O  IDS C   5     171.314  28.472  73.3920  0.00  0.00     0.000 OA
ATOM     86   O  IDS C   5     169.020  27.817  73.0840  0.00  0.00     0.000 OA
ATOM     87   O  IDS C   5     169.563  30.116  73.5210  0.00  0.00     0.000 OA
ENDBRANCH 78 83
BRANCH 81 88
ATOM     88   C  IDS C   5     171.604  24.392  78.7060  0.00  0.00     0.000 C
ATOM     89   O  IDS C   5     171.725  23.206  78.5570  0.00  0.00     0.000 OA
ATOM     90   O  IDS C   5     171.799  24.897  79.7880  0.00  0.00     0.000 OA
ENDBRANCH 81 88
ENDBRANCH 76 80
ENDBRANCH 56 76
ENDBRANCH 55 59
ENDBRANCH 39 55
ENDBRANCH 38 42
ENDBRANCH 18 38
ENDBRANCH 17 21
ENDBRANCH 1 17
TORSDOF 18
ENDMDL
MODEL 49
REMARK VINA RESULT:      -6.5     28.166     33.471
ROOT
ATOM      1  C1  IDS C   1     161.996  34.372  47.0250  0.00  0.00     0.000 C
ATOM      2  C2  IDS C   1     160.702  33.723  47.5240  0.00  0.00     0.000 C
ATOM      3  C3  IDS C   1     159.895  33.163  46.3620  0.00  0.00     0.000 C
ATOM      4  C4  IDS C   1     159.554  34.262  45.3650  0.00  0.00     0.000 C
ATOM      5  C5  IDS C   1     160.739  35.210  45.2060  0.00  0.00     0.000 C
ATOM      6  O5  IDS C   1     161.944  34.563  45.6170  0.00  0.00     0.000 O
ATOM      7   O  IDS C   1     158.691  32.558  46.8550  0.00  0.00     0.000 O
ATOM      9  HD  IDS C   1     158.869  32.175  47.6110  0.00  0.00     0.000 HD
ENDROOT
BRANCH 2 9
ATOM      9   O  IDS C   1     160.995  32.602  48.4460  0.00  0.00     0.000 O
ATOM     10   S  IDS C   1     160.374  32.612  49.9140  0.00  0.00     0.000 S
ATOM     11   O  IDS C   1     160.830  31.394  50.5460  0.00  0.00     0.000 OA
ATOM     12   O  IDS C   1     160.894  33.806  50.5490  0.00  0.00     0.000 OA
ATOM     13   O  IDS C   1     158.939  32.648  49.7360  0.00  0.00     0.000 OA
ENDBRANCH 2 9
BRANCH 5 14
ATOM     14   C  IDS C   1     160.909  35.678  43.7710  0.00  0.00     0.000 C
ATOM     15   O  IDS C   1     161.931  36.232  43.4440  0.00  0.00     0.000 OA
ATOM     16   O  IDS C   1     160.014  35.494  42.9640  0.00  0.00     0.000 OA
ENDBRANCH 5 14
BRANCH 1 17
ATOM     17  O4  SGN C   2     163.175  34.205  47.6320  0.00  0.00     0.000 O
BRANCH 17 21
ATOM     18  C1  SGN C   2     166.728  32.150  48.4570  0.00  0.00     0.000 C
ATOM     19  C2  SGN C   2     165.901  31.642  47.2700  0.00  0.00     0.000 C
ATOM     20  C3  SGN C   2     164.895  32.717  46.8390  0.00  0.00     0.000 C
ATOM     21  C4  SGN C   2     164.057  33.160  48.0340  0.00  0.00     0.000 C
ATOM     22  C5  SGN C   2     164.988  33.646  49.1410  0.00  0.00     0.000 C
ATOM     23  O5  SGN C   2     165.899  32.587  49.5140  0.00  0.00     0.000 O
ATOM     24   O  SGN C   2     164.071  32.218  45.7990  0.00  0.00     0.000 O
ATOM     26  HD  SGN C   2     164.558  32.801  46.2150  0.00  0.00     0.000 HD
BRANCH 19 28
ATOM     26   N  SGN C   2     166.901  30.860  46.5310  0.00  0.00     0.000 N
ATOM     28  HD  SGN C   2     167.134  30.761  47.3590  0.00  0.00     0.000 HD
ATOM     28   O  SGN C   2     167.469  29.424  44.5720  0.00  0.00     0.000 OA
ATOM     29   S  SGN C   2     166.550  29.451  45.8390  0.00  0.00     0.000 S
ATOM     30   O  SGN C   2     166.966  28.429  46.7210  0.00  0.00     0.000 OA
ATOM     31   O  SGN C   2     165.194  29.504  45.4150  0.00  0.00     0.000 OA
ENDBRANCH 19 28
BRANCH 22 32
ATOM     32   C  SGN C   2     164.259  34.056  50.3980  0.00  0.00     0.000 C
ATOM     33   S  SGN C   2     164.651  35.540  52.4690  0.00  0.00     0.000 S
ATOM     34   O  SGN C   2     165.513  34.565  53.0890  0.00  0.00     0.000 OA
ATOM     35   O  SGN C   2     165.086  36.907  52.6620  0.00  0.00     0.000 OA
ATOM     36   O  SGN C   2     163.246  35.340  52.7380  0.00  0.00     0.000 OA
ATOM     37   O  SGN C   2     164.819  35.274  50.9030  0.00  0.00     0.000 O
ENDBRANCH 22 32
BRANCH 18 38
ATOM     38  O4  IDS C   3     167.764  32.992  48.4890  0.00  0.00     0.000 O
BRANCH 38 42
ATOM     39  C1  IDS C   3     170.355  35.022  49.6230  0.00  0.00     0.000 C
ATOM     40  C2  IDS C   3     169.508  35.426  48.4060  0.00  0.00     0.000 C
ATOM     41  C3  IDS C   3     169.453  34.301  47.3730  0.00  0.00     0.000 C
ATOM     42  C4  IDS C   3     169.119  32.968  48.0270  0.00  0.00     0.000 C
ATOM     43  C5  IDS C   3     170.068  32.714  49.2050  0.00  0.00     0.000 C
ATOM     44  O5  IDS C   3     169.934  33.775  50.1490  0.00  0.00     0.000 O
ATOM     45   O  IDS C   3     170.714  34.209  46.7080  0.00  0.00     0.000 O
ATOM     47  HD  IDS C   3     171.535  34.107  46.9630  0.00  0.00     0.000 HD
BRANCH 40 47
ATOM     47   O  IDS C   3     168.114  35.720  48.8170  0.00  0.00     0.000 O
ATOM     48   S  IDS C   3     167.720  37.195  49.2950  0.00  0.00     0.000 S
ATOM     49   O  IDS C   3     168.223  37.322  50.6460  0.00  0.00     0.000 OA
ATOM     50   O  IDS C   3     166.276  37.241  49.2360  0.00  0.00     0.000 OA
ATOM     51   O  IDS C   3     168.354  38.103  48.3770  0.00  0.00     0.000 OA
ENDBRANCH 40 47
BRANCH 43 52
ATOM     52   C  IDS C   3     169.812  31.390  49.8890  0.00  0.00     0.000 C
ATOM     53   O  IDS C   3     169.687  31.346  51.0910  0.00  0.00     0.000 OA
ATOM     54   O  IDS C   3     169.734  30.383  49.2310  0.00  0.00     0.000 OA
ENDBRANCH 43 52
BRANCH 39 55
ATOM     55  O4  SGN C   4     171.669  35.232  49.7110  0.00  0.00     0.000 O
BRANCH 55 59
ATOM     56  C1  SGN C   4     173.099  37.432  52.9700  0.00  0.00     0.000 C
ATOM     57  C2  SGN C   4     172.409  38.231  51.8510  0.00  0.00     0.000 C
ATOM     58  C3  SGN C   4     171.602  37.306  50.9440  0.00  0.00     0.000 C
ATOM     59  C4  SGN C   4     172.459  36.139  50.4670  0.00  0.00     0.000 C
ATOM     60  C5  SGN C   4     173.045  35.429  51.6860  0.00  0.00     0.000 C
ATOM     61  O5  SGN C   4     173.859  36.372  52.4110  0.00  0.00     0.000 O
ATOM     62   O  SGN C   4     171.098  38.043  49.8380  0.00  0.00     0.000 O
ATOM     64  HD  SGN C   4     171.169  38.627  50.4740  0.00  0.00     0.000 HD
BRANCH 57 66
ATOM     64   N  SGN C   4     171.763  39.260  52.6810  0.00  0.00     0.000 N
ATOM     66  HD  SGN C   4     172.026  39.889  53.2160  0.00  0.00     0.000 HD
ATOM     66   S  SGN C   4     172.168  40.796  52.5310  0.00  0.00     0.000 S
ATOM     67   O  SGN C   4     171.428  41.526  53.4960  0.00  0.00     0.000 OA
ATOM     68   O  SGN C   4     173.589  40.856  52.5480  0.00  0.00     0.000 OA
ATOM     69   O  SGN C   4     171.668  41.173  51.1000  0.00  0.00     0.000 OA
ENDBRANCH 57 66
BRANCH 60 70
ATOM     70   C  SGN C   4     173.913  34.239  51.3400  0.00  0.00     0.000 C
ATOM     71   O  SGN C   4     174.588  31.238  53.4960  0.00  0.00     0.000 OA
ATOM     72   O  SGN C   4     173.056  31.399  51.6310  0.00  0.00     0.000 OA
ATOM     73   O  SGN C   4     174.095  33.395  52.4940  0.00  0.00     0.000 O
ATOM     74   S  SGN C   4     174.307  31.836  52.2110  0.00  0.00     0.000 S
ATOM     75   O  SGN C   4     175.423  31.774  51.2880  0.00  0.00     0.000 OA
ENDBRANCH 60 70
BRANCH 56 76
ATOM     76  O4  IDS C   5     172.797  37.093  54.2360  0.00  0.00     0.000 O
BRANCH 76 80
ATOM     77  C1  IDS C   5     171.843  33.278  55.3290  0.00  0.00     0.000 C
ATOM     78  C2  IDS C   5     170.645  34.146  54.9440  0.00  0.00     0.000 C
ATOM     79  C3  IDS C   5     171.116  35.351  54.1540  0.00  0.00     0.000 C
ATOM     80  C4  IDS C   5     171.971  36.245  55.0480  0.00  0.00     0.000 C
ATOM     81  C5  IDS C   5     172.838  35.369  55.9640  0.00  0.00     0.000 C
ATOM     82  O5  IDS C   5     173.027  34.073  55.3870  0.00  0.00     0.000 O
BRANCH 78 83
ATOM     83   O  IDS C   5     169.692  33.381  54.1060  0.00  0.00     0.000 O
ATOM     84   S  IDS C   5     168.524  32.542  54.7990  0.00  0.00     0.000 S
ATOM     85   O  IDS C   5     169.153  31.773  55.8390  0.00  0.00     0.000 OA
ATOM     86   O  IDS C   5     167.598  33.529  55.3030  0.00  0.00     0.000 OA
ATOM     87   O  IDS C   5     167.955  31.728  53.7530  0.00  0.00     0.000 OA
ENDBRANCH 78 83
BRANCH 81 88
ATOM     88   C  IDS C   5     174.211  35.947  56.2500  0.00  0.00     0.000 C
ATOM     89   O  IDS C   5     175.170  35.536  55.6530  0.00  0.00     0.000 OA
ATOM     90   O  IDS C   5     174.333  36.821  57.0770  0.00  0.00     0.000 OA
ENDBRANCH 81 88
ENDBRANCH 76 80
ENDBRANCH 56 76
ENDBRANCH 55 59
ENDBRANCH 39 55
ENDBRANCH 38 42
ENDBRANCH 18 38
ENDBRANCH 17 21
ENDBRANCH 1 17
TORSDOF 18
ENDMDL
MODEL 50
REMARK VINA RESULT:      -6.4     21.093     28.833
ROOT
ATOM      1  C1  IDS C   1     150.392  31.712  86.4390  0.00  0.00     0.000 C
ATOM      2  C2  IDS C   1     150.716  31.979  87.9110  0.00  0.00     0.000 C
ATOM      3  C3  IDS C   1     152.216  31.904  88.1570  0.00  0.00     0.000 C
ATOM      4  C4  IDS C   1     152.757  30.536  87.7640  0.00  0.00     0.000 C
ATOM      5  C5  IDS C   1     152.073  30.049  86.4900  0.00  0.00     0.000 C
ATOM      6  O5  IDS C   1     151.520  31.156  85.7760  0.00  0.00     0.000 O
ATOM      7   O  IDS C   1     152.494  32.161  89.5410  0.00  0.00     0.000 O
ATOM      9  HD  IDS C   1     151.940  32.764  89.8220  0.00  0.00     0.000 HD
ENDROOT
BRANCH 2 9
ATOM      9   O  IDS C   1     150.265  33.330  88.3140  0.00  0.00     0.000 O
ATOM     10   S  IDS C   1     149.308  33.492  89.5790  0.00  0.00     0.000 S
ATOM     11   O  IDS C   1     149.066  34.912  89.7140  0.00  0.00     0.000 OA
ATOM     12   O  IDS C   1     148.110  32.743  89.2610  0.00  0.00     0.000 OA
ATOM     13   O  IDS C   1     150.038  32.939  90.6990  0.00  0.00     0.000 OA
ENDBRANCH 2 9
BRANCH 5 14
ATOM     14   C  IDS C   1     153.032  29.313  85.5700  0.00  0.00     0.000 C
ATOM     15   O  IDS C   1     152.888  28.129  85.3870  0.00  0.00     0.000 OA
ATOM     16   O  IDS C   1     153.937  29.923  85.0260  0.00  0.00     0.000 OA
ENDBRANCH 5 14
BRANCH 1 17
ATOM     17  O4  SGN C   2     149.499  32.428  85.7490  0.00  0.00     0.000 O
BRANCH 17 21
ATOM     18  C1  SGN C   2     148.224  35.369  83.0570  0.00  0.00     0.000 C
ATOM     19  C2  SGN C   2     149.682  34.910  82.9320  0.00  0.00     0.000 C
ATOM     20  C3  SGN C   2     149.871  33.576  83.6650  0.00  0.00     0.000 C
ATOM     21  C4  SGN C   2     149.378  33.692  85.1030  0.00  0.00     0.000 C
ATOM     22  C5  SGN C   2     147.922  34.149  85.0950  0.00  0.00     0.000 C
ATOM     23  O5  SGN C   2     147.811  35.416  84.4070  0.00  0.00     0.000 O
ATOM     24   O  SGN C   2     151.235  33.192  83.6250  0.00  0.00     0.000 O
ATOM     26  HD  SGN C   2     150.377  33.079  83.5820  0.00  0.00     0.000 HD
BRANCH 19 28
ATOM     26   N  SGN C   2     150.017  35.367  81.5770  0.00  0.00     0.000 N
ATOM     28  HD  SGN C   2     149.472  35.973  81.8690  0.00  0.00     0.000 HD
ATOM     28   O  SGN C   2     151.685  35.534  79.7300  0.00  0.00     0.000 OA
ATOM     29   S  SGN C   2     151.455  35.988  81.2110  0.00  0.00     0.000 S
ATOM     30   O  SGN C   2     151.330  37.394  81.2390  0.00  0.00     0.000 OA
ATOM     31   O  SGN C   2     152.422  35.351  82.0360  0.00  0.00     0.000 OA
ENDBRANCH 19 28
BRANCH 22 32
ATOM     32   C  SGN C   2     147.352  34.353  86.4770  0.00  0.00     0.000 C
ATOM     33   S  SGN C   2     145.934  36.087  87.7530  0.00  0.00     0.000 S
ATOM     34   O  SGN C   2     147.047  36.991  87.8990  0.00  0.00     0.000 OA
ATOM     35   O  SGN C   2     144.676  36.752  87.4880  0.00  0.00     0.000 OA
ATOM     36   O  SGN C   2     145.848  35.086  88.7910  0.00  0.00     0.000 OA
ATOM     37   O  SGN C   2     146.259  35.277  86.4160  0.00  0.00     0.000 O
ENDBRANCH 22 32
BRANCH 18 38
ATOM     38  O4  IDS C   3     147.134  34.967  82.3990  0.00  0.00     0.000 O
BRANCH 38 42
ATOM     39  C1  IDS C   3     144.973  33.531  80.0770  0.00  0.00     0.000 C
ATOM     40  C2  IDS C   3     146.213  34.318  79.6240  0.00  0.00     0.000 C
ATOM     41  C3  IDS C   3     146.259  35.699  80.2750  0.00  0.00     0.000 C
ATOM     42  C4  IDS C   3     146.017  35.610  81.7750  0.00  0.00     0.000 C
ATOM     43  C5  IDS C   3     144.736  34.812  82.0480  0.00  0.00     0.000 C
ATOM     44  O5  IDS C   3     144.871  33.506  81.4910  0.00  0.00     0.000 O
ATOM     45   O  IDS C   3     145.269  36.538  79.6760  0.00  0.00     0.000 O
ATOM     47  HD  IDS C   3     144.413  36.484  79.5540  0.00  0.00     0.000 HD
BRANCH 40 47
ATOM     47   O  IDS C   3     147.452  33.602  80.0090  0.00  0.00     0.000 O
ATOM     48   S  IDS C   3     148.552  33.262  78.8990  0.00  0.00     0.000 S
ATOM     49   O  IDS C   3     148.038  32.126  78.1650  0.00  0.00     0.000 OA
ATOM     50   O  IDS C   3     149.754  32.945  79.6390  0.00  0.00     0.000 OA
ATOM     51   O  IDS C   3     148.684  34.440  78.0830  0.00  0.00     0.000 OA
ENDBRANCH 40 47
BRANCH 43 52
ATOM     52   C  IDS C   3     144.415  34.705  83.5230  0.00  0.00     0.000 C
ATOM     53   O  IDS C   3     144.509  33.638  84.0840  0.00  0.00     0.000 OA
ATOM     54   O  IDS C   3     144.069  35.685  84.1310  0.00  0.00     0.000 OA
ENDBRANCH 43 52
BRANCH 39 55
ATOM     55  O4  SGN C   4     143.797  33.578  79.4490  0.00  0.00     0.000 O
BRANCH 55 59
ATOM     56  C1  SGN C   4     141.762  31.805  76.2520  0.00  0.00     0.000 C
ATOM     57  C2  SGN C   4     143.265  31.498  76.3660  0.00  0.00     0.000 C
ATOM     58  C3  SGN C   4     143.789  31.862  77.7520  0.00  0.00     0.000 C
ATOM     59  C4  SGN C   4     143.395  33.289  78.1180  0.00  0.00     0.000 C
ATOM     60  C5  SGN C   4     141.880  33.427  77.9900  0.00  0.00     0.000 C
ATOM     61  O5  SGN C   4     141.514  33.152  76.6230  0.00  0.00     0.000 O
ATOM     62   O  SGN C   4     145.202  31.709  77.7830  0.00  0.00     0.000 O
ATOM     64  HD  SGN C   4     144.935  31.140  77.1870  0.00  0.00     0.000 HD
BRANCH 57 66
ATOM     64   N  SGN C   4     143.118  30.150  75.7940  0.00  0.00     0.000 N
ATOM     66  HD  SGN C   4     142.962  29.817  75.0090  0.00  0.00     0.000 HD
ATOM     66   S  SGN C   4     144.002  29.697  74.5440  0.00  0.00     0.000 S
ATOM     67   O  SGN C   4     143.594  28.388  74.1870  0.00  0.00     0.000 OA
ATOM     68   O  SGN C   4     143.925  30.740  73.5810  0.00  0.00     0.000 OA
ATOM     69   O  SGN C   4     145.455  29.651  75.1160  0.00  0.00     0.000 OA
ENDBRANCH 57 66
BRANCH 60 70
ATOM     70   C  SGN C   4     141.361  34.805  78.3380  0.00  0.00     0.000 C
ATOM     71   O  SGN C   4     140.292  36.024  81.7260  0.00  0.00     0.000 OA
ATOM     72   O  SGN C   4     142.385  36.459  80.5960  0.00  0.00     0.000 OA
ATOM     73   O  SGN C   4     140.859  34.830  79.6890  0.00  0.00     0.000 O
ATOM     74   S  SGN C   4     140.964  36.225  80.4640  0.00  0.00     0.000 S
ATOM     75   O  SGN C   4     140.299  37.180  79.6000  0.00  0.00     0.000 OA
ENDBRANCH 60 70
BRANCH 56 76
ATOM     76  O4  IDS C   5     140.622  31.115  76.4390  0.00  0.00     0.000 O
BRANCH 76 80
ATOM     77  C1  IDS C   5     137.703  28.551  77.6890  0.00  0.00     0.000 C
ATOM     78  C2  IDS C   5     139.098  27.932  77.6070  0.00  0.00     0.000 C
ATOM     79  C3  IDS C   5     140.146  29.028  77.5710  0.00  0.00     0.000 C
ATOM     80  C4  IDS C   5     140.001  29.830  76.2810  0.00  0.00     0.000 C
ATOM     81  C5  IDS C   5     138.511  29.992  75.9470  0.00  0.00     0.000 C
ATOM     82  O5  IDS C   5     137.715  29.864  77.1280  0.00  0.00     0.000 O
BRANCH 78 83
ATOM     83   O  IDS C   5     139.360  27.072  78.7850  0.00  0.00     0.000 O
ATOM     84   S  IDS C   5     139.382  25.486  78.6190  0.00  0.00     0.000 S
ATOM     85   O  IDS C   5     138.191  25.148  77.8870  0.00  0.00     0.000 OA
ATOM     86   O  IDS C   5     140.596  25.198  77.8910  0.00  0.00     0.000 OA
ATOM     87   O  IDS C   5     139.399  24.953  79.9590  0.00  0.00     0.000 OA
ENDBRANCH 78 83
BRANCH 81 88
ATOM     88   C  IDS C   5     138.166  31.323  75.3050  0.00  0.00     0.000 C
ATOM     89   O  IDS C   5     138.391  31.501  74.1370  0.00  0.00     0.000 OA
ATOM     90   O  IDS C   5     137.664  32.198  75.9720  0.00  0.00     0.000 OA
ENDBRANCH 81 88
ENDBRANCH 76 80
ENDBRANCH 56 76
ENDBRANCH 55 59
ENDBRANCH 39 55
ENDBRANCH 38 42
ENDBRANCH 18 38
ENDBRANCH 17 21
ENDBRANCH 1 17
TORSDOF 18
ENDMDL
MODEL 51
REMARK VINA RESULT:      -6.4     44.620     50.576
ROOT
ATOM      1  C1  IDS C   1     134.876  43.455  64.9310  0.00  0.00     0.000 C
ATOM      2  C2  IDS C   1     135.333  44.081  66.2520  0.00  0.00     0.000 C
ATOM      3  C3  IDS C   1     136.773  44.564  66.1510  0.00  0.00     0.000 C
ATOM      4  C4  IDS C   1     137.702  43.413  65.7920  0.00  0.00     0.000 C
ATOM      5  C5  IDS C   1     137.032  42.499  64.7700  0.00  0.00     0.000 C
ATOM      6  O5  IDS C   1     135.993  43.203  64.0890  0.00  0.00     0.000 O
ATOM      7   O  IDS C   1     137.177  45.149  67.3970  0.00  0.00     0.000 O
ATOM      9  HD  IDS C   1     136.498  45.569  67.7330  0.00  0.00     0.000 HD
ENDROOT
BRANCH 2 9
ATOM      9   O  IDS C   1     134.494  45.249  66.6010  0.00  0.00     0.000 O
ATOM     10   S  IDS C   1     133.789  45.308  68.0300  0.00  0.00     0.000 S
ATOM     11   O  IDS C   1     133.066  46.560  68.0640  0.00  0.00     0.000 OA
ATOM     12   O  IDS C   1     132.917  44.152  68.0830  0.00  0.00     0.000 OA
ATOM     13   O  IDS C   1     134.859  45.252  69.0010  0.00  0.00     0.000 OA
ENDBRANCH 2 9
BRANCH 5 14
ATOM     14   C  IDS C   1     138.016  41.976  63.7370  0.00  0.00     0.000 C
ATOM     15   O  IDS C   1     137.691  41.934  62.5750  0.00  0.00     0.000 OA
ATOM     16   O  IDS C   1     139.122  41.602  64.0890  0.00  0.00     0.000 OA
ENDBRANCH 5 14
BRANCH 1 17
ATOM     17  O4  SGN C   2     133.675  43.688  64.3940  0.00  0.00     0.000 O
BRANCH 17 21
ATOM     18  C1  SGN C   2     130.971  45.359  61.6690  0.00  0.00     0.000 C
ATOM     19  C2  SGN C   2     132.443  45.320  61.2400  0.00  0.00     0.000 C
ATOM     20  C3  SGN C   2     133.214  44.327  62.1180  0.00  0.00     0.000 C
ATOM     21  C4  SGN C   2     133.007  44.658  63.5920  0.00  0.00     0.000 C
ATOM     22  C5  SGN C   2     131.511  44.661  63.8950  0.00  0.00     0.000 C
ATOM     23  O5  SGN C   2     130.843  45.626  63.0500  0.00  0.00     0.000 O
ATOM     24   O  SGN C   2     134.591  44.354  61.7810  0.00  0.00     0.000 O
ATOM     26  HD  SGN C   2     133.832  43.993  61.9910  0.00  0.00     0.000 HD
BRANCH 19 28
ATOM     26   N  SGN C   2     132.327  45.486  59.7850  0.00  0.00     0.000 N
ATOM     28  HD  SGN C   2     131.668  45.953  60.0980  0.00  0.00     0.000 HD
ATOM     28   O  SGN C   2     133.440  45.661  57.5590  0.00  0.00     0.000 OA
ATOM     29   S  SGN C   2     133.350  46.394  58.9390  0.00  0.00     0.000 S
ATOM     30   O  SGN C   2     132.741  47.653  58.7440  0.00  0.00     0.000 OA
ATOM     31   O  SGN C   2     134.620  46.319  59.5750  0.00  0.00     0.000 OA
ENDBRANCH 19 28
BRANCH 22 32
ATOM     32   C  SGN C   2     131.191  45.036  65.3220  0.00  0.00     0.000 C
ATOM     33   S  SGN C   2     129.513  46.510  66.6090  0.00  0.00     0.000 S
ATOM     34   O  SGN C   2     130.216  47.723  66.2730  0.00  0.00     0.000 OA
ATOM     35   O  SGN C   2     128.072  46.650  66.5890  0.00  0.00     0.000 OA
ATOM     36   O  SGN C   2     130.011  45.848  67.7920  0.00  0.00     0.000 OA
ATOM     37   O  SGN C   2     129.844  45.517  65.4030  0.00  0.00     0.000 O
ENDBRANCH 22 32
BRANCH 18 38
ATOM     38  O4  IDS C   3     129.975  44.509  61.4100  0.00  0.00     0.000 O
BRANCH 38 42
ATOM     39  C1  IDS C   3     127.446  42.811  59.7230  0.00  0.00     0.000 C
ATOM     40  C2  IDS C   3     127.641  44.325  59.5420  0.00  0.00     0.000 C
ATOM     41  C3  IDS C   3     127.682  45.042  60.8910  0.00  0.00     0.000 C
ATOM     42  C4  IDS C   3     128.626  44.342  61.8580  0.00  0.00     0.000 C
ATOM     43  C5  IDS C   3     128.280  42.850  61.9340  0.00  0.00     0.000 C
ATOM     44  O5  IDS C   3     128.394  42.278  60.6320  0.00  0.00     0.000 O
ATOM     45   O  IDS C   3     126.365  45.083  61.4450  0.00  0.00     0.000 O
ATOM     47  HD  IDS C   3     125.763  44.490  61.6350  0.00  0.00     0.000 HD
BRANCH 40 47
ATOM     47   O  IDS C   3     128.921  44.605  58.8500  0.00  0.00     0.000 O
ATOM     48   S  IDS C   3     128.929  44.886  57.2750  0.00  0.00     0.000 S
ATOM     49   O  IDS C   3     128.785  43.594  56.6400  0.00  0.00     0.000 OA
ATOM     50   O  IDS C   3     130.213  45.495  57.0040  0.00  0.00     0.000 OA
ATOM     51   O  IDS C   3     127.820  45.764  57.0130  0.00  0.00     0.000 OA
ENDBRANCH 40 47
BRANCH 43 52
ATOM     52   C  IDS C   3     129.162  42.092  62.9010  0.00  0.00     0.000 C
ATOM     53   O  IDS C   3     130.001  41.329  62.4810  0.00  0.00     0.000 OA
ATOM     54   O  IDS C   3     129.025  42.254  64.0870  0.00  0.00     0.000 OA
ENDBRANCH 43 52
BRANCH 39 55
ATOM     55  O4  SGN C   4     126.251  42.221  59.7780  0.00  0.00     0.000 O
BRANCH 55 59
ATOM     56  C1  SGN C   4     122.271  41.930  58.5210  0.00  0.00     0.000 C
ATOM     57  C2  SGN C   4     123.285  42.437  57.4820  0.00  0.00     0.000 C
ATOM     58  C3  SGN C   4     124.713  42.125  57.9210  0.00  0.00     0.000 C
ATOM     59  C4  SGN C   4     124.955  42.611  59.3460  0.00  0.00     0.000 C
ATOM     60  C5  SGN C   4     123.895  41.999  60.2590  0.00  0.00     0.000 C
ATOM     61  O5  SGN C   4     122.599  42.436  59.8050  0.00  0.00     0.000 O
ATOM     62   O  SGN C   4     125.631  42.732  57.0220  0.00  0.00     0.000 O
ATOM     64  HD  SGN C   4     124.924  42.585  56.5430  0.00  0.00     0.000 HD
BRANCH 57 66
ATOM     64   N  SGN C   4     122.577  41.839  56.3380  0.00  0.00     0.000 N
ATOM     66  HD  SGN C   4     121.837  41.988  55.9140  0.00  0.00     0.000 HD
ATOM     66   S  SGN C   4     122.126  42.741  55.1010  0.00  0.00     0.000 S
ATOM     67   O  SGN C   4     121.422  41.904  54.2000  0.00  0.00     0.000 OA
ATOM     68   O  SGN C   4     121.482  43.890  55.6370  0.00  0.00     0.000 OA
ATOM     69   O  SGN C   4     123.477  43.182  54.4520  0.00  0.00     0.000 OA
ENDBRANCH 57 66
BRANCH 60 70
ATOM     70   C  SGN C   4     124.036  42.400  61.7120  0.00  0.00     0.000 C
ATOM     71   O  SGN C   4     121.465  42.001  64.4210  0.00  0.00     0.000 OA
ATOM     72   O  SGN C   4     123.404  40.614  64.0120  0.00  0.00     0.000 OA
ATOM     73   O  SGN C   4     122.772  42.282  62.3930  0.00  0.00     0.000 O
ATOM     74   S  SGN C   4     122.831  41.940  63.9530  0.00  0.00     0.000 S
ATOM     75   O  SGN C   4     123.684  42.963  64.5250  0.00  0.00     0.000 OA
ENDBRANCH 60 70
BRANCH 56 76
ATOM     76  O4  IDS C   5     121.557  40.803  58.6980  0.00  0.00     0.000 O
BRANCH 76 80
ATOM     77  C1  IDS C   5     119.959  37.174  59.6660  0.00  0.00     0.000 C
ATOM     78  C2  IDS C   5     121.485  37.193  59.5810  0.00  0.00     0.000 C
ATOM     79  C3  IDS C   5     121.987  38.622  59.6580  0.00  0.00     0.000 C
ATOM     80  C4  IDS C   5     121.521  39.394  58.4270  0.00  0.00     0.000 C
ATOM     81  C5  IDS C   5     120.096  38.955  58.0610  0.00  0.00     0.000 C
ATOM     82  O5  IDS C   5     119.426  38.416  59.2050  0.00  0.00     0.000 O
BRANCH 78 83
ATOM     83   O  IDS C   5     122.082  36.426  60.6990  0.00  0.00     0.000 O
ATOM     84   S  IDS C   5     123.233  35.361  60.4040  0.00  0.00     0.000 S
ATOM     85   O  IDS C   5     122.755  34.552  59.3150  0.00  0.00     0.000 OA
ATOM     86   O  IDS C   5     124.396  36.146  60.0600  0.00  0.00     0.000 OA
ATOM     87   O  IDS C   5     123.404  34.622  61.6310  0.00  0.00     0.000 OA
ENDBRANCH 78 83
BRANCH 81 88
ATOM     88   C  IDS C   5     119.230  40.072  57.5090  0.00  0.00     0.000 C
ATOM     89   O  IDS C   5     118.286  40.466  58.1400  0.00  0.00     0.000 OA
ATOM     90   O  IDS C   5     119.496  40.561  56.4350  0.00  0.00     0.000 OA
ENDBRANCH 81 88
ENDBRANCH 76 80
ENDBRANCH 56 76
ENDBRANCH 55 59
ENDBRANCH 39 55
ENDBRANCH 38 42
ENDBRANCH 18 38
ENDBRANCH 17 21
ENDBRANCH 1 17
TORSDOF 18
ENDMDL
MODEL 52
REMARK VINA RESULT:      -6.4     25.362     31.346
ROOT
ATOM      1  C1  IDS C   1     175.960  38.863  64.4450  0.00  0.00     0.000 C
ATOM      2  C2  IDS C   1     175.343  39.166  65.8140  0.00  0.00     0.000 C
ATOM      3  C3  IDS C   1     176.322  39.934  66.6890  0.00  0.00     0.000 C
ATOM      4  C4  IDS C   1     177.608  39.142  66.8820  0.00  0.00     0.000 C
ATOM      5  C5  IDS C   1     177.990  38.442  65.5810  0.00  0.00     0.000 C
ATOM      6  O5  IDS C   1     177.364  39.088  64.4730  0.00  0.00     0.000 O
ATOM      7   O  IDS C   1     175.721  40.209  67.9630  0.00  0.00     0.000 O
ATOM      9  HD  IDS C   1     174.880  40.373  67.8370  0.00  0.00     0.000 HD
ENDROOT
BRANCH 2 9
ATOM      9   O  IDS C   1     174.125  39.995  65.6720  0.00  0.00     0.000 O
ATOM     10   S  IDS C   1     172.736  39.450  66.2340  0.00  0.00     0.000 S
ATOM     11   O  IDS C   1     171.763  40.483  65.9560  0.00  0.00     0.000 OA
ATOM     12   O  IDS C   1     172.478  38.222  65.5100  0.00  0.00     0.000 OA
ATOM     13   O  IDS C   1     172.940  39.237  67.6500  0.00  0.00     0.000 OA
ENDBRANCH 2 9
BRANCH 5 14
ATOM     14   C  IDS C   1     179.492  38.441  65.3510  0.00  0.00     0.000 C
ATOM     15   O  IDS C   1     179.925  38.709  64.2570  0.00  0.00     0.000 OA
ATOM     16   O  IDS C   1     180.245  38.168  66.2710  0.00  0.00     0.000 OA
ENDBRANCH 5 14
BRANCH 1 17
ATOM     17  O4  SGN C   2     175.286  38.994  63.2990  0.00  0.00     0.000 O
BRANCH 17 21
ATOM     18  C1  SGN C   2     174.419  40.762  59.6040  0.00  0.00     0.000 C
ATOM     19  C2  SGN C   2     175.750  41.154  60.2580  0.00  0.00     0.000 C
ATOM     20  C3  SGN C   2     176.113  40.138  61.3470  0.00  0.00     0.000 C
ATOM     21  C4  SGN C   2     174.959  39.989  62.3320  0.00  0.00     0.000 C
ATOM     22  C5  SGN C   2     173.699  39.595  61.5670  0.00  0.00     0.000 C
ATOM     23  O5  SGN C   2     173.400  40.597  60.5680  0.00  0.00     0.000 O
ATOM     24   O  SGN C   2     177.298  40.545  62.0110  0.00  0.00     0.000 O
ATOM     26  HD  SGN C   2     176.749  39.989  61.6370  0.00  0.00     0.000 HD
BRANCH 19 28
ATOM     26   N  SGN C   2     176.496  41.682  59.1070  0.00  0.00     0.000 N
ATOM     28  HD  SGN C   2     175.672  41.876  58.9250  0.00  0.00     0.000 HD
ATOM     28   O  SGN C   2     178.578  42.717  58.2020  0.00  0.00     0.000 OA
ATOM     29   S  SGN C   2     177.411  43.001  59.2070  0.00  0.00     0.000 S
ATOM     30   O  SGN C   2     176.648  44.085  58.7200  0.00  0.00     0.000 OA
ATOM     31   O  SGN C   2     177.948  43.054  60.5230  0.00  0.00     0.000 OA
ENDBRANCH 19 28
BRANCH 22 32
ATOM     32   C  SGN C   2     172.478  39.478  62.4460  0.00  0.00     0.000 C
ATOM     33   S  SGN C   2     170.055  40.354  62.5250  0.00  0.00     0.000 S
ATOM     34   O  SGN C   2     170.468  41.655  62.9890  0.00  0.00     0.000 OA
ATOM     35   O  SGN C   2     168.967  40.397  61.5710  0.00  0.00     0.000 OA
ATOM     36   O  SGN C   2     169.859  39.388  63.5790  0.00  0.00     0.000 OA
ATOM     37   O  SGN C   2     171.308  39.818  61.6920  0.00  0.00     0.000 O
ENDBRANCH 22 32
BRANCH 18 38
ATOM     38  O4  IDS C   3     174.151  39.831  58.6860  0.00  0.00     0.000 O
BRANCH 38 42
ATOM     39  C1  IDS C   3     172.959  37.717  56.1890  0.00  0.00     0.000 C
ATOM     40  C2  IDS C   3     172.467  37.585  57.6390  0.00  0.00     0.000 C
ATOM     41  C3  IDS C   3     173.641  37.475  58.6120  0.00  0.00     0.000 C
ATOM     42  C4  IDS C   3     174.685  38.549  58.3390  0.00  0.00     0.000 C
ATOM     43  C5  IDS C   3     175.075  38.529  56.8560  0.00  0.00     0.000 C
ATOM     44  O5  IDS C   3     173.912  38.759  56.0640  0.00  0.00     0.000 O
ATOM     45   O  IDS C   3     174.236  36.182  58.4920  0.00  0.00     0.000 O
ATOM     47  HD  IDS C   3     174.568  35.720  57.8400  0.00  0.00     0.000 HD
BRANCH 40 47
ATOM     47   O  IDS C   3     171.675  38.775  58.0300  0.00  0.00     0.000 O
ATOM     48   S  IDS C   3     170.143  38.892  57.5860  0.00  0.00     0.000 S
ATOM     49   O  IDS C   3     170.162  39.273  56.1900  0.00  0.00     0.000 OA
ATOM     50   O  IDS C   3     169.578  39.920  58.4330  0.00  0.00     0.000 OA
ATOM     51   O  IDS C   3     169.557  37.596  57.8020  0.00  0.00     0.000 OA
ENDBRANCH 40 47
BRANCH 43 52
ATOM     52   C  IDS C   3     176.134  39.554  56.5150  0.00  0.00     0.000 C
ATOM     53   O  IDS C   3     175.831  40.552  55.9020  0.00  0.00     0.000 OA
ATOM     54   O  IDS C   3     177.275  39.371  56.8560  0.00  0.00     0.000 OA
ENDBRANCH 43 52
BRANCH 39 55
ATOM     55  O4  SGN C   4     173.186  36.676  55.3880  0.00  0.00     0.000 O
BRANCH 55 59
ATOM     56  C1  SGN C   4     172.621  32.641  54.4350  0.00  0.00     0.000 C
ATOM     57  C2  SGN C   4     171.485  33.330  55.2110  0.00  0.00     0.000 C
ATOM     58  C3  SGN C   4     171.629  34.848  55.1460  0.00  0.00     0.000 C
ATOM     59  C4  SGN C   4     173.035  35.273  55.5530  0.00  0.00     0.000 C
ATOM     60  C5  SGN C   4     174.044  34.534  54.6770  0.00  0.00     0.000 C
ATOM     61  O5  SGN C   4     173.877  33.118  54.8900  0.00  0.00     0.000 O
ATOM     62   O  SGN C   4     170.658  35.454  55.9890  0.00  0.00     0.000 O
ATOM     64  HD  SGN C   4     170.297  34.705  55.7470  0.00  0.00     0.000 HD
BRANCH 57 66
ATOM     64   N  SGN C   4     170.920  32.082  55.7480  0.00  0.00     0.000 N
ATOM     66  HD  SGN C   4     170.237  31.863  56.2340  0.00  0.00     0.000 HD
ATOM     66   S  SGN C   4     169.396  31.697  55.4740  0.00  0.00     0.000 S
ATOM     67   O  SGN C   4     169.132  30.487  56.1640  0.00  0.00     0.000 OA
ATOM     68   O  SGN C   4     168.617  32.851  55.7650  0.00  0.00     0.000 OA
ATOM     69   O  SGN C   4     169.350  31.437  53.9350  0.00  0.00     0.000 OA
ENDBRANCH 57 66
BRANCH 60 70
ATOM     70   C  SGN C   4     175.486  34.880  54.9800  0.00  0.00     0.000 C
ATOM     71   O  SGN C   4     178.077  32.623  56.4970  0.00  0.00     0.000 OA
ATOM     72   O  SGN C   4     177.817  33.211  54.1650  0.00  0.00     0.000 OA
ATOM     73   O  SGN C   4     176.107  33.830  55.7460  0.00  0.00     0.000 O
ATOM     74   S  SGN C   4     177.680  33.632  55.5410  0.00  0.00     0.000 S
ATOM     75   O  SGN C   4     178.255  34.936  55.8060  0.00  0.00     0.000 OA
ENDBRANCH 60 70
BRANCH 56 76
ATOM     76  O4  IDS C   5     172.790  32.183  53.1810  0.00  0.00     0.000 O
BRANCH 76 80
ATOM     77  C1  IDS C   5     173.757  30.235  49.7270  0.00  0.00     0.000 C
ATOM     78  C2  IDS C   5     174.864  30.245  50.7810  0.00  0.00     0.000 C
ATOM     79  C3  IDS C   5     174.279  30.582  52.1380  0.00  0.00     0.000 C
ATOM     80  C4  IDS C   5     173.746  32.012  52.1240  0.00  0.00     0.000 C
ATOM     81  C5  IDS C   5     173.096  32.299  50.7620  0.00  0.00     0.000 C
ATOM     82  O5  IDS C   5     172.682  31.081  50.1370  0.00  0.00     0.000 O
BRANCH 78 83
ATOM     83   O  IDS C   5     175.515  28.917  50.8690  0.00  0.00     0.000 O
ATOM     84   S  IDS C   5     177.066  28.770  50.5240  0.00  0.00     0.000 S
ATOM     85   O  IDS C   5     177.258  29.446  49.2690  0.00  0.00     0.000 OA
ATOM     86   O  IDS C   5     177.759  29.402  51.6220  0.00  0.00     0.000 OA
ATOM     87   O  IDS C   5     177.317  27.351  50.4510  0.00  0.00     0.000 OA
ENDBRANCH 78 83
BRANCH 81 88
ATOM     88   C  IDS C   5     171.885  33.210  50.8380  0.00  0.00     0.000 C
ATOM     89   O  IDS C   5     170.780  32.745  50.7490  0.00  0.00     0.000 OA
ATOM     90   O  IDS C   5     172.039  34.400  50.9890  0.00  0.00     0.000 OA
ENDBRANCH 81 88
ENDBRANCH 76 80
ENDBRANCH 56 76
ENDBRANCH 55 59
ENDBRANCH 39 55
ENDBRANCH 38 42
ENDBRANCH 18 38
ENDBRANCH 17 21
ENDBRANCH 1 17
TORSDOF 18
ENDMDL
MODEL 53
REMARK VINA RESULT:      -6.3     22.850     26.366
ROOT
ATOM      1  C1  IDS C   1     181.103  24.472  60.7310  0.00  0.00     0.000 C
ATOM      2  C2  IDS C   1     181.245  22.955  60.5790  0.00  0.00     0.000 C
ATOM      3  C3  IDS C   1     180.692  22.493  59.2390  0.00  0.00     0.000 C
ATOM      4  C4  IDS C   1     179.225  22.876  59.1020  0.00  0.00     0.000 C
ATOM      5  C5  IDS C   1     178.989  24.263  59.6920  0.00  0.00     0.000 C
ATOM      6  O5  IDS C   1     180.217  24.989  59.7460  0.00  0.00     0.000 O
ATOM      7   O  IDS C   1     180.841  21.071  59.1180  0.00  0.00     0.000 O
ATOM      9  HD  IDS C   1     181.588  20.842  59.4910  0.00  0.00     0.000 HD
ENDROOT
BRANCH 2 9
ATOM      9   O  IDS C   1     182.668  22.551  60.6380  0.00  0.00     0.000 O
ATOM     10   S  IDS C   1     183.130  21.467  61.7120  0.00  0.00     0.000 S
ATOM     11   O  IDS C   1     184.550  21.284  61.5050  0.00  0.00     0.000 OA
ATOM     12   O  IDS C   1     182.818  22.041  63.0050  0.00  0.00     0.000 OA
ATOM     13   O  IDS C   1     182.364  20.274  61.4250  0.00  0.00     0.000 OA
ENDBRANCH 2 9
BRANCH 5 14
ATOM     14   C  IDS C   1     177.989  25.068  58.8810  0.00  0.00     0.000 C
ATOM     15   O  IDS C   1     177.547  24.608  57.8570  0.00  0.00     0.000 OA
ATOM     16   O  IDS C   1     177.643  26.171  59.2700  0.00  0.00     0.000 OA
ENDBRANCH 5 14
BRANCH 1 17
ATOM     17  O4  SGN C   2     182.070  25.247  61.2300  0.00  0.00     0.000 O
BRANCH 17 21
ATOM     18  C1  SGN C   2     185.424  27.735  60.9320  0.00  0.00     0.000 C
ATOM     19  C2  SGN C   2     184.713  27.380  59.6200  0.00  0.00     0.000 C
ATOM     20  C3  SGN C   2     183.308  26.843  59.9190  0.00  0.00     0.000 C
ATOM     21  C4  SGN C   2     183.387  25.690  60.9130  0.00  0.00     0.000 C
ATOM     22  C5  SGN C   2     184.106  26.167  62.1720  0.00  0.00     0.000 C
ATOM     23  O5  SGN C   2     185.428  26.644  61.8280  0.00  0.00     0.000 O
ATOM     24   O  SGN C   2     182.683  26.432  58.7140  0.00  0.00     0.000 O
ATOM     26  HD  SGN C   2     182.736  26.807  59.4940  0.00  0.00     0.000 HD
BRANCH 19 28
ATOM     26   N  SGN C   2     185.212  28.432  58.7230  0.00  0.00     0.000 N
ATOM     28  HD  SGN C   2     185.877  28.284  59.2570  0.00  0.00     0.000 HD
ATOM     28   O  SGN C   2     185.234  29.475  56.4570  0.00  0.00     0.000 OA
ATOM     29   S  SGN C   2     185.602  28.141  57.1910  0.00  0.00     0.000 S
ATOM     30   O  SGN C   2     187.003  27.966  57.1350  0.00  0.00     0.000 OA
ATOM     31   O  SGN C   2     184.746  27.111  56.7150  0.00  0.00     0.000 OA
ENDBRANCH 19 28
BRANCH 22 32
ATOM     32   C  SGN C   2     184.290  25.081  63.2030  0.00  0.00     0.000 C
ATOM     33   S  SGN C   2     186.205  23.944  64.5010  0.00  0.00     0.000 S
ATOM     34   O  SGN C   2     186.602  23.157  63.3610  0.00  0.00     0.000 OA
ATOM     35   O  SGN C   2     187.319  24.432  65.2880  0.00  0.00     0.000 OA
ATOM     36   O  SGN C   2     185.159  23.344  65.2960  0.00  0.00     0.000 OA
ATOM     37   O  SGN C   2     185.548  25.254  63.8660  0.00  0.00     0.000 O
ENDBRANCH 22 32
BRANCH 18 38
ATOM     38  O4  IDS C   3     185.291  28.804  61.7210  0.00  0.00     0.000 O
BRANCH 38 42
ATOM     39  C1  IDS C   3     185.498  31.915  63.2710  0.00  0.00     0.000 C
ATOM     40  C2  IDS C   3     186.762  31.093  62.9730  0.00  0.00     0.000 C
ATOM     41  C3  IDS C   3     186.639  29.672  63.5220  0.00  0.00     0.000 C
ATOM     42  C4  IDS C   3     185.308  29.044  63.1320  0.00  0.00     0.000 C
ATOM     43  C5  IDS C   3     184.159  29.984  63.5160  0.00  0.00     0.000 C
ATOM     44  O5  IDS C   3     184.331  31.231  62.8460  0.00  0.00     0.000 O
ATOM     45   O  IDS C   3     186.760  29.703  64.9450  0.00  0.00     0.000 O
ATOM     47  HD  IDS C   3     186.354  30.121  65.5850  0.00  0.00     0.000 HD
BRANCH 40 47
ATOM     47   O  IDS C   3     186.982  30.988  61.5110  0.00  0.00     0.000 O
ATOM     48   S  IDS C   3     187.305  32.303  60.6590  0.00  0.00     0.000 S
ATOM     49   O  IDS C   3     186.041  32.988  60.4930  0.00  0.00     0.000 OA
ATOM     50   O  IDS C   3     187.841  31.820  59.4050  0.00  0.00     0.000 OA
ATOM     51   O  IDS C   3     188.255  33.062  61.4260  0.00  0.00     0.000 OA
ENDBRANCH 40 47
BRANCH 43 52
ATOM     52   C  IDS C   3     182.798  29.412  63.1840  0.00  0.00     0.000 C
ATOM     53   O  IDS C   3     182.334  29.566  62.0780  0.00  0.00     0.000 OA
ATOM     54   O  IDS C   3     182.184  28.804  64.0230  0.00  0.00     0.000 OA
ENDBRANCH 43 52
BRANCH 39 55
ATOM     55  O4  SGN C   4     185.330  32.638  64.3790  0.00  0.00     0.000 O
BRANCH 55 59
ATOM     56  C1  SGN C   4     182.764  35.940  64.2650  0.00  0.00     0.000 C
ATOM     57  C2  SGN C   4     184.112  36.092  63.5400  0.00  0.00     0.000 C
ATOM     58  C3  SGN C   4     184.764  34.729  63.3170  0.00  0.00     0.000 C
ATOM     59  C4  SGN C   4     184.819  33.941  64.6210  0.00  0.00     0.000 C
ATOM     60  C5  SGN C   4     183.408  33.847  65.1980  0.00  0.00     0.000 C
ATOM     61  O5  SGN C   4     182.934  35.185  65.4540  0.00  0.00     0.000 O
ATOM     62   O  SGN C   4     186.069  34.908  62.7840  0.00  0.00     0.000 O
ATOM     64  HD  SGN C   4     185.627  35.602  62.5140  0.00  0.00     0.000 HD
BRANCH 57 66
ATOM     64   N  SGN C   4     183.524  37.017  62.5590  0.00  0.00     0.000 N
ATOM     66  HD  SGN C   4     183.282  37.849  62.5510  0.00  0.00     0.000 HD
ATOM     66   S  SGN C   4     184.228  38.413  62.2360  0.00  0.00     0.000 S
ATOM     67   O  SGN C   4     183.403  39.101  61.3110  0.00  0.00     0.000 OA
ATOM     68   O  SGN C   4     184.537  39.021  63.4840  0.00  0.00     0.000 OA
ATOM     69   O  SGN C   4     185.562  38.002  61.5360  0.00  0.00     0.000 OA
ENDBRANCH 57 66
BRANCH 60 70
ATOM     70   C  SGN C   4     183.330  33.074  66.4970  0.00  0.00     0.000 C
ATOM     71   O  SGN C   4     182.423  29.453  66.9140  0.00  0.00     0.000 OA
ATOM     72   O  SGN C   4     184.633  30.433  66.9550  0.00  0.00     0.000 OA
ATOM     73   O  SGN C   4     182.750  31.774  66.2760  0.00  0.00     0.000 O
ATOM     74   S  SGN C   4     183.229  30.603  67.2530  0.00  0.00     0.000 S
ATOM     75   O  SGN C   4     182.980  31.109  68.5880  0.00  0.00     0.000 OA
ENDBRANCH 60 70
BRANCH 56 76
ATOM     76  O4  IDS C   5     181.477  35.820  63.8880  0.00  0.00     0.000 O
BRANCH 76 80
ATOM     77  C1  IDS C   5     180.051  32.127  62.8930  0.00  0.00     0.000 C
ATOM     78  C2  IDS C   5     180.453  32.994  61.7010  0.00  0.00     0.000 C
ATOM     79  C3  IDS C   5     181.353  34.122  62.1650  0.00  0.00     0.000 C
ATOM     80  C4  IDS C   5     180.568  35.059  63.0780  0.00  0.00     0.000 C
ATOM     81  C5  IDS C   5     179.623  34.234  63.9630  0.00  0.00     0.000 C
ATOM     82  O5  IDS C   5     180.104  32.893  64.0970  0.00  0.00     0.000 O
BRANCH 78 83
ATOM     83   O  IDS C   5     181.188  32.192  60.6940  0.00  0.00     0.000 O
ATOM     84   S  IDS C   5     180.513  31.879  59.2840  0.00  0.00     0.000 S
ATOM     85   O  IDS C   5     179.189  31.398  59.5770  0.00  0.00     0.000 OA
ATOM     86   O  IDS C   5     180.516  33.137  58.5740  0.00  0.00     0.000 OA
ATOM     87   O  IDS C   5     181.354  30.887  58.6600  0.00  0.00     0.000 OA
ENDBRANCH 78 83
BRANCH 81 88
ATOM     88   C  IDS C   5     179.440  34.796  65.3610  0.00  0.00     0.000 C
ATOM     89   O  IDS C   5     178.767  35.777  65.5280  0.00  0.00     0.000 OA
ATOM     90   O  IDS C   5     179.973  34.251  66.3000  0.00  0.00     0.000 OA
ENDBRANCH 81 88
ENDBRANCH 76 80
ENDBRANCH 56 76
ENDBRANCH 55 59
ENDBRANCH 39 55
ENDBRANCH 38 42
ENDBRANCH 18 38
ENDBRANCH 17 21
ENDBRANCH 1 17
TORSDOF 18
ENDMDL
MODEL 54
REMARK VINA RESULT:      -6.3     13.367     16.877
ROOT
ATOM      1  C1  IDS C   1     179.867  28.085  68.9170  0.00  0.00     0.000 C
ATOM      2  C2  IDS C   1     180.770  26.894  69.2500  0.00  0.00     0.000 C
ATOM      3  C3  IDS C   1     182.237  27.272  69.1050  0.00  0.00     0.000 C
ATOM      4  C4  IDS C   1     182.532  27.746  67.6880  0.00  0.00     0.000 C
ATOM      5  C5  IDS C   1     181.375  28.593  67.1690  0.00  0.00     0.000 C
ATOM      6  O5  IDS C   1     180.611  29.104  68.2610  0.00  0.00     0.000 O
ATOM      7   O  IDS C   1     183.062  26.143  69.4250  0.00  0.00     0.000 O
ATOM      9  HD  IDS C   1     182.688  25.707  70.0730  0.00  0.00     0.000 HD
ENDROOT
BRANCH 2 9
ATOM      9   O  IDS C   1     180.560  26.447  70.6450  0.00  0.00     0.000 O
ATOM     10   S  IDS C   1     180.109  24.944  70.9270  0.00  0.00     0.000 S
ATOM     11   O  IDS C   1     180.006  24.823  72.3640  0.00  0.00     0.000 OA
ATOM     12   O  IDS C   1     178.835  24.787  70.2550  0.00  0.00     0.000 OA
ATOM     13   O  IDS C   1     181.148  24.108  70.3670  0.00  0.00     0.000 OA
ENDBRANCH 2 9
BRANCH 5 14
ATOM     14   C  IDS C   1     181.855  29.765  66.3280  0.00  0.00     0.000 C
ATOM     15   O  IDS C   1     181.592  30.891  66.6740  0.00  0.00     0.000 OA
ATOM     16   O  IDS C   1     182.497  29.558  65.3120  0.00  0.00     0.000 OA
ENDBRANCH 5 14
BRANCH 1 17
ATOM     17  O4  SGN C   2     178.791  28.407  69.6410  0.00  0.00     0.000 O
BRANCH 17 21
ATOM     18  C1  SGN C   2     176.569  30.842  72.2210  0.00  0.00     0.000 C
ATOM     19  C2  SGN C   2     177.833  31.461  71.6120  0.00  0.00     0.000 C
ATOM     20  C3  SGN C   2     178.283  30.635  70.4000  0.00  0.00     0.000 C
ATOM     21  C4  SGN C   2     178.437  29.170  70.7920  0.00  0.00     0.000 C
ATOM     22  C5  SGN C   2     177.120  28.670  71.3780  0.00  0.00     0.000 C
ATOM     23  O5  SGN C   2     176.758  29.476  72.5230  0.00  0.00     0.000 O
ATOM     24   O  SGN C   2     179.499  31.153  69.8880  0.00  0.00     0.000 O
ATOM     26  HD  SGN C   2     178.700  30.823  69.8510  0.00  0.00     0.000 HD
BRANCH 19 28
ATOM     26   N  SGN C   2     177.595  32.894  71.8340  0.00  0.00     0.000 N
ATOM     28  HD  SGN C   2     177.267  32.518  72.5420  0.00  0.00     0.000 HD
ATOM     28   O  SGN C   2     178.333  35.256  71.5230  0.00  0.00     0.000 OA
ATOM     29   S  SGN C   2     178.782  33.916  72.1970  0.00  0.00     0.000 S
ATOM     30   O  SGN C   2     178.778  34.092  73.5990  0.00  0.00     0.000 OA
ATOM     31   O  SGN C   2     179.961  33.455  71.5500  0.00  0.00     0.000 OA
ENDBRANCH 19 28
BRANCH 22 32
ATOM     32   C  SGN C   2     177.181  27.239  71.8540  0.00  0.00     0.000 C
ATOM     33   S  SGN C   2     176.692  25.885  73.9910  0.00  0.00     0.000 S
ATOM     34   O  SGN C   2     177.908  26.322  74.6290  0.00  0.00     0.000 OA
ATOM     35   O  SGN C   2     175.562  25.796  74.8920  0.00  0.00     0.000 OA
ATOM     36   O  SGN C   2     176.852  24.719  73.1540  0.00  0.00     0.000 OA
ATOM     37   O  SGN C   2     176.324  27.072  72.9890  0.00  0.00     0.000 O
ENDBRANCH 22 32
BRANCH 18 38
ATOM     38  O4  IDS C   3     175.297  30.915  71.8240  0.00  0.00     0.000 O
BRANCH 38 42
ATOM     39  C1  IDS C   3     171.868  31.326  71.3770  0.00  0.00     0.000 C
ATOM     40  C2  IDS C   3     172.508  29.928  71.3500  0.00  0.00     0.000 C
ATOM     41  C3  IDS C   3     173.679  29.875  70.3690  0.00  0.00     0.000 C
ATOM     42  C4  IDS C   3     174.620  31.055  70.5710  0.00  0.00     0.000 C
ATOM     43  C5  IDS C   3     173.823  32.365  70.5500  0.00  0.00     0.000 C
ATOM     44  O5  IDS C   3     172.844  32.332  71.5880  0.00  0.00     0.000 O
ATOM     45   O  IDS C   3     173.176  29.882  69.0320  0.00  0.00     0.000 O
ATOM     47  HD  IDS C   3     172.653  30.402  68.5770  0.00  0.00     0.000 HD
BRANCH 40 47
ATOM     47   O  IDS C   3     173.033  29.571  72.6890  0.00  0.00     0.000 O
ATOM     48   S  IDS C   3     172.020  29.177  73.8620  0.00  0.00     0.000 S
ATOM     49   O  IDS C   3     171.455  30.422  74.3350  0.00  0.00     0.000 OA
ATOM     50   O  IDS C   3     172.833  28.522  74.8630  0.00  0.00     0.000 OA
ATOM     51   O  IDS C   3     171.037  28.306  73.2740  0.00  0.00     0.000 OA
ENDBRANCH 40 47
BRANCH 43 52
ATOM     52   C  IDS C   3     174.699  33.587  70.7170  0.00  0.00     0.000 C
ATOM     53   O  IDS C   3     175.395  33.960  69.8010  0.00  0.00     0.000 OA
ATOM     54   O  IDS C   3     174.698  34.183  71.7640  0.00  0.00     0.000 OA
ENDBRANCH 43 52
BRANCH 39 55
ATOM     55  O4  SGN C   4     170.871  31.697  70.5730  0.00  0.00     0.000 O
BRANCH 55 59
ATOM     56  C1  SGN C   4     167.072  31.607  72.3210  0.00  0.00     0.000 C
ATOM     57  C2  SGN C   4     167.530  30.324  71.6070  0.00  0.00     0.000 C
ATOM     58  C3  SGN C   4     169.038  30.345  71.3700  0.00  0.00     0.000 C
ATOM     59  C4  SGN C   4     169.457  31.645  70.6920  0.00  0.00     0.000 C
ATOM     60  C5  SGN C   4     168.961  32.820  71.5320  0.00  0.00     0.000 C
ATOM     61  O5  SGN C   4     167.524  32.747  71.6080  0.00  0.00     0.000 O
ATOM     62   O  SGN C   4     169.412  29.224  70.5810  0.00  0.00     0.000 O
ATOM     64  HD  SGN C   4     168.704  28.963  71.0060  0.00  0.00     0.000 HD
BRANCH 57 66
ATOM     64   N  SGN C   4     166.361  29.794  72.3270  0.00  0.00     0.000 N
ATOM     66  HD  SGN C   4     165.581  29.485  72.1120  0.00  0.00     0.000 HD
ATOM     66   S  SGN C   4     165.758  28.364  71.9540  0.00  0.00     0.000 S
ATOM     67   O  SGN C   4     164.615  28.160  72.7670  0.00  0.00     0.000 OA
ATOM     68   O  SGN C   4     165.625  28.325  70.5390  0.00  0.00     0.000 OA
ATOM     69   O  SGN C   4     166.882  27.365  72.3790  0.00  0.00     0.000 OA
ENDBRANCH 57 66
BRANCH 60 70
ATOM     70   C  SGN C   4     169.326  34.174  70.9630  0.00  0.00     0.000 C
ATOM     71   O  SGN C   4     170.421  37.208  72.8880  0.00  0.00     0.000 OA
ATOM     72   O  SGN C   4     171.813  35.665  71.6510  0.00  0.00     0.000 OA
ATOM     73   O  SGN C   4     169.491  35.138  72.0210  0.00  0.00     0.000 O
ATOM     74   S  SGN C   4     170.530  36.323  71.7510  0.00  0.00     0.000 S
ATOM     75   O  SGN C   4     170.091  36.924  70.5070  0.00  0.00     0.000 OA
ENDBRANCH 60 70
BRANCH 56 76
ATOM     76  O4  IDS C   5     166.875  31.978  73.6000  0.00  0.00     0.000 O
BRANCH 76 80
ATOM     77  C1  IDS C   5     166.526  32.907  77.5590  0.00  0.00     0.000 C
ATOM     78  C2  IDS C   5     167.171  33.999  76.7060  0.00  0.00     0.000 C
ATOM     79  C3  IDS C   5     166.859  33.759  75.2410  0.00  0.00     0.000 C
ATOM     80  C4  IDS C   5     167.526  32.465  74.7830  0.00  0.00     0.000 C
ATOM     81  C5  IDS C   5     167.443  31.424  75.9080  0.00  0.00     0.000 C
ATOM     82  O5  IDS C   5     166.353  31.719  76.7870  0.00  0.00     0.000 O
BRANCH 78 83
ATOM     83   O  IDS C   5     166.650  35.334  77.0820  0.00  0.00     0.000 O
ATOM     84   S  IDS C   5     167.664  36.489  77.5110  0.00  0.00     0.000 S
ATOM     85   O  IDS C   5     168.548  35.899  78.4800  0.00  0.00     0.000 OA
ATOM     86   O  IDS C   5     168.334  36.875  76.2920  0.00  0.00     0.000 OA
ATOM     87   O  IDS C   5     166.846  37.545  78.0550  0.00  0.00     0.000 OA
ENDBRANCH 78 83
BRANCH 81 88
ATOM     88   C  IDS C   5     167.261  29.999  75.4170  0.00  0.00     0.000 C
ATOM     89   O  IDS C   5     168.199  29.397  74.9670  0.00  0.00     0.000 OA
ATOM     90   O  IDS C   5     166.171  29.478  75.4820  0.00  0.00     0.000 OA
ENDBRANCH 81 88
ENDBRANCH 76 80
ENDBRANCH 56 76
ENDBRANCH 55 59
ENDBRANCH 39 55
ENDBRANCH 38 42
ENDBRANCH 18 38
ENDBRANCH 17 21
ENDBRANCH 1 17
TORSDOF 18
ENDMDL
MODEL 55
REMARK VINA RESULT:      -6.3     15.229     20.884
ROOT
ATOM      1  C1  IDS C   1     156.045  27.872  85.7730  0.00  0.00     0.000 C
ATOM      2  C2  IDS C   1     154.777  27.954  86.6280  0.00  0.00     0.000 C
ATOM      3  C3  IDS C   1     154.946  27.172  87.9220  0.00  0.00     0.000 C
ATOM      4  C4  IDS C   1     155.261  25.711  87.6290  0.00  0.00     0.000 C
ATOM      5  C5  IDS C   1     156.207  25.609  86.4370  0.00  0.00     0.000 C
ATOM      6  O5  IDS C   1     156.901  26.843  86.2530  0.00  0.00     0.000 O
ATOM      7   O  IDS C   1     153.749  27.267  88.7060  0.00  0.00     0.000 O
ATOM      9  HD  IDS C   1     153.420  28.062  88.6060  0.00  0.00     0.000 HD
ENDROOT
BRANCH 2 9
ATOM      9   O  IDS C   1     154.477  29.358  86.9910  0.00  0.00     0.000 O
ATOM     10   S  IDS C   1     153.070  29.989  86.5820  0.00  0.00     0.000 S
ATOM     11   O  IDS C   1     153.082  31.344  87.0850  0.00  0.00     0.000 OA
ATOM     12   O  IDS C   1     153.020  29.924  85.1360  0.00  0.00     0.000 OA
ATOM     13   O  IDS C   1     152.067  29.163  87.2180  0.00  0.00     0.000 OA
ENDBRANCH 2 9
BRANCH 5 14
ATOM     14   C  IDS C   1     157.233  24.502  86.6140  0.00  0.00     0.000 C
ATOM     15   O  IDS C   1     158.405  24.750  86.4660  0.00  0.00     0.000 OA
ATOM     16   O  IDS C   1     156.865  23.375  86.9010  0.00  0.00     0.000 OA
ENDBRANCH 5 14
BRANCH 1 17
ATOM     17  O4  SGN C   2     156.563  28.926  85.1360  0.00  0.00     0.000 O
BRANCH 17 21
ATOM     18  C1  SGN C   2     159.589  31.672  84.2260  0.00  0.00     0.000 C
ATOM     19  C2  SGN C   2     160.004  30.435  85.0320  0.00  0.00     0.000 C
ATOM     20  C3  SGN C   2     158.923  29.354  84.9170  0.00  0.00     0.000 C
ATOM     21  C4  SGN C   2     157.565  29.924  85.3110  0.00  0.00     0.000 C
ATOM     22  C5  SGN C   2     157.264  31.141  84.4410  0.00  0.00     0.000 C
ATOM     23  O5  SGN C   2     158.307  32.129  84.6040  0.00  0.00     0.000 O
ATOM     24   O  SGN C   2     159.263  28.244  85.7310  0.00  0.00     0.000 O
ATOM     26  HD  SGN C   2     158.972  28.649  85.0230  0.00  0.00     0.000 HD
BRANCH 19 28
ATOM     26   N  SGN C   2     161.456  30.414  84.8080  0.00  0.00     0.000 N
ATOM     28  HD  SGN C   2     161.257  31.257  84.7930  0.00  0.00     0.000 HD
ATOM     28   O  SGN C   2     163.668  29.342  85.2320  0.00  0.00     0.000 OA
ATOM     29   S  SGN C   2     162.501  30.070  85.9800  0.00  0.00     0.000 S
ATOM     30   O  SGN C   2     162.986  31.295  86.4910  0.00  0.00     0.000 OA
ATOM     31   O  SGN C   2     161.876  29.142  86.8570  0.00  0.00     0.000 OA
ENDBRANCH 19 28
BRANCH 22 32
ATOM     32   C  SGN C   2     155.963  31.819  84.7900  0.00  0.00     0.000 C
ATOM     33   S  SGN C   2     154.702  33.997  84.2350  0.00  0.00     0.000 S
ATOM     34   O  SGN C   2     155.537  34.784  85.1070  0.00  0.00     0.000 OA
ATOM     35   O  SGN C   2     154.350  34.673  83.0030  0.00  0.00     0.000 OA
ATOM     36   O  SGN C   2     153.575  33.382  84.8960  0.00  0.00     0.000 OA
ATOM     37   O  SGN C   2     155.637  32.785  83.7830  0.00  0.00     0.000 O
ENDBRANCH 22 32
BRANCH 18 38
ATOM     38  O4  IDS C   3     159.640  31.901  82.9120  0.00  0.00     0.000 O
BRANCH 38 42
ATOM     39  C1  IDS C   3     159.798  33.065  79.6330  0.00  0.00     0.000 C
ATOM     40  C2  IDS C   3     158.451  32.927  80.3600  0.00  0.00     0.000 C
ATOM     41  C3  IDS C   3     158.284  31.528  80.9520  0.00  0.00     0.000 C
ATOM     42  C4  IDS C   3     159.525  31.106  81.7270  0.00  0.00     0.000 C
ATOM     43  C5  IDS C   3     160.771  31.289  80.8510  0.00  0.00     0.000 C
ATOM     44  O5  IDS C   3     160.872  32.658  80.4650  0.00  0.00     0.000 O
ATOM     45   O  IDS C   3     158.032  30.595  79.9000  0.00  0.00     0.000 O
ATOM     47  HD  IDS C   3     158.438  30.375  79.1670  0.00  0.00     0.000 HD
BRANCH 40 47
ATOM     47   O  IDS C   3     158.360  33.897  81.4770  0.00  0.00     0.000 O
ATOM     48   S  IDS C   3     157.655  35.313  81.2450  0.00  0.00     0.000 S
ATOM     49   O  IDS C   3     158.614  36.122  80.5240  0.00  0.00     0.000 OA
ATOM     50   O  IDS C   3     157.385  35.825  82.5710  0.00  0.00     0.000 OA
ATOM     51   O  IDS C   3     156.461  35.053  80.4840  0.00  0.00     0.000 OA
ENDBRANCH 40 47
BRANCH 43 52
ATOM     52   C  IDS C   3     162.044  30.862  81.5470  0.00  0.00     0.000 C
ATOM     53   O  IDS C   3     162.278  29.686  81.7090  0.00  0.00     0.000 OA
ATOM     54   O  IDS C   3     162.820  31.697  81.9370  0.00  0.00     0.000 OA
ENDBRANCH 43 52
BRANCH 39 55
ATOM     55  O4  SGN C   4     159.974  32.782  78.3420  0.00  0.00     0.000 O
BRANCH 55 59
ATOM     56  C1  SGN C   4     158.048  35.476  75.7850  0.00  0.00     0.000 C
ATOM     57  C2  SGN C   4     157.496  34.040  75.8140  0.00  0.00     0.000 C
ATOM     58  C3  SGN C   4     158.007  33.288  77.0400  0.00  0.00     0.000 C
ATOM     59  C4  SGN C   4     159.524  33.396  77.1430  0.00  0.00     0.000 C
ATOM     60  C5  SGN C   4     159.912  34.873  77.1370  0.00  0.00     0.000 C
ATOM     61  O5  SGN C   4     159.462  35.454  75.8970  0.00  0.00     0.000 O
ATOM     62   O  SGN C   4     157.605  31.926  76.9640  0.00  0.00     0.000 O
ATOM     64  HD  SGN C   4     156.995  32.357  76.5250  0.00  0.00     0.000 HD
BRANCH 57 66
ATOM     64   N  SGN C   4     156.416  33.205  75.2620  0.00  0.00     0.000 N
ATOM     66  HD  SGN C   4     155.551  33.224  75.2590  0.00  0.00     0.000 HD
ATOM     66   S  SGN C   4     155.288  33.847  74.3350  0.00  0.00     0.000 S
ATOM     67   O  SGN C   4     154.366  32.819  74.0140  0.00  0.00     0.000 OA
ATOM     68   O  SGN C   4     154.825  35.020  74.9930  0.00  0.00     0.000 OA
ATOM     69   O  SGN C   4     156.063  34.269  73.0450  0.00  0.00     0.000 OA
ENDBRANCH 57 66
BRANCH 60 70
ATOM     70   C  SGN C   4     161.402  35.113  77.2450  0.00  0.00     0.000 C
ATOM     71   O  SGN C   4     163.210  38.358  76.6910  0.00  0.00     0.000 OA
ATOM     72   O  SGN C   4     162.631  37.336  78.8040  0.00  0.00     0.000 OA
ATOM     73   O  SGN C   4     161.738  36.427  76.7590  0.00  0.00     0.000 O
ATOM     74   S  SGN C   4     163.011  37.130  77.4250  0.00  0.00     0.000 S
ATOM     75   O  SGN C   4     164.090  36.177  77.2590  0.00  0.00     0.000 OA
ENDBRANCH 60 70
BRANCH 56 76
ATOM     76  O4  IDS C   5     157.624  36.678  76.2180  0.00  0.00     0.000 O
BRANCH 76 80
ATOM     77  C1  IDS C   5     154.437  38.712  74.6800  0.00  0.00     0.000 C
ATOM     78  C2  IDS C   5     155.766  38.989  73.9770  0.00  0.00     0.000 C
ATOM     79  C3  IDS C   5     156.762  37.896  74.3110  0.00  0.00     0.000 C
ATOM     80  C4  IDS C   5     157.094  37.944  75.7990  0.00  0.00     0.000 C
ATOM     81  C5  IDS C   5     155.824  38.283  76.5930  0.00  0.00     0.000 C
ATOM     82  O5  IDS C   5     154.656  37.923  75.8490  0.00  0.00     0.000 O
BRANCH 78 83
ATOM     83   O  IDS C   5     155.584  39.024  72.5070  0.00  0.00     0.000 O
ATOM     84   S  IDS C   5     155.526  40.426  71.7490  0.00  0.00     0.000 S
ATOM     85   O  IDS C   5     154.593  41.236  72.4840  0.00  0.00     0.000 OA
ATOM     86   O  IDS C   5     156.877  40.935  71.7920  0.00  0.00     0.000 OA
ATOM     87   O  IDS C   5     155.088  40.127  70.4070  0.00  0.00     0.000 OA
ENDBRANCH 78 83
BRANCH 81 88
ATOM     88   C  IDS C   5     155.739  37.593  77.9420  0.00  0.00     0.000 C
ATOM     89   O  IDS C   5     155.066  36.605  78.0680  0.00  0.00     0.000 OA
ATOM     90   O  IDS C   5     156.351  38.043  78.8840  0.00  0.00     0.000 OA
ENDBRANCH 81 88
ENDBRANCH 76 80
ENDBRANCH 56 76
ENDBRANCH 55 59
ENDBRANCH 39 55
ENDBRANCH 38 42
ENDBRANCH 18 38
ENDBRANCH 17 21
ENDBRANCH 1 17
TORSDOF 18
ENDMDL
MODEL 56
REMARK VINA RESULT:      -6.3     44.313     50.187
ROOT
ATOM      1  C1  IDS C   1     135.048  44.293  64.7910  0.00  0.00     0.000 C
ATOM      2  C2  IDS C   1     136.067  45.199  65.4880  0.00  0.00     0.000 C
ATOM      3  C3  IDS C   1     137.435  45.080  64.8310  0.00  0.00     0.000 C
ATOM      4  C4  IDS C   1     137.929  43.641  64.8760  0.00  0.00     0.000 C
ATOM      5  C5  IDS C   1     136.770  42.682  64.6220  0.00  0.00     0.000 C
ATOM      6  O5  IDS C   1     135.710  43.360  63.9470  0.00  0.00     0.000 O
ATOM      7   O  IDS C   1     138.370  45.940  65.4970  0.00  0.00     0.000 O
ATOM      9  HD  IDS C   1     137.955  46.663  65.7320  0.00  0.00     0.000 HD
ENDROOT
BRANCH 2 9
ATOM      9   O  IDS C   1     135.654  46.619  65.4050  0.00  0.00     0.000 O
ATOM     10   S  IDS C   1     135.434  47.451  66.7470  0.00  0.00     0.000 S
ATOM     11   O  IDS C   1     135.056  48.783  66.3300  0.00  0.00     0.000 OA
ATOM     12   O  IDS C   1     134.379  46.763  67.4630  0.00  0.00     0.000 OA
ATOM     13   O  IDS C   1     136.701  47.419  67.4440  0.00  0.00     0.000 OA
ENDBRANCH 2 9
BRANCH 5 14
ATOM     14   C  IDS C   1     137.189  41.487  63.7810  0.00  0.00     0.000 C
ATOM     15   O  IDS C   1     137.986  41.640  62.8880  0.00  0.00     0.000 OA
ATOM     16   O  IDS C   1     136.716  40.388  64.0130  0.00  0.00     0.000 OA
ENDBRANCH 5 14
BRANCH 1 17
ATOM     17  O4  SGN C   2     133.803  44.684  64.5060  0.00  0.00     0.000 O
BRANCH 17 21
ATOM     18  C1  SGN C   2     130.955  46.458  62.0030  0.00  0.00     0.000 C
ATOM     19  C2  SGN C   2     132.378  46.334  61.4450  0.00  0.00     0.000 C
ATOM     20  C3  SGN C   2     133.172  45.314  62.2690  0.00  0.00     0.000 C
ATOM     21  C4  SGN C   2     133.116  45.677  63.7490  0.00  0.00     0.000 C
ATOM     22  C5  SGN C   2     131.657  45.765  64.1850  0.00  0.00     0.000 C
ATOM     23  O5  SGN C   2     130.966  46.752  63.3850  0.00  0.00     0.000 O
ATOM     24   O  SGN C   2     134.512  45.261  61.8100  0.00  0.00     0.000 O
ATOM     26  HD  SGN C   2     133.758  44.945  62.0940  0.00  0.00     0.000 HD
BRANCH 19 28
ATOM     26   N  SGN C   2     132.141  46.498  60.0040  0.00  0.00     0.000 N
ATOM     28  HD  SGN C   2     131.553  47.018  60.3690  0.00  0.00     0.000 HD
ATOM     28   O  SGN C   2     133.053  46.566  57.6830  0.00  0.00     0.000 OA
ATOM     29   S  SGN C   2     133.150  47.315  59.0550  0.00  0.00     0.000 S
ATOM     30   O  SGN C   2     132.626  48.617  58.8980  0.00  0.00     0.000 OA
ATOM     31   O  SGN C   2     134.463  47.143  59.5730  0.00  0.00     0.000 OA
ENDBRANCH 19 28
BRANCH 22 32
ATOM     32   C  SGN C   2     131.487  46.177  65.6270  0.00  0.00     0.000 C
ATOM     33   S  SGN C   2     130.690  45.155  67.8540  0.00  0.00     0.000 S
ATOM     34   O  SGN C   2     129.301  45.266  67.4870  0.00  0.00     0.000 OA
ATOM     35   O  SGN C   2     131.005  43.940  68.5770  0.00  0.00     0.000 OA
ATOM     36   O  SGN C   2     131.234  46.345  68.4660  0.00  0.00     0.000 OA
ATOM     37   O  SGN C   2     131.455  45.013  66.4610  0.00  0.00     0.000 O
ENDBRANCH 22 32
BRANCH 18 38
ATOM     38  O4  IDS C   3     129.896  45.659  61.8510  0.00  0.00     0.000 O
BRANCH 38 42
ATOM     39  C1  IDS C   3     127.630  43.057  61.3790  0.00  0.00     0.000 C
ATOM     40  C2  IDS C   3     128.672  43.405  60.3040  0.00  0.00     0.000 C
ATOM     41  C3  IDS C   3     128.626  44.891  59.9500  0.00  0.00     0.000 C
ATOM     42  C4  IDS C   3     128.623  45.755  61.2040  0.00  0.00     0.000 C
ATOM     43  C5  IDS C   3     127.515  45.286  62.1550  0.00  0.00     0.000 C
ATOM     44  O5  IDS C   3     127.742  43.921  62.4980  0.00  0.00     0.000 O
ATOM     45   O  IDS C   3     127.455  45.158  59.1770  0.00  0.00     0.000 O
ATOM     47  HD  IDS C   3     126.606  45.027  59.2880  0.00  0.00     0.000 HD
BRANCH 40 47
ATOM     47   O  IDS C   3     130.040  43.104  60.7880  0.00  0.00     0.000 O
ATOM     48   S  IDS C   3     130.688  41.670  60.5030  0.00  0.00     0.000 S
ATOM     49   O  IDS C   3     130.075  40.762  61.4490  0.00  0.00     0.000 OA
ATOM     50   O  IDS C   3     132.105  41.839  60.7380  0.00  0.00     0.000 OA
ATOM     51   O  IDS C   3     130.375  41.347  59.1370  0.00  0.00     0.000 OA
ENDBRANCH 40 47
BRANCH 43 52
ATOM     52   C  IDS C   3     127.433  46.120  63.4140  0.00  0.00     0.000 C
ATOM     53   O  IDS C   3     127.288  47.318  63.3360  0.00  0.00     0.000 OA
ATOM     54   O  IDS C   3     127.513  45.585  64.4910  0.00  0.00     0.000 OA
ENDBRANCH 43 52
BRANCH 39 55
ATOM     55  O4  SGN C   4     126.380  42.686  61.1040  0.00  0.00     0.000 O
BRANCH 55 59
ATOM     56  C1  SGN C   4     123.485  39.874  60.0010  0.00  0.00     0.000 C
ATOM     57  C2  SGN C   4     124.025  39.777  61.4380  0.00  0.00     0.000 C
ATOM     58  C3  SGN C   4     124.750  41.061  61.8320  0.00  0.00     0.000 C
ATOM     59  C4  SGN C   4     125.787  41.436  60.7790  0.00  0.00     0.000 C
ATOM     60  C5  SGN C   4     125.096  41.526  59.4190  0.00  0.00     0.000 C
ATOM     61  O5  SGN C   4     124.530  40.236  59.1140  0.00  0.00     0.000 O
ATOM     62   O  SGN C   4     125.365  40.890  63.1020  0.00  0.00     0.000 O
ATOM     64  HD  SGN C   4     124.683  40.357  63.1180  0.00  0.00     0.000 HD
BRANCH 57 66
ATOM     64   N  SGN C   4     123.935  38.917  62.6290  0.00  0.00     0.000 N
ATOM     66  HD  SGN C   4     123.350  38.766  63.2490  0.00  0.00     0.000 HD
ATOM     66   S  SGN C   4     122.702  37.923  62.8220  0.00  0.00     0.000 S
ATOM     67   O  SGN C   4     122.864  37.284  64.0770  0.00  0.00     0.000 OA
ATOM     68   O  SGN C   4     121.520  38.672  62.5670  0.00  0.00     0.000 OA
ATOM     69   O  SGN C   4     122.887  36.876  61.6780  0.00  0.00     0.000 OA
ENDBRANCH 57 66
BRANCH 60 70
ATOM     70   C  SGN C   4     126.025  41.903  58.2860  0.00  0.00     0.000 C
ATOM     71   O  SGN C   4     125.637  41.009  54.6590  0.00  0.00     0.000 OA
ATOM     72   O  SGN C   4     125.126  43.121  55.7190  0.00  0.00     0.000 OA
ATOM     73   O  SGN C   4     125.659  41.206  57.0800  0.00  0.00     0.000 O
ATOM     74   S  SGN C   4     125.974  41.951  55.7010  0.00  0.00     0.000 S
ATOM     75   O  SGN C   4     127.388  42.263  55.7630  0.00  0.00     0.000 OA
ENDBRANCH 60 70
BRANCH 56 76
ATOM     76  O4  IDS C   5     122.322  40.244  59.4330  0.00  0.00     0.000 O
BRANCH 76 80
ATOM     77  C1  IDS C   5     118.672  38.473  59.8740  0.00  0.00     0.000 C
ATOM     78  C2  IDS C   5     119.561  37.836  58.8070  0.00  0.00     0.000 C
ATOM     79  C3  IDS C   5     121.002  38.257  59.0200  0.00  0.00     0.000 C
ATOM     80  C4  IDS C   5     121.135  39.759  58.7890  0.00  0.00     0.000 C
ATOM     81  C5  IDS C   5     119.894  40.471  59.3440  0.00  0.00     0.000 C
ATOM     82  O5  IDS C   5     119.269  39.676  60.3570  0.00  0.00     0.000 O
BRANCH 78 83
ATOM     83   O  IDS C   5     119.489  36.358  58.8790  0.00  0.00     0.000 O
ATOM     84   S  IDS C   5     119.350  35.504  57.5390  0.00  0.00     0.000 S
ATOM     85   O  IDS C   5     118.287  36.116  56.7880  0.00  0.00     0.000 OA
ATOM     86   O  IDS C   5     120.636  35.607  56.8900  0.00  0.00     0.000 OA
ATOM     87   O  IDS C   5     119.048  34.159  57.9620  0.00  0.00     0.000 OA
ENDBRANCH 78 83
BRANCH 81 88
ATOM     88   C  IDS C   5     120.183  41.834  59.9460  0.00  0.00     0.000 C
ATOM     89   O  IDS C   5     120.266  41.957  61.1380  0.00  0.00     0.000 OA
ATOM     90   O  IDS C   5     120.330  42.790  59.2190  0.00  0.00     0.000 OA
ENDBRANCH 81 88
ENDBRANCH 76 80
ENDBRANCH 56 76
ENDBRANCH 55 59
ENDBRANCH 39 55
ENDBRANCH 38 42
ENDBRANCH 18 38
ENDBRANCH 17 21
ENDBRANCH 1 17
TORSDOF 18
ENDMDL
MODEL 57
REMARK VINA RESULT:      -6.3     25.546     32.611
ROOT
ATOM      1  C1  IDS C   1     150.341  48.243  67.9050  0.00  0.00     0.000 C
ATOM      2  C2  IDS C   1     149.831  49.685  67.8290  0.00  0.00     0.000 C
ATOM      3  C3  IDS C   1     149.465  50.054  66.3990  0.00  0.00     0.000 C
ATOM      4  C4  IDS C   1     150.668  49.897  65.4790  0.00  0.00     0.000 C
ATOM      5  C5  IDS C   1     151.464  48.655  65.8650  0.00  0.00     0.000 C
ATOM      6  O5  IDS C   1     150.639  47.753  66.6040  0.00  0.00     0.000 O
ATOM      7   O  IDS C   1     148.987  51.406  66.3540  0.00  0.00     0.000 O
ATOM      9  HD  IDS C   1     148.531  51.557  67.0740  0.00  0.00     0.000 HD
ENDROOT
BRANCH 2 9
ATOM      9   O  IDS C   1     148.618  49.859  68.6590  0.00  0.00     0.000 O
ATOM     10   S  IDS C   1     148.591  50.996  69.7780  0.00  0.00     0.000 S
ATOM     11   O  IDS C   1     147.284  50.917  70.3920  0.00  0.00     0.000 OA
ATOM     12   O  IDS C   1     149.665  50.667  70.6930  0.00  0.00     0.000 OA
ATOM     13   O  IDS C   1     148.808  52.243  69.0790  0.00  0.00     0.000 OA
ENDBRANCH 2 9
BRANCH 5 14
ATOM     14   C  IDS C   1     152.009  47.923  64.6510  0.00  0.00     0.000 C
ATOM     15   O  IDS C   1     152.686  46.936  64.8070  0.00  0.00     0.000 OA
ATOM     16   O  IDS C   1     151.761  48.338  63.5320  0.00  0.00     0.000 OA
ENDBRANCH 5 14
BRANCH 1 17
ATOM     17  O4  SGN C   2     149.980  47.394  68.8710  0.00  0.00     0.000 O
BRANCH 17 21
ATOM     18  C1  SGN C   2     147.991  44.069  70.4570  0.00  0.00     0.000 C
ATOM     19  C2  SGN C   2     148.121  44.127  68.9300  0.00  0.00     0.000 C
ATOM     20  C3  SGN C   2     149.207  45.137  68.5390  0.00  0.00     0.000 C
ATOM     21  C4  SGN C   2     148.927  46.487  69.1900  0.00  0.00     0.000 C
ATOM     22  C5  SGN C   2     148.825  46.300  70.7010  0.00  0.00     0.000 C
ATOM     23  O5  SGN C   2     147.776  45.352  71.0060  0.00  0.00     0.000 O
ATOM     24   O  SGN C   2     149.269  45.257  67.1280  0.00  0.00     0.000 O
ATOM     26  HD  SGN C   2     149.581  45.191  67.9330  0.00  0.00     0.000 HD
BRANCH 19 28
ATOM     26   N  SGN C   2     147.877  42.726  68.5620  0.00  0.00     0.000 N
ATOM     28  HD  SGN C   2     147.371  42.848  69.2540  0.00  0.00     0.000 HD
ATOM     28   O  SGN C   2     147.694  40.983  66.7870  0.00  0.00     0.000 OA
ATOM     29   S  SGN C   2     147.021  42.314  67.2640  0.00  0.00     0.000 S
ATOM     30   O  SGN C   2     145.707  42.027  67.6950  0.00  0.00     0.000 OA
ATOM     31   O  SGN C   2     147.235  43.311  66.2730  0.00  0.00     0.000 OA
ENDBRANCH 19 28
BRANCH 22 32
ATOM     32   C  SGN C   2     148.490  47.572  71.4400  0.00  0.00     0.000 C
ATOM     33   S  SGN C   2     146.837  48.392  73.2390  0.00  0.00     0.000 S
ATOM     34   O  SGN C   2     145.742  48.452  72.3030  0.00  0.00     0.000 OA
ATOM     35   O  SGN C   2     146.454  47.912  74.5500  0.00  0.00     0.000 OA
ATOM     36   O  SGN C   2     147.645  49.587  73.2780  0.00  0.00     0.000 OA
ATOM     37   O  SGN C   2     147.794  47.257  72.6510  0.00  0.00     0.000 O
ENDBRANCH 22 32
BRANCH 18 38
ATOM     38  O4  IDS C   3     148.751  43.451  71.3640  0.00  0.00     0.000 O
BRANCH 38 42
ATOM     39  C1  IDS C   3     150.235  41.326  73.6890  0.00  0.00     0.000 C
ATOM     40  C2  IDS C   3     149.916  42.787  74.0420  0.00  0.00     0.000 C
ATOM     41  C3  IDS C   3     150.495  43.746  73.0030  0.00  0.00     0.000 C
ATOM     42  C4  IDS C   3     150.157  43.296  71.5890  0.00  0.00     0.000 C
ATOM     43  C5  IDS C   3     150.557  41.827  71.4020  0.00  0.00     0.000 C
ATOM     44  O5  IDS C   3     149.858  41.028  72.3550  0.00  0.00     0.000 O
ATOM     45   O  IDS C   3     151.913  43.816  73.1610  0.00  0.00     0.000 O
ATOM     47  HD  IDS C   3     152.557  43.236  73.1710  0.00  0.00     0.000 HD
BRANCH 40 47
ATOM     47   O  IDS C   3     148.451  43.005  74.0810  0.00  0.00     0.000 O
ATOM     48   S  IDS C   3     147.667  42.898  75.4720  0.00  0.00     0.000 S
ATOM     49   O  IDS C   3     147.538  41.484  75.7470  0.00  0.00     0.000 OA
ATOM     50   O  IDS C   3     146.390  43.535  75.2380  0.00  0.00     0.000 OA
ATOM     51   O  IDS C   3     148.472  43.585  76.4460  0.00  0.00     0.000 OA
ENDBRANCH 40 47
BRANCH 43 52
ATOM     52   C  IDS C   3     150.275  41.316  70.0060  0.00  0.00     0.000 C
ATOM     53   O  IDS C   3     150.744  41.887  69.0490  0.00  0.00     0.000 OA
ATOM     54   O  IDS C   3     149.584  40.340  69.8560  0.00  0.00     0.000 OA
ENDBRANCH 43 52
BRANCH 39 55
ATOM     55  O4  SGN C   4     151.334  40.690  74.0970  0.00  0.00     0.000 O
BRANCH 55 59
ATOM     56  C1  SGN C   4     151.156  36.552  74.6880  0.00  0.00     0.000 C
ATOM     57  C2  SGN C   4     150.452  37.428  75.7380  0.00  0.00     0.000 C
ATOM     58  C3  SGN C   4     150.249  38.846  75.2130  0.00  0.00     0.000 C
ATOM     59  C4  SGN C   4     151.558  39.413  74.6770  0.00  0.00     0.000 C
ATOM     60  C5  SGN C   4     152.115  38.454  73.6260  0.00  0.00     0.000 C
ATOM     61  O5  SGN C   4     152.353  37.180  74.2570  0.00  0.00     0.000 O
ATOM     62   O  SGN C   4     149.734  39.669  76.2510  0.00  0.00     0.000 O
ATOM     64  HD  SGN C   4     149.452  38.873  76.4450  0.00  0.00     0.000 HD
BRANCH 57 66
ATOM     64   N  SGN C   4     150.467  36.336  76.7250  0.00  0.00     0.000 N
ATOM     66  HD  SGN C   4     150.231  36.237  77.5520  0.00  0.00     0.000 HD
ATOM     66   S  SGN C   4     149.132  35.919  77.4950  0.00  0.00     0.000 S
ATOM     67   O  SGN C   4     149.474  34.893  78.4120  0.00  0.00     0.000 OA
ATOM     68   O  SGN C   4     148.538  37.118  77.9760  0.00  0.00     0.000 OA
ATOM     69   O  SGN C   4     148.224  35.327  76.3690  0.00  0.00     0.000 OA
ENDBRANCH 57 66
BRANCH 60 70
ATOM     70   C  SGN C   4     153.417  38.914  73.0080  0.00  0.00     0.000 C
ATOM     71   O  SGN C   4     153.830  41.150  70.0190  0.00  0.00     0.000 OA
ATOM     72   O  SGN C   4     154.050  41.752  72.3510  0.00  0.00     0.000 OA
ATOM     73   O  SGN C   4     153.173  39.587  71.7580  0.00  0.00     0.000 O
ATOM     74   S  SGN C   4     154.216  40.727  71.3450  0.00  0.00     0.000 S
ATOM     75   O  SGN C   4     155.511  40.078  71.3910  0.00  0.00     0.000 OA
ENDBRANCH 60 70
BRANCH 56 76
ATOM     76  O4  IDS C   5     150.760  35.717  73.7090  0.00  0.00     0.000 O
BRANCH 76 80
ATOM     77  C1  IDS C   5     149.491  35.527  69.8350  0.00  0.00     0.000 C
ATOM     78  C2  IDS C   5     148.541  36.264  70.7790  0.00  0.00     0.000 C
ATOM     79  C3  IDS C   5     149.277  36.660  72.0440  0.00  0.00     0.000 C
ATOM     80  C4  IDS C   5     149.686  35.405  72.8090  0.00  0.00     0.000 C
ATOM     81  C5  IDS C   5     150.119  34.320  71.8130  0.00  0.00     0.000 C
ATOM     82  O5  IDS C   5     150.540  34.909  70.5800  0.00  0.00     0.000 O
BRANCH 78 83
ATOM     83   O  IDS C   5     148.016  37.493  70.1380  0.00  0.00     0.000 O
ATOM     84   S  IDS C   5     146.474  37.582  69.7380  0.00  0.00     0.000 S
ATOM     85   O  IDS C   5     146.180  36.367  69.0260  0.00  0.00     0.000 OA
ATOM     86   O  IDS C   5     145.764  37.693  70.9900  0.00  0.00     0.000 OA
ATOM     87   O  IDS C   5     146.350  38.765  68.9210  0.00  0.00     0.000 OA
ENDBRANCH 78 83
BRANCH 81 88
ATOM     88   C  IDS C   5     151.253  33.443  72.3120  0.00  0.00     0.000 C
ATOM     89   O  IDS C   5     151.027  32.560  73.0960  0.00  0.00     0.000 OA
ATOM     90   O  IDS C   5     152.379  33.638  71.9170  0.00  0.00     0.000 OA
ENDBRANCH 81 88
ENDBRANCH 76 80
ENDBRANCH 56 76
ENDBRANCH 55 59
ENDBRANCH 39 55
ENDBRANCH 38 42
ENDBRANCH 18 38
ENDBRANCH 17 21
ENDBRANCH 1 17
TORSDOF 18
ENDMDL
MODEL 58
REMARK VINA RESULT:      -6.2     26.839     31.306
ROOT
ATOM      1  C1  IDS C   1     165.238  33.989  48.2250  0.00  0.00     0.000 C
ATOM      2  C2  IDS C   1     164.052  33.040  48.0360  0.00  0.00     0.000 C
ATOM      3  C3  IDS C   1     164.244  32.173  46.8000  0.00  0.00     0.000 C
ATOM      4  C4  IDS C   1     164.398  33.038  45.5570  0.00  0.00     0.000 C
ATOM      5  C5  IDS C   1     165.238  34.270  45.8770  0.00  0.00     0.000 C
ATOM      6  O5  IDS C   1     166.028  34.036  47.0430  0.00  0.00     0.000 O
ATOM      7   O  IDS C   1     163.123  31.291  46.6470  0.00  0.00     0.000 O
ATOM      9  HD  IDS C   1     162.864  31.041  47.4350  0.00  0.00     0.000 HD
ENDROOT
BRANCH 2 9
ATOM      9   O  IDS C   1     163.911  32.134  49.1990  0.00  0.00     0.000 O
ATOM     10   S  IDS C   1     162.553  32.137  50.0350  0.00  0.00     0.000 S
ATOM     11   O  IDS C   1     162.727  31.149  51.0770  0.00  0.00     0.000 OA
ATOM     12   O  IDS C   1     162.417  33.484  50.5510  0.00  0.00     0.000 OA
ATOM     13   O  IDS C   1     161.511  31.785  49.0960  0.00  0.00     0.000 OA
ENDBRANCH 2 9
BRANCH 5 14
ATOM     14   C  IDS C   1     166.167  34.644  44.7340  0.00  0.00     0.000 C
ATOM     15   O  IDS C   1     167.316  34.277  44.7580  0.00  0.00     0.000 OA
ATOM     16   O  IDS C   1     165.745  35.311  43.8050  0.00  0.00     0.000 OA
ENDBRANCH 5 14
BRANCH 1 17
ATOM     17  O4  SGN C   2     165.802  34.222  49.4130  0.00  0.00     0.000 O
BRANCH 17 21
ATOM     18  C1  SGN C   2     168.612  33.365  52.3960  0.00  0.00     0.000 C
ATOM     19  C2  SGN C   2     168.671  32.503  51.1290  0.00  0.00     0.000 C
ATOM     20  C3  SGN C   2     167.899  33.190  49.9960  0.00  0.00     0.000 C
ATOM     21  C4  SGN C   2     166.484  33.525  50.4530  0.00  0.00     0.000 C
ATOM     22  C5  SGN C   2     166.557  34.386  51.7110  0.00  0.00     0.000 C
ATOM     23  O5  SGN C   2     167.281  33.679  52.7450  0.00  0.00     0.000 O
ATOM     24   O  SGN C   2     167.878  32.355  48.8510  0.00  0.00     0.000 O
ATOM     26  HD  SGN C   2     167.950  33.098  49.2900  0.00  0.00     0.000 HD
BRANCH 19 28
ATOM     26   N  SGN C   2     170.002  31.892  51.2480  0.00  0.00     0.000 N
ATOM     28  HD  SGN C   2     169.697  31.881  52.0590  0.00  0.00     0.000 HD
ATOM     28   O  SGN C   2     171.811  30.497  50.2450  0.00  0.00     0.000 OA
ATOM     29   S  SGN C   2     170.318  30.409  50.7110  0.00  0.00     0.000 S
ATOM     30   O  SGN C   2     170.240  29.532  51.8150  0.00  0.00     0.000 OA
ATOM     31   O  SGN C   2     169.500  30.180  49.5720  0.00  0.00     0.000 OA
ENDBRANCH 19 28
BRANCH 22 32
ATOM     32   C  SGN C   2     165.203  34.727  52.2830  0.00  0.00     0.000 C
ATOM     33   S  SGN C   2     163.518  36.677  52.2440  0.00  0.00     0.000 S
ATOM     34   O  SGN C   2     164.292  37.455  53.1780  0.00  0.00     0.000 OA
ATOM     35   O  SGN C   2     162.914  37.467  51.1910  0.00  0.00     0.000 OA
ATOM     36   O  SGN C   2     162.602  35.750  52.8650  0.00  0.00     0.000 OA
ATOM     37   O  SGN C   2     164.598  35.765  51.5020  0.00  0.00     0.000 O
ENDBRANCH 22 32
BRANCH 18 38
ATOM     38  O4  IDS C   3     169.301  34.461  52.7250  0.00  0.00     0.000 O
BRANCH 38 42
ATOM     39  C1  IDS C   3     170.444  37.332  54.3300  0.00  0.00     0.000 C
ATOM     40  C2  IDS C   3     170.404  37.245  52.7960  0.00  0.00     0.000 C
ATOM     41  C3  IDS C   3     171.115  35.989  52.2940  0.00  0.00     0.000 C
ATOM     42  C4  IDS C   3     170.661  34.755  53.0610  0.00  0.00     0.000 C
ATOM     43  C5  IDS C   3     170.785  35.005  54.5690  0.00  0.00     0.000 C
ATOM     44  O5  IDS C   3     169.981  36.130  54.9230  0.00  0.00     0.000 O
ATOM     45   O  IDS C   3     172.527  36.155  52.4400  0.00  0.00     0.000 O
ATOM     47  HD  IDS C   3     173.056  36.346  53.0990  0.00  0.00     0.000 HD
BRANCH 40 47
ATOM     47   O  IDS C   3     169.003  37.185  52.3150  0.00  0.00     0.000 O
ATOM     48   S  IDS C   3     168.125  38.520  52.2520  0.00  0.00     0.000 S
ATOM     49   O  IDS C   3     167.722  38.796  53.6140  0.00  0.00     0.000 OA
ATOM     50   O  IDS C   3     167.003  38.197  51.3980  0.00  0.00     0.000 OA
ATOM     51   O  IDS C   3     168.977  39.541  51.7050  0.00  0.00     0.000 OA
ENDBRANCH 40 47
BRANCH 43 52
ATOM     52   C  IDS C   3     170.376  33.808  55.3970  0.00  0.00     0.000 C
ATOM     53   O  IDS C   3     169.342  33.833  56.0250  0.00  0.00     0.000 OA
ATOM     54   O  IDS C   3     171.083  32.833  55.4280  0.00  0.00     0.000 OA
ENDBRANCH 43 52
BRANCH 39 55
ATOM     55  O4  SGN C   4     171.422  37.931  55.0110  0.00  0.00     0.000 O
BRANCH 55 59
ATOM     56  C1  SGN C   4     170.239  40.999  57.5970  0.00  0.00     0.000 C
ATOM     57  C2  SGN C   4     170.464  41.389  56.1250  0.00  0.00     0.000 C
ATOM     58  C3  SGN C   4     170.497  40.148  55.2360  0.00  0.00     0.000 C
ATOM     59  C4  SGN C   4     171.478  39.119  55.7870  0.00  0.00     0.000 C
ATOM     60  C5  SGN C   4     171.107  38.813  57.2360  0.00  0.00     0.000 C
ATOM     61  O5  SGN C   4     171.200  40.035  57.9950  0.00  0.00     0.000 O
ATOM     62   O  SGN C   4     170.853  40.522  53.9120  0.00  0.00     0.000 O
ATOM     64  HD  SGN C   4     170.464  41.224  54.2380  0.00  0.00     0.000 HD
BRANCH 57 66
ATOM     64   N  SGN C   4     169.453  42.454  56.2280  0.00  0.00     0.000 N
ATOM     66  HD  SGN C   4     169.419  43.253  56.5600  0.00  0.00     0.000 HD
ATOM     66   S  SGN C   4     169.771  43.927  55.7030  0.00  0.00     0.000 S
ATOM     67   O  SGN C   4     168.642  44.734  55.9920  0.00  0.00     0.000 OA
ATOM     68   O  SGN C   4     171.042  44.291  56.2260  0.00  0.00     0.000 OA
ATOM     69   O  SGN C   4     169.899  43.749  54.1560  0.00  0.00     0.000 OA
ENDBRANCH 57 66
BRANCH 60 70
ATOM     70   C  SGN C   4     172.007  37.790  57.8940  0.00  0.00     0.000 C
ATOM     71   O  SGN C   4     175.454  38.372  59.2670  0.00  0.00     0.000 OA
ATOM     72   O  SGN C   4     173.384  38.204  60.5050  0.00  0.00     0.000 OA
ATOM     73   O  SGN C   4     173.325  38.336  58.1000  0.00  0.00     0.000 O
ATOM     74   S  SGN C   4     174.143  37.773  59.3530  0.00  0.00     0.000 S
ATOM     75   O  SGN C   4     174.152  36.335  59.1740  0.00  0.00     0.000 OA
ENDBRANCH 60 70
BRANCH 56 76
ATOM     76  O4  IDS C   5     169.171  40.868  58.4050  0.00  0.00     0.000 O
BRANCH 76 80
ATOM     77  C1  IDS C   5     167.213  41.034  61.9820  0.00  0.00     0.000 C
ATOM     78  C2  IDS C   5     168.497  40.206  62.0000  0.00  0.00     0.000 C
ATOM     79  C3  IDS C   5     169.354  40.559  60.8000  0.00  0.00     0.000 C
ATOM     80  C4  IDS C   5     168.639  40.137  59.5200  0.00  0.00     0.000 C
ATOM     81  C5  IDS C   5     167.134  40.404  59.6660  0.00  0.00     0.000 C
ATOM     82  O5  IDS C   5     166.897  41.421  60.6440  0.00  0.00     0.000 O
BRANCH 78 83
ATOM     83   O  IDS C   5     169.278  40.477  63.2290  0.00  0.00     0.000 O
ATOM     84   S  IDS C   5     169.837  39.261  64.0980  0.00  0.00     0.000 S
ATOM     85   O  IDS C   5     168.727  38.365  64.2830  0.00  0.00     0.000 OA
ATOM     86   O  IDS C   5     170.903  38.690  63.3090  0.00  0.00     0.000 OA
ATOM     87   O  IDS C   5     170.308  39.846  65.3300  0.00  0.00     0.000 OA
ENDBRANCH 78 83
BRANCH 81 88
ATOM     88   C  IDS C   5     166.457  40.840  58.3800  0.00  0.00     0.000 C
ATOM     89   O  IDS C   5     166.178  40.024  57.5430  0.00  0.00     0.000 OA
ATOM     90   O  IDS C   5     166.202  42.010  58.2040  0.00  0.00     0.000 OA
ENDBRANCH 81 88
ENDBRANCH 76 80
ENDBRANCH 56 76
ENDBRANCH 55 59
ENDBRANCH 39 55
ENDBRANCH 38 42
ENDBRANCH 18 38
ENDBRANCH 17 21
ENDBRANCH 1 17
TORSDOF 18
ENDMDL
MODEL 59
REMARK VINA RESULT:      -6.1     14.048     17.431
ROOT
ATOM      1  C1  IDS C   1     181.095  28.212  67.8850  0.00  0.00     0.000 C
ATOM      2  C2  IDS C   1     182.122  27.143  68.2690  0.00  0.00     0.000 C
ATOM      3  C3  IDS C   1     183.517  27.547  67.8150  0.00  0.00     0.000 C
ATOM      4  C4  IDS C   1     183.551  27.758  66.3070  0.00  0.00     0.000 C
ATOM      5  C5  IDS C   1     182.269  28.445  65.8460  0.00  0.00     0.000 C
ATOM      6  O5  IDS C   1     181.651  29.119  66.9430  0.00  0.00     0.000 O
ATOM      7   O  IDS C   1     184.461  26.533  68.1880  0.00  0.00     0.000 O
ATOM      9  HD  IDS C   1     184.226  26.212  68.9570  0.00  0.00     0.000 HD
ENDROOT
BRANCH 2 9
ATOM      9   O  IDS C   1     182.167  26.957  69.7370  0.00  0.00     0.000 O
ATOM     10   S  IDS C   1     181.927  25.505  70.3510  0.00  0.00     0.000 S
ATOM     11   O  IDS C   1     182.047  25.656  71.7840  0.00  0.00     0.000 OA
ATOM     12   O  IDS C   1     180.594  25.122  69.9340  0.00  0.00     0.000 OA
ATOM     13   O  IDS C   1     182.958  24.663  69.7860  0.00  0.00     0.000 OA
ENDBRANCH 2 9
BRANCH 5 14
ATOM     14   C  IDS C   1     182.526  29.456  64.7420  0.00  0.00     0.000 C
ATOM     15   O  IDS C   1     183.511  29.347  64.0540  0.00  0.00     0.000 OA
ATOM     16   O  IDS C   1     181.737  30.368  64.5610  0.00  0.00     0.000 OA
ENDBRANCH 5 14
BRANCH 1 17
ATOM     17  O4  SGN C   2     180.126  28.619  68.7100  0.00  0.00     0.000 O
BRANCH 17 21
ATOM     18  C1  SGN C   2     178.221  31.367  71.2290  0.00  0.00     0.000 C
ATOM     19  C2  SGN C   2     179.357  31.910  70.3540  0.00  0.00     0.000 C
ATOM     20  C3  SGN C   2     179.654  30.925  69.2170  0.00  0.00     0.000 C
ATOM     21  C4  SGN C   2     179.917  29.535  69.7820  0.00  0.00     0.000 C
ATOM     22  C5  SGN C   2     178.720  29.105  70.6250  0.00  0.00     0.000 C
ATOM     23  O5  SGN C   2     178.502  30.061  71.6870  0.00  0.00     0.000 O
ATOM     24   O  SGN C   2     180.761  31.383  68.4590  0.00  0.00     0.000 O
ATOM     26  HD  SGN C   2     179.978  31.038  68.5900  0.00  0.00     0.000 HD
BRANCH 19 28
ATOM     26   N  SGN C   2     179.078  33.353  70.3750  0.00  0.00     0.000 N
ATOM     28  HD  SGN C   2     178.814  33.081  71.1530  0.00  0.00     0.000 HD
ATOM     28   O  SGN C   2     179.698  35.660  69.6590  0.00  0.00     0.000 OA
ATOM     29   S  SGN C   2     180.245  34.453  70.4920  0.00  0.00     0.000 S
ATOM     30   O  SGN C   2     180.328  34.841  71.8480  0.00  0.00     0.000 OA
ATOM     31   O  SGN C   2     181.395  33.933  69.8380  0.00  0.00     0.000 OA
ENDBRANCH 19 28
BRANCH 22 32
ATOM     32   C  SGN C   2     178.904  27.759  71.2820  0.00  0.00     0.000 C
ATOM     33   S  SGN C   2     177.707  26.265  73.0080  0.00  0.00     0.000 S
ATOM     34   O  SGN C   2     178.175  27.056  74.1190  0.00  0.00     0.000 OA
ATOM     35   O  SGN C   2     176.347  25.794  73.1630  0.00  0.00     0.000 OA
ATOM     36   O  SGN C   2     178.628  25.235  72.5890  0.00  0.00     0.000 OA
ATOM     37   O  SGN C   2     177.647  27.295  71.7900  0.00  0.00     0.000 O
ENDBRANCH 22 32
BRANCH 18 38
ATOM     38  O4  IDS C   3     176.902  31.362  71.0230  0.00  0.00     0.000 O
BRANCH 38 42
ATOM     39  C1  IDS C   3     173.421  31.470  71.0700  0.00  0.00     0.000 C
ATOM     40  C2  IDS C   3     174.181  30.218  71.5360  0.00  0.00     0.000 C
ATOM     41  C3  IDS C   3     175.186  29.756  70.4810  0.00  0.00     0.000 C
ATOM     42  C4  IDS C   3     176.029  30.920  69.9770  0.00  0.00     0.000 C
ATOM     43  C5  IDS C   3     175.116  32.070  69.5360  0.00  0.00     0.000 C
ATOM     44  O5  IDS C   3     174.317  32.483  70.6440  0.00  0.00     0.000 O
ATOM     45   O  IDS C   3     174.484  29.160  69.3880  0.00  0.00     0.000 O
ATOM     47  HD  IDS C   3     173.850  29.415  68.8570  0.00  0.00     0.000 HD
BRANCH 40 47
ATOM     47   O  IDS C   3     174.939  30.501  72.7780  0.00  0.00     0.000 O
ATOM     48   S  IDS C   3     174.324  30.091  74.1960  0.00  0.00     0.000 S
ATOM     49   O  IDS C   3     173.318  31.087  74.4960  0.00  0.00     0.000 OA
ATOM     50   O  IDS C   3     175.436  30.133  75.1200  0.00  0.00     0.000 OA
ATOM     51   O  IDS C   3     173.772  28.772  74.0340  0.00  0.00     0.000 OA
ENDBRANCH 40 47
BRANCH 43 52
ATOM     52   C  IDS C   3     175.886  33.255  68.9960  0.00  0.00     0.000 C
ATOM     53   O  IDS C   3     176.856  33.075  68.2960  0.00  0.00     0.000 OA
ATOM     54   O  IDS C   3     175.528  34.373  69.2650  0.00  0.00     0.000 OA
ENDBRANCH 43 52
BRANCH 39 55
ATOM     55  O4  SGN C   4     172.281  31.429  70.3800  0.00  0.00     0.000 O
BRANCH 55 59
ATOM     56  C1  SGN C   4     168.901  30.770  72.7560  0.00  0.00     0.000 C
ATOM     57  C2  SGN C   4     169.142  29.771  71.6110  0.00  0.00     0.000 C
ATOM     58  C3  SGN C   4     170.573  29.879  71.0900  0.00  0.00     0.000 C
ATOM     59  C4  SGN C   4     170.917  31.328  70.7630  0.00  0.00     0.000 C
ATOM     60  C5  SGN C   4     170.659  32.185  72.0010  0.00  0.00     0.000 C
ATOM     61  O5  SGN C   4     169.263  32.077  72.3430  0.00  0.00     0.000 O
ATOM     62   O  SGN C   4     170.724  29.057  69.9410  0.00  0.00     0.000 O
ATOM     64  HD  SGN C   4     170.101  28.671  70.4030  0.00  0.00     0.000 HD
BRANCH 57 66
ATOM     64   N  SGN C   4     168.350  28.825  72.4130  0.00  0.00     0.000 N
ATOM     66  HD  SGN C   4     167.514  28.610  72.4810  0.00  0.00     0.000 HD
ATOM     66   S  SGN C   4     167.373  27.780  71.7050  0.00  0.00     0.000 S
ATOM     67   O  SGN C   4     166.711  27.057  72.7280  0.00  0.00     0.000 OA
ATOM     68   O  SGN C   4     166.605  28.507  70.7540  0.00  0.00     0.000 OA
ATOM     69   O  SGN C   4     168.343  26.825  70.9390  0.00  0.00     0.000 OA
ENDBRANCH 57 66
BRANCH 60 70
ATOM     70   C  SGN C   4     170.975  33.652  71.8050  0.00  0.00     0.000 C
ATOM     71   O  SGN C   4     168.938  36.162  69.8930  0.00  0.00     0.000 OA
ATOM     72   O  SGN C   4     169.037  35.862  72.2910  0.00  0.00     0.000 OA
ATOM     73   O  SGN C   4     170.075  34.238  70.8450  0.00  0.00     0.000 O
ATOM     74   S  SGN C   4     169.745  35.792  71.0330  0.00  0.00     0.000 S
ATOM     75   O  SGN C   4     171.039  36.444  71.0610  0.00  0.00     0.000 OA
ENDBRANCH 60 70
BRANCH 56 76
ATOM     76  O4  IDS C   5     168.980  30.731  74.0990  0.00  0.00     0.000 O
BRANCH 76 80
ATOM     77  C1  IDS C   5     169.428  30.612  78.1540  0.00  0.00     0.000 C
ATOM     78  C2  IDS C   5     169.867  31.925  77.5050  0.00  0.00     0.000 C
ATOM     79  C3  IDS C   5     169.268  32.038  76.1170  0.00  0.00     0.000 C
ATOM     80  C4  IDS C   5     169.850  30.949  75.2200  0.00  0.00     0.000 C
ATOM     81  C5  IDS C   5     170.014  29.656  76.0310  0.00  0.00     0.000 C
ATOM     82  O5  IDS C   5     169.121  29.646  77.1480  0.00  0.00     0.000 O
BRANCH 78 83
ATOM     83   O  IDS C   5     169.411  33.084  78.3080  0.00  0.00     0.000 O
ATOM     84   S  IDS C   5     170.480  34.116  78.8880  0.00  0.00     0.000 S
ATOM     85   O  IDS C   5     171.498  33.318  79.5180  0.00  0.00     0.000 OA
ATOM     86   O  IDS C   5     170.961  34.848  77.7400  0.00  0.00     0.000 OA
ATOM     87   O  IDS C   5     169.754  34.950  79.8150  0.00  0.00     0.000 OA
ENDBRANCH 78 83
BRANCH 81 88
ATOM     88   C  IDS C   5     169.760  28.391  75.2310  0.00  0.00     0.000 C
ATOM     89   O  IDS C   5     170.587  28.000  74.4510  0.00  0.00     0.000 OA
ATOM     90   O  IDS C   5     168.726  27.783  75.3850  0.00  0.00     0.000 OA
ENDBRANCH 81 88
ENDBRANCH 76 80
ENDBRANCH 56 76
ENDBRANCH 55 59
ENDBRANCH 39 55
ENDBRANCH 38 42
ENDBRANCH 18 38
ENDBRANCH 17 21
ENDBRANCH 1 17
TORSDOF 18
ENDMDL
MODEL 60
REMARK VINA RESULT:      -6.1     43.819     48.792
ROOT
ATOM      1  C1  IDS C   1     134.278  46.338  49.4740  0.00  0.00     0.000 C
ATOM      2  C2  IDS C   1     133.146  46.249  48.4460  0.00  0.00     0.000 C
ATOM      3  C3  IDS C   1     131.836  46.746  49.0400  0.00  0.00     0.000 C
ATOM      4  C4  IDS C   1     131.462  45.932  50.2710  0.00  0.00     0.000 C
ATOM      5  C5  IDS C   1     132.709  45.620  51.0910  0.00  0.00     0.000 C
ATOM      6  O5  IDS C   1     133.748  46.547  50.7770  0.00  0.00     0.000 O
ATOM      7   O  IDS C   1     130.794  46.657  48.0580  0.00  0.00     0.000 O
ATOM      9  HD  IDS C   1     131.132  46.848  47.2840  0.00  0.00     0.000 HD
ENDROOT
BRANCH 2 9
ATOM      9   O  IDS C   1     133.444  47.085  47.2600  0.00  0.00     0.000 O
ATOM     10   S  IDS C   1     133.467  46.413  45.8140  0.00  0.00     0.000 S
ATOM     11   O  IDS C   1     133.769  47.480  44.8860  0.00  0.00     0.000 OA
ATOM     12   O  IDS C   1     134.505  45.404  45.8700  0.00  0.00     0.000 OA
ATOM     13   O  IDS C   1     132.148  45.854  45.6170  0.00  0.00     0.000 OA
ENDBRANCH 2 9
BRANCH 5 14
ATOM     14   C  IDS C   1     132.443  45.684  52.5850  0.00  0.00     0.000 C
ATOM     15   O  IDS C   1     132.274  44.661  53.2030  0.00  0.00     0.000 OA
ATOM     16   O  IDS C   1     132.401  46.766  53.1470  0.00  0.00     0.000 OA
ENDBRANCH 5 14
BRANCH 1 17
ATOM     17  O4  SGN C   2     135.502  46.781  49.1720  0.00  0.00     0.000 O
BRANCH 17 21
ATOM     18  C1  SGN C   2     138.559  49.639  49.2820  0.00  0.00     0.000 C
ATOM     19  C2  SGN C   2     137.308  49.939  50.1180  0.00  0.00     0.000 C
ATOM     20  C3  SGN C   2     136.495  48.654  50.3150  0.00  0.00     0.000 C
ATOM     21  C4  SGN C   2     136.199  48.007  48.9670  0.00  0.00     0.000 C
ATOM     22  C5  SGN C   2     137.515  47.755  48.2370  0.00  0.00     0.000 C
ATOM     23  O5  SGN C   2     138.226  49.003  48.0660  0.00  0.00     0.000 O
ATOM     24   O  SGN C   2     135.295  48.944  51.0130  0.00  0.00     0.000 O
ATOM     26  HD  SGN C   2     136.008  48.495  50.8140  0.00  0.00     0.000 HD
BRANCH 19 28
ATOM     26   N  SGN C   2     137.819  50.946  51.0580  0.00  0.00     0.000 N
ATOM     28  HD  SGN C   2     138.277  51.086  50.3370  0.00  0.00     0.000 HD
ATOM     28   O  SGN C   2     137.397  52.500  52.9630  0.00  0.00     0.000 OA
ATOM     29   S  SGN C   2     136.963  52.239  51.4810  0.00  0.00     0.000 S
ATOM     30   O  SGN C   2     137.403  53.320  50.6850  0.00  0.00     0.000 OA
ATOM     31   O  SGN C   2     135.590  51.871  51.4690  0.00  0.00     0.000 OA
ENDBRANCH 19 28
BRANCH 22 32
ATOM     32   C  SGN C   2     137.332  47.167  46.8590  0.00  0.00     0.000 C
ATOM     33   S  SGN C   2     138.515  45.499  45.2900  0.00  0.00     0.000 S
ATOM     34   O  SGN C   2     139.530  46.455  44.9270  0.00  0.00     0.000 OA
ATOM     35   O  SGN C   2     139.016  44.149  45.4460  0.00  0.00     0.000 OA
ATOM     36   O  SGN C   2     137.317  45.578  44.4870  0.00  0.00     0.000 OA
ATOM     37   O  SGN C   2     138.065  45.941  46.7570  0.00  0.00     0.000 O
ENDBRANCH 22 32
BRANCH 18 38
ATOM     38  O4  IDS C   3     139.717  49.078  49.6360  0.00  0.00     0.000 O
BRANCH 38 42
ATOM     39  C1  IDS C   3     142.188  47.570  51.5730  0.00  0.00     0.000 C
ATOM     40  C2  IDS C   3     141.320  48.706  52.1390  0.00  0.00     0.000 C
ATOM     41  C3  IDS C   3     141.331  49.924  51.2160  0.00  0.00     0.000 C
ATOM     42  C4  IDS C   3     141.072  49.521  49.7700  0.00  0.00     0.000 C
ATOM     43  C5  IDS C   3     142.032  48.397  49.3640  0.00  0.00     0.000 C
ATOM     44  O5  IDS C   3     141.837  47.280  50.2300  0.00  0.00     0.000 O
ATOM     45   O  IDS C   3     142.597  50.580  51.3140  0.00  0.00     0.000 O
ATOM     47  HD  IDS C   3     143.422  50.337  51.2140  0.00  0.00     0.000 HD
BRANCH 40 47
ATOM     47   O  IDS C   3     139.912  48.265  52.2780  0.00  0.00     0.000 O
ATOM     48   S  IDS C   3     139.415  47.605  53.6470  0.00  0.00     0.000 S
ATOM     49   O  IDS C   3     139.916  46.247  53.6380  0.00  0.00     0.000 OA
ATOM     50   O  IDS C   3     137.971  47.663  53.5960  0.00  0.00     0.000 OA
ATOM     51   O  IDS C   3     139.976  48.399  54.7080  0.00  0.00     0.000 OA
ENDBRANCH 40 47
BRANCH 43 52
ATOM     52   C  IDS C   3     141.851  47.962  47.9270  0.00  0.00     0.000 C
ATOM     53   O  IDS C   3     141.413  46.863  47.6790  0.00  0.00     0.000 OA
ATOM     54   O  IDS C   3     142.145  48.716  47.0340  0.00  0.00     0.000 OA
ENDBRANCH 43 52
BRANCH 39 55
ATOM     55  O4  SGN C   4     143.487  47.432  51.8360  0.00  0.00     0.000 O
BRANCH 55 59
ATOM     56  C1  SGN C   4     147.305  48.933  52.6570  0.00  0.00     0.000 C
ATOM     57  C2  SGN C   4     146.205  49.253  53.6840  0.00  0.00     0.000 C
ATOM     58  C3  SGN C   4     144.997  48.342  53.4840  0.00  0.00     0.000 C
ATOM     59  C4  SGN C   4     144.544  48.361  52.0290  0.00  0.00     0.000 C
ATOM     60  C5  SGN C   4     145.730  47.993  51.1400  0.00  0.00     0.000 C
ATOM     61  O5  SGN C   4     146.769  48.971  51.3440  0.00  0.00     0.000 O
ATOM     62   O  SGN C   4     143.943  48.755  54.3430  0.00  0.00     0.000 O
ATOM     64  HD  SGN C   4     144.665  48.994  54.7560  0.00  0.00     0.000 HD
BRANCH 57 66
ATOM     64   N  SGN C   4     145.996  49.894  54.9920  0.00  0.00     0.000 N
ATOM     66  HD  SGN C   4     146.318  49.805  55.7900  0.00  0.00     0.000 HD
ATOM     66   S  SGN C   4     147.227  50.502  55.8040  0.00  0.00     0.000 S
ATOM     67   O  SGN C   4     146.724  50.989  57.0370  0.00  0.00     0.000 OA
ATOM     68   O  SGN C   4     148.251  49.516  55.8080  0.00  0.00     0.000 OA
ATOM     69   O  SGN C   4     147.694  51.705  54.9240  0.00  0.00     0.000 OA
ENDBRANCH 57 66
BRANCH 60 70
ATOM     70   C  SGN C   4     145.402  47.969  49.6630  0.00  0.00     0.000 C
ATOM     71   O  SGN C   4     146.631  45.494  47.1200  0.00  0.00     0.000 OA
ATOM     72   O  SGN C   4     144.466  45.550  48.1950  0.00  0.00     0.000 OA
ATOM     73   O  SGN C   4     146.222  47.001  48.9800  0.00  0.00     0.000 O
ATOM     74   S  SGN C   4     145.584  46.312  47.6860  0.00  0.00     0.000 S
ATOM     75   O  SGN C   4     145.190  47.416  46.8340  0.00  0.00     0.000 OA
ENDBRANCH 60 70
BRANCH 56 76
ATOM     76  O4  IDS C   5     148.394  48.142  52.6280  0.00  0.00     0.000 O
BRANCH 76 80
ATOM     77  C1  IDS C   5     151.679  45.737  52.9170  0.00  0.00     0.000 C
ATOM     78  C2  IDS C   5     151.222  46.349  54.2410  0.00  0.00     0.000 C
ATOM     79  C3  IDS C   5     149.793  46.840  54.1150  0.00  0.00     0.000 C
ATOM     80  C4  IDS C   5     149.736  47.992  53.1160  0.00  0.00     0.000 C
ATOM     81  C5  IDS C   5     150.700  47.707  51.9560  0.00  0.00     0.000 C
ATOM     82  O5  IDS C   5     150.940  46.302  51.8340  0.00  0.00     0.000 O
BRANCH 78 83
ATOM     83   O  IDS C   5     151.278  45.344  55.3290  0.00  0.00     0.000 O
ATOM     84   S  IDS C   5     152.083  45.669  56.6670  0.00  0.00     0.000 S
ATOM     85   O  IDS C   5     153.367  46.163  56.2470  0.00  0.00     0.000 OA
ATOM     86   O  IDS C   5     151.290  46.661  57.3550  0.00  0.00     0.000 OA
ATOM     87   O  IDS C   5     152.161  44.422  57.3880  0.00  0.00     0.000 OA
ENDBRANCH 78 83
BRANCH 81 88
ATOM     88   C  IDS C   5     150.207  48.205  50.6090  0.00  0.00     0.000 C
ATOM     89   O  IDS C   5     149.714  47.434  49.8300  0.00  0.00     0.000 OA
ATOM     90   O  IDS C   5     150.312  49.377  50.3290  0.00  0.00     0.000 OA
ENDBRANCH 81 88
ENDBRANCH 76 80
ENDBRANCH 56 76
ENDBRANCH 55 59
ENDBRANCH 39 55
ENDBRANCH 38 42
ENDBRANCH 18 38
ENDBRANCH 17 21
ENDBRANCH 1 17
TORSDOF 18
ENDMDL
MODEL 61
REMARK VINA RESULT:      -6.1     34.056     40.110
ROOT
ATOM      1  C1  IDS C   1     128.632  31.027  73.5230  0.00  0.00     0.000 C
ATOM      2  C2  IDS C   1     129.134  32.314  74.1850  0.00  0.00     0.000 C
ATOM      3  C3  IDS C   1     128.036  32.958  75.0180  0.00  0.00     0.000 C
ATOM      4  C4  IDS C   1     126.824  33.278  74.1530  0.00  0.00     0.000 C
ATOM      5  C5  IDS C   1     126.588  32.156  73.1460  0.00  0.00     0.000 C
ATOM      6  O5  IDS C   1     127.214  30.954  73.5960  0.00  0.00     0.000 O
ATOM      7   O  IDS C   1     128.531  34.157  75.6300  0.00  0.00     0.000 O
ATOM      9  HD  IDS C   1     129.358  34.028  75.8510  0.00  0.00     0.000 HD
ENDROOT
BRANCH 2 9
ATOM      9   O  IDS C   1     130.272  32.032  75.0890  0.00  0.00     0.000 O
ATOM     10   S  IDS C   1     131.666  32.767  74.8460  0.00  0.00     0.000 S
ATOM     11   O  IDS C   1     132.550  32.295  75.8880  0.00  0.00     0.000 OA
ATOM     12   O  IDS C   1     132.093  32.367  73.5210  0.00  0.00     0.000 OA
ATOM     13   O  IDS C   1     131.389  34.183  74.9450  0.00  0.00     0.000 OA
ENDBRANCH 2 9
BRANCH 5 14
ATOM     14   C  IDS C   1     125.110  31.879  72.9330  0.00  0.00     0.000 C
ATOM     15   O  IDS C   1     124.525  32.435  72.0360  0.00  0.00     0.000 OA
ATOM     16   O  IDS C   1     124.528  31.100  73.6690  0.00  0.00     0.000 OA
ENDBRANCH 5 14
BRANCH 1 17
ATOM     17  O4  SGN C   2     129.356  29.906  73.4700  0.00  0.00     0.000 O
BRANCH 17 21
ATOM     18  C1  SGN C   2     130.067  25.833  74.1300  0.00  0.00     0.000 C
ATOM     19  C2  SGN C   2     128.623  26.317  74.3120  0.00  0.00     0.000 C
ATOM     20  C3  SGN C   2     128.444  27.684  73.6400  0.00  0.00     0.000 C
ATOM     21  C4  SGN C   2     129.494  28.662  74.1520  0.00  0.00     0.000 C
ATOM     22  C5  SGN C   2     130.882  28.074  73.9120  0.00  0.00     0.000 C
ATOM     23  O5  SGN C   2     130.994  26.797  74.5820  0.00  0.00     0.000 O
ATOM     24   O  SGN C   2     127.135  28.172  73.8810  0.00  0.00     0.000 O
ATOM     26  HD  SGN C   2     127.847  28.006  73.4170  0.00  0.00     0.000 HD
BRANCH 19 28
ATOM     26   N  SGN C   2     127.877  25.055  74.2100  0.00  0.00     0.000 N
ATOM     28  HD  SGN C   2     128.630  24.821  74.5700  0.00  0.00     0.000 HD
ATOM     28   O  SGN C   2     125.691  23.855  74.2540  0.00  0.00     0.000 OA
ATOM     29   S  SGN C   2     126.630  24.714  75.1660  0.00  0.00     0.000 S
ATOM     30   O  SGN C   2     127.108  23.900  76.2170  0.00  0.00     0.000 OA
ATOM     31   O  SGN C   2     125.972  25.938  75.4700  0.00  0.00     0.000 OA
ENDBRANCH 19 28
BRANCH 22 32
ATOM     32   C  SGN C   2     131.999  28.942  74.4380  0.00  0.00     0.000 C
ATOM     33   S  SGN C   2     134.417  28.684  75.2910  0.00  0.00     0.000 S
ATOM     34   O  SGN C   2     133.984  28.179  76.5700  0.00  0.00     0.000 OA
ATOM     35   O  SGN C   2     135.602  28.029  74.7790  0.00  0.00     0.000 OA
ATOM     36   O  SGN C   2     134.478  30.124  75.2170  0.00  0.00     0.000 OA
ATOM     37   O  SGN C   2     133.250  28.261  74.2870  0.00  0.00     0.000 O
ENDBRANCH 22 32
BRANCH 18 38
ATOM     38  O4  IDS C   3     130.663  25.280  73.0720  0.00  0.00     0.000 O
BRANCH 38 42
ATOM     39  C1  IDS C   3     131.070  23.718  69.9870  0.00  0.00     0.000 C
ATOM     40  C2  IDS C   3     129.931  23.312  70.9360  0.00  0.00     0.000 C
ATOM     41  C3  IDS C   3     130.463  22.994  72.3330  0.00  0.00     0.000 C
ATOM     42  C4  IDS C   3     131.407  24.082  72.8240  0.00  0.00     0.000 C
ATOM     43  C5  IDS C   3     132.488  24.347  71.7690  0.00  0.00     0.000 C
ATOM     44  O5  IDS C   3     131.864  24.748  70.5510  0.00  0.00     0.000 O
ATOM     45   O  IDS C   3     131.146  21.739  72.3050  0.00  0.00     0.000 O
ATOM     47  HD  IDS C   3     131.799  21.408  71.8420  0.00  0.00     0.000 HD
BRANCH 40 47
ATOM     47   O  IDS C   3     128.951  24.415  71.0740  0.00  0.00     0.000 O
ATOM     48   S  IDS C   3     127.435  24.194  70.6130  0.00  0.00     0.000 S
ATOM     49   O  IDS C   3     127.442  24.283  69.1690  0.00  0.00     0.000 OA
ATOM     50   O  IDS C   3     126.690  25.270  71.2300  0.00  0.00     0.000 OA
ATOM     51   O  IDS C   3     127.050  22.893  71.0900  0.00  0.00     0.000 OA
ENDBRANCH 40 47
BRANCH 43 52
ATOM     52   C  IDS C   3     133.483  25.401  72.2010  0.00  0.00     0.000 C
ATOM     53   O  IDS C   3     134.237  25.178  73.1200  0.00  0.00     0.000 OA
ATOM     54   O  IDS C   3     133.519  26.459  71.6260  0.00  0.00     0.000 OA
ENDBRANCH 43 52
BRANCH 39 55
ATOM     55  O4  SGN C   4     131.756  22.850  69.2430  0.00  0.00     0.000 O
BRANCH 55 59
ATOM     56  C1  SGN C   4     132.089  19.969  66.2270  0.00  0.00     0.000 C
ATOM     57  C2  SGN C   4     131.722  21.394  65.7790  0.00  0.00     0.000 C
ATOM     58  C3  SGN C   4     132.018  22.403  66.8860  0.00  0.00     0.000 C
ATOM     59  C4  SGN C   4     131.386  21.959  68.2000  0.00  0.00     0.000 C
ATOM     60  C5  SGN C   4     131.870  20.547  68.5250  0.00  0.00     0.000 C
ATOM     61  O5  SGN C   4     131.454  19.670  67.4600  0.00  0.00     0.000 O
ATOM     62   O  SGN C   4     131.534  23.683  66.5040  0.00  0.00     0.000 O
ATOM     64  HD  SGN C   4     131.715  23.288  65.7550  0.00  0.00     0.000 HD
BRANCH 57 66
ATOM     64   N  SGN C   4     131.945  20.760  64.4700  0.00  0.00     0.000 N
ATOM     66  HD  SGN C   4     131.477  20.622  63.7540  0.00  0.00     0.000 HD
ATOM     66   S  SGN C   4     131.652  21.560  63.1200  0.00  0.00     0.000 S
ATOM     67   O  SGN C   4     131.899  20.676  62.0400  0.00  0.00     0.000 OA
ATOM     68   O  SGN C   4     130.366  22.152  63.2590  0.00  0.00     0.000 OA
ATOM     69   O  SGN C   4     132.727  22.694  63.1200  0.00  0.00     0.000 OA
ENDBRANCH 57 66
BRANCH 60 70
ATOM     70   C  SGN C   4     131.316  19.995  69.8210  0.00  0.00     0.000 C
ATOM     71   O  SGN C   4     132.485  16.928  71.6480  0.00  0.00     0.000 OA
ATOM     72   O  SGN C   4     132.988  19.236  72.1690  0.00  0.00     0.000 OA
ATOM     73   O  SGN C   4     131.879  18.698  70.0990  0.00  0.00     0.000 O
ATOM     74   S  SGN C   4     132.024  18.298  71.6400  0.00  0.00     0.000 S
ATOM     75   O  SGN C   4     130.694  18.463  72.1920  0.00  0.00     0.000 OA
ENDBRANCH 60 70
BRANCH 56 76
ATOM     76  O4  IDS C   5     133.173  19.178  66.1250  0.00  0.00     0.000 O
BRANCH 76 80
ATOM     77  C1  IDS C   5     133.505  16.780  62.8390  0.00  0.00     0.000 C
ATOM     78  C2  IDS C   5     132.995  16.071  64.0930  0.00  0.00     0.000 C
ATOM     79  C3  IDS C   5     132.497  17.093  65.0950  0.00  0.00     0.000 C
ATOM     80  C4  IDS C   5     133.666  17.944  65.5810  0.00  0.00     0.000 C
ATOM     81  C5  IDS C   5     134.617  18.218  64.4070  0.00  0.00     0.000 C
ATOM     82  O5  IDS C   5     133.924  18.106  63.1610  0.00  0.00     0.000 O
BRANCH 78 83
ATOM     83   O  IDS C   5     131.877  15.157  63.7590  0.00  0.00     0.000 O
ATOM     84   S  IDS C   5     132.083  13.579  63.8690  0.00  0.00     0.000 S
ATOM     85   O  IDS C   5     133.313  13.292  63.1810  0.00  0.00     0.000 OA
ATOM     86   O  IDS C   5     132.148  13.304  65.2850  0.00  0.00     0.000 OA
ATOM     87   O  IDS C   5     130.926  12.990  63.2400  0.00  0.00     0.000 OA
ENDBRANCH 78 83
BRANCH 81 88
ATOM     88   C  IDS C   5     135.267  19.589  64.4480  0.00  0.00     0.000 C
ATOM     89   O  IDS C   5     136.089  19.838  65.2890  0.00  0.00     0.000 OA
ATOM     90   O  IDS C   5     134.952  20.425  63.6320  0.00  0.00     0.000 OA
ENDBRANCH 81 88
ENDBRANCH 76 80
ENDBRANCH 56 76
ENDBRANCH 55 59
ENDBRANCH 39 55
ENDBRANCH 38 42
ENDBRANCH 18 38
ENDBRANCH 17 21
ENDBRANCH 1 17
TORSDOF 18
ENDMDL
MODEL 62
REMARK VINA RESULT:      -5.9     48.743     54.539
ROOT
ATOM      1  C1  IDS C   1     131.252  45.137  59.2490  0.00  0.00     0.000 C
ATOM      2  C2  IDS C   1     130.940  44.278  60.4780  0.00  0.00     0.000 C
ATOM      3  C3  IDS C   1     131.207  45.052  61.7600  0.00  0.00     0.000 C
ATOM      4  C4  IDS C   1     132.658  45.507  61.8210  0.00  0.00     0.000 C
ATOM      5  C5  IDS C   1     133.125  45.954  60.4390  0.00  0.00     0.000 C
ATOM      6  O5  IDS C   1     132.000  46.286  59.6250  0.00  0.00     0.000 O
ATOM      7   O  IDS C   1     130.904  44.229  62.8960  0.00  0.00     0.000 O
ATOM      9  HD  IDS C   1     130.213  43.743  62.7030  0.00  0.00     0.000 HD
ENDROOT
BRANCH 2 9
ATOM      9   O  IDS C   1     129.516  43.871  60.4900  0.00  0.00     0.000 O
ATOM     10   S  IDS C   1     129.144  42.322  60.5520  0.00  0.00     0.000 S
ATOM     11   O  IDS C   1     127.699  42.262  60.5640  0.00  0.00     0.000 OA
ATOM     12   O  IDS C   1     129.724  41.734  59.3620  0.00  0.00     0.000 OA
ATOM     13   O  IDS C   1     129.736  41.823  61.7740  0.00  0.00     0.000 OA
ENDBRANCH 2 9
BRANCH 5 14
ATOM     14   C  IDS C   1     134.043  47.162  60.5070  0.00  0.00     0.000 C
ATOM     15   O  IDS C   1     134.155  47.765  61.5460  0.00  0.00     0.000 OA
ATOM     16   O  IDS C   1     134.657  47.513  59.5130  0.00  0.00     0.000 OA
ENDBRANCH 5 14
BRANCH 1 17
ATOM     17  O4  SGN C   2     130.464  45.177  58.1710  0.00  0.00     0.000 O
BRANCH 17 21
ATOM     18  C1  SGN C   2     127.794  46.973  55.4930  0.00  0.00     0.000 C
ATOM     19  C2  SGN C   2     128.540  47.910  56.4520  0.00  0.00     0.000 C
ATOM     20  C3  SGN C   2     129.753  47.185  57.0480  0.00  0.00     0.000 C
ATOM     21  C4  SGN C   2     129.318  45.868  57.6810  0.00  0.00     0.000 C
ATOM     22  C5  SGN C   2     128.596  45.026  56.6330  0.00  0.00     0.000 C
ATOM     23  O5  SGN C   2     127.456  45.754  56.1210  0.00  0.00     0.000 O
ATOM     24   O  SGN C   2     130.393  48.018  57.9990  0.00  0.00     0.000 O
ATOM     26  HD  SGN C   2     130.344  47.455  57.3430  0.00  0.00     0.000 HD
BRANCH 19 28
ATOM     26   N  SGN C   2     128.381  49.205  55.7760  0.00  0.00     0.000 N
ATOM     28  HD  SGN C   2     127.647  48.785  55.5910  0.00  0.00     0.000 HD
ATOM     28   O  SGN C   2     128.826  51.659  55.7290  0.00  0.00     0.000 OA
ATOM     29   S  SGN C   2     128.100  50.566  56.5850  0.00  0.00     0.000 S
ATOM     30   O  SGN C   2     126.709  50.808  56.5410  0.00  0.00     0.000 OA
ATOM     31   O  SGN C   2     128.756  50.465  57.8420  0.00  0.00     0.000 OA
ENDBRANCH 19 28
BRANCH 22 32
ATOM     32   C  SGN C   2     128.071  43.719  57.1740  0.00  0.00     0.000 C
ATOM     33   S  SGN C   2     126.258  41.976  56.6090  0.00  0.00     0.000 S
ATOM     34   O  SGN C   2     125.200  42.806  57.1300  0.00  0.00     0.000 OA
ATOM     35   O  SGN C   2     125.892  41.254  55.4090  0.00  0.00     0.000 OA
ATOM     36   O  SGN C   2     126.901  41.150  57.6030  0.00  0.00     0.000 OA
ATOM     37   O  SGN C   2     127.376  43.013  56.1380  0.00  0.00     0.000 O
ENDBRANCH 22 32
BRANCH 18 38
ATOM     38  O4  IDS C   3     128.077  46.622  54.2370  0.00  0.00     0.000 O
BRANCH 38 42
ATOM     39  C1  IDS C   3     129.513  45.617  51.2270  0.00  0.00     0.000 C
ATOM     40  C2  IDS C   3     130.055  46.833  51.9960  0.00  0.00     0.000 C
ATOM     41  C3  IDS C   3     128.936  47.820  52.3280  0.00  0.00     0.000 C
ATOM     42  C4  IDS C   3     127.735  47.108  52.9340  0.00  0.00     0.000 C
ATOM     43  C5  IDS C   3     127.315  45.940  52.0340  0.00  0.00     0.000 C
ATOM     44  O5  IDS C   3     128.410  45.035  51.9020  0.00  0.00     0.000 O
ATOM     45   O  IDS C   3     128.541  48.505  51.1380  0.00  0.00     0.000 O
ATOM     47  HD  IDS C   3     128.266  48.261  50.3540  0.00  0.00     0.000 HD
BRANCH 40 47
ATOM     47   O  IDS C   3     130.668  46.408  53.2770  0.00  0.00     0.000 O
ATOM     48   S  IDS C   3     132.208  45.978  53.3180  0.00  0.00     0.000 S
ATOM     49   O  IDS C   3     132.263  44.643  52.7640  0.00  0.00     0.000 OA
ATOM     50   O  IDS C   3     132.575  46.013  54.7170  0.00  0.00     0.000 OA
ATOM     51   O  IDS C   3     132.920  46.942  52.5220  0.00  0.00     0.000 OA
ENDBRANCH 40 47
BRANCH 43 52
ATOM     52   C  IDS C   3     126.105  45.200  52.5600  0.00  0.00     0.000 C
ATOM     53   O  IDS C   3     125.002  45.675  52.4240  0.00  0.00     0.000 OA
ATOM     54   O  IDS C   3     126.248  44.138  53.1120  0.00  0.00     0.000 OA
ENDBRANCH 43 52
BRANCH 39 55
ATOM     55  O4  SGN C   4     129.426  45.563  49.8980  0.00  0.00     0.000 O
BRANCH 55 59
ATOM     56  C1  SGN C   4     131.147  46.400  46.1770  0.00  0.00     0.000 C
ATOM     57  C2  SGN C   4     132.096  46.391  47.3870  0.00  0.00     0.000 C
ATOM     58  C3  SGN C   4     131.444  45.700  48.5820  0.00  0.00     0.000 C
ATOM     59  C4  SGN C   4     130.062  46.284  48.8530  0.00  0.00     0.000 C
ATOM     60  C5  SGN C   4     129.231  46.191  47.5750  0.00  0.00     0.000 C
ATOM     61  O5  SGN C   4     129.895  46.954  46.5470  0.00  0.00     0.000 O
ATOM     62   O  SGN C   4     132.279  45.837  49.7240  0.00  0.00     0.000 O
ATOM     64  HD  SGN C   4     132.825  45.858  49.0530  0.00  0.00     0.000 HD
BRANCH 57 66
ATOM     64   N  SGN C   4     133.080  47.099  46.5530  0.00  0.00     0.000 N
ATOM     66  HD  SGN C   4     133.826  47.518  46.6860  0.00  0.00     0.000 HD
ATOM     66   S  SGN C   4     134.625  46.702  46.6070  0.00  0.00     0.000 S
ATOM     67   O  SGN C   4     135.322  47.590  45.7500  0.00  0.00     0.000 OA
ATOM     68   O  SGN C   4     134.988  46.625  47.9800  0.00  0.00     0.000 OA
ATOM     69   O  SGN C   4     134.659  45.262  46.0000  0.00  0.00     0.000 OA
ENDBRANCH 57 66
BRANCH 60 70
ATOM     70   C  SGN C   4     127.826  46.734  47.7190  0.00  0.00     0.000 C
ATOM     71   O  SGN C   4     124.629  44.996  46.7900  0.00  0.00     0.000 OA
ATOM     72   O  SGN C   4     125.580  45.251  48.9980  0.00  0.00     0.000 OA
ATOM     73   O  SGN C   4     126.880  45.867  47.0650  0.00  0.00     0.000 O
ATOM     74   S  SGN C   4     125.406  45.824  47.6830  0.00  0.00     0.000 S
ATOM     75   O  SGN C   4     124.975  47.208  47.7090  0.00  0.00     0.000 OA
ENDBRANCH 60 70
BRANCH 56 76
ATOM     76  O4  IDS C   5     130.940  45.605  45.1110  0.00  0.00     0.000 O
BRANCH 76 80
ATOM     77  C1  IDS C   5     130.294  42.965  42.0660  0.00  0.00     0.000 C
ATOM     78  C2  IDS C   5     130.339  42.332  43.4560  0.00  0.00     0.000 C
ATOM     79  C3  IDS C   5     130.139  43.399  44.5140  0.00  0.00     0.000 C
ATOM     80  C4  IDS C   5     131.319  44.366  44.4920  0.00  0.00     0.000 C
ATOM     81  C5  IDS C   5     131.755  44.604  43.0390  0.00  0.00     0.000 C
ATOM     82  O5  IDS C   5     130.673  44.340  42.1400  0.00  0.00     0.000 O
BRANCH 78 83
ATOM     83   O  IDS C   5     129.267  41.319  43.6040  0.00  0.00     0.000 O
ATOM     84   S  IDS C   5     129.638  39.830  44.0420  0.00  0.00     0.000 S
ATOM     85   O  IDS C   5     130.725  39.427  43.1900  0.00  0.00     0.000 OA
ATOM     86   O  IDS C   5     130.013  39.927  45.4330  0.00  0.00     0.000 OA
ATOM     87   O  IDS C   5     128.439  39.054  43.8410  0.00  0.00     0.000 OA
ENDBRANCH 78 83
BRANCH 81 88
ATOM     88   C  IDS C   5     132.242  46.015  42.7650  0.00  0.00     0.000 C
ATOM     89   O  IDS C   5     133.254  46.409  43.2810  0.00  0.00     0.000 OA
ATOM     90   O  IDS C   5     131.609  46.735  42.0270  0.00  0.00     0.000 OA
ENDBRANCH 81 88
ENDBRANCH 76 80
ENDBRANCH 56 76
ENDBRANCH 55 59
ENDBRANCH 39 55
ENDBRANCH 38 42
ENDBRANCH 18 38
ENDBRANCH 17 21
ENDBRANCH 1 17
TORSDOF 18
ENDMDL
MODEL 63
REMARK VINA RESULT:      -5.9     36.383     42.201
ROOT
ATOM      1  C1  IDS C   1     152.820  45.301  56.5260  0.00  0.00     0.000 C
ATOM      2  C2  IDS C   1     153.770  45.981  57.5160  0.00  0.00     0.000 C
ATOM      3  C3  IDS C   1     153.910  45.153  58.7850  0.00  0.00     0.000 C
ATOM      4  C4  IDS C   1     152.554  44.951  59.4470  0.00  0.00     0.000 C
ATOM      5  C5  IDS C   1     151.484  44.716  58.3860  0.00  0.00     0.000 C
ATOM      6  O5  IDS C   1     152.086  44.269  57.1720  0.00  0.00     0.000 O
ATOM      7   O  IDS C   1     154.807  45.807  59.6940  0.00  0.00     0.000 O
ATOM      9  HD  IDS C   1     155.436  46.182  59.2330  0.00  0.00     0.000 HD
ENDROOT
BRANCH 2 9
ATOM      9   O  IDS C   1     155.121  46.133  56.9310  0.00  0.00     0.000 O
ATOM     10   S  IDS C   1     155.762  47.588  56.8070  0.00  0.00     0.000 S
ATOM     11   O  IDS C   1     157.069  47.397  56.2190  0.00  0.00     0.000 OA
ATOM     12   O  IDS C   1     154.863  48.339  55.9540  0.00  0.00     0.000 OA
ATOM     13   O  IDS C   1     155.824  48.108  58.1560  0.00  0.00     0.000 OA
ENDBRANCH 2 9
BRANCH 5 14
ATOM     14   C  IDS C   1     150.460  43.682  58.8240  0.00  0.00     0.000 C
ATOM     15   O  IDS C   1     149.666  43.963  59.6890  0.00  0.00     0.000 OA
ATOM     16   O  IDS C   1     150.450  42.580  58.3020  0.00  0.00     0.000 OA
ENDBRANCH 5 14
BRANCH 1 17
ATOM     17  O4  SGN C   2     153.070  45.222  55.2160  0.00  0.00     0.000 O
BRANCH 17 21
ATOM     18  C1  SGN C   2     154.380  43.204  51.7900  0.00  0.00     0.000 C
ATOM     19  C2  SGN C   2     154.316  42.387  53.0860  0.00  0.00     0.000 C
ATOM     20  C3  SGN C   2     153.441  43.113  54.1150  0.00  0.00     0.000 C
ATOM     21  C4  SGN C   2     153.933  44.542  54.3080  0.00  0.00     0.000 C
ATOM     22  C5  SGN C   2     153.947  45.250  52.9560  0.00  0.00     0.000 C
ATOM     23  O5  SGN C   2     154.800  44.530  52.0360  0.00  0.00     0.000 O
ATOM     24   O  SGN C   2     153.450  42.403  55.3430  0.00  0.00     0.000 O
ATOM     26  HD  SGN C   2     153.104  42.853  54.6890  0.00  0.00     0.000 HD
BRANCH 19 28
ATOM     26   N  SGN C   2     154.308  41.013  52.5650  0.00  0.00     0.000 N
ATOM     28  HD  SGN C   2     154.790  41.448  51.9920  0.00  0.00     0.000 HD
ATOM     28   O  SGN C   2     154.253  38.559  53.0100  0.00  0.00     0.000 OA
ATOM     29   S  SGN C   2     155.139  39.825  53.2610  0.00  0.00     0.000 S
ATOM     30   O  SGN C   2     156.350  39.678  52.5480  0.00  0.00     0.000 OA
ATOM     31   O  SGN C   2     155.174  40.084  54.6590  0.00  0.00     0.000 OA
ENDBRANCH 19 28
BRANCH 22 32
ATOM     32   C  SGN C   2     154.476  46.662  53.0250  0.00  0.00     0.000 C
ATOM     33   S  SGN C   2     155.427  48.456  51.4370  0.00  0.00     0.000 S
ATOM     34   O  SGN C   2     156.709  47.803  51.3570  0.00  0.00     0.000 OA
ATOM     35   O  SGN C   2     154.986  49.027  50.1820  0.00  0.00     0.000 OA
ATOM     36   O  SGN C   2     155.294  49.357  52.5570  0.00  0.00     0.000 OA
ATOM     37   O  SGN C   2     154.400  47.269  51.7300  0.00  0.00     0.000 O
ENDBRANCH 22 32
BRANCH 18 38
ATOM     38  O4  IDS C   3     153.491  43.324  50.8020  0.00  0.00     0.000 O
BRANCH 38 42
ATOM     39  C1  IDS C   3     151.366  43.072  48.0540  0.00  0.00     0.000 C
ATOM     40  C2  IDS C   3     152.535  44.070  48.0630  0.00  0.00     0.000 C
ATOM     41  C3  IDS C   3     152.505  44.946  49.3150  0.00  0.00     0.000 C
ATOM     42  C4  IDS C   3     152.314  44.106  50.5700  0.00  0.00     0.000 C
ATOM     43  C5  IDS C   3     151.099  43.186  50.4000  0.00  0.00     0.000 C
ATOM     44  O5  IDS C   3     151.308  42.342  49.2680  0.00  0.00     0.000 O
ATOM     45   O  IDS C   3     151.443  45.895  49.2030  0.00  0.00     0.000 O
ATOM     47  HD  IDS C   3     150.590  45.845  49.0630  0.00  0.00     0.000 HD
BRANCH 40 47
ATOM     47   O  IDS C   3     153.832  43.352  48.0520  0.00  0.00     0.000 O
ATOM     48   S  IDS C   3     154.810  43.496  46.7960  0.00  0.00     0.000 S
ATOM     49   O  IDS C   3     154.253  42.653  45.7600  0.00  0.00     0.000 OA
ATOM     50   O  IDS C   3     156.097  43.024  47.2600  0.00  0.00     0.000 OA
ATOM     51   O  IDS C   3     154.813  44.889  46.4390  0.00  0.00     0.000 OA
ENDBRANCH 40 47
BRANCH 43 52
ATOM     52   C  IDS C   3     150.830  42.338  51.6230  0.00  0.00     0.000 C
ATOM     53   O  IDS C   3     150.222  42.805  52.5580  0.00  0.00     0.000 OA
ATOM     54   O  IDS C   3     151.223  41.200  51.6590  0.00  0.00     0.000 OA
ENDBRANCH 43 52
BRANCH 39 55
ATOM     55  O4  SGN C   4     150.172  43.338  47.5230  0.00  0.00     0.000 O
BRANCH 55 59
ATOM     56  C1  SGN C   4     148.429  40.056  45.6000  0.00  0.00     0.000 C
ATOM     57  C2  SGN C   4     149.078  41.118  44.6950  0.00  0.00     0.000 C
ATOM     58  C3  SGN C   4     150.000  42.027  45.5030  0.00  0.00     0.000 C
ATOM     59  C4  SGN C   4     149.274  42.579  46.7250  0.00  0.00     0.000 C
ATOM     60  C5  SGN C   4     148.718  41.410  47.5350  0.00  0.00     0.000 C
ATOM     61  O5  SGN C   4     147.794  40.682  46.7030  0.00  0.00     0.000 O
ATOM     62   O  SGN C   4     150.468  43.085  44.6780  0.00  0.00     0.000 O
ATOM     64  HD  SGN C   4     150.321  42.431  44.1300  0.00  0.00     0.000 HD
BRANCH 57 66
ATOM     64   N  SGN C   4     149.379  40.085  43.6900  0.00  0.00     0.000 N
ATOM     66  HD  SGN C   4     148.939  39.667  43.0720  0.00  0.00     0.000 HD
ATOM     66   S  SGN C   4     149.052  40.334  42.1480  0.00  0.00     0.000 S
ATOM     67   O  SGN C   4     149.392  39.151  41.4450  0.00  0.00     0.000 OA
ATOM     68   O  SGN C   4     147.720  40.829  42.0800  0.00  0.00     0.000 OA
ATOM     69   O  SGN C   4     150.033  41.480  41.7410  0.00  0.00     0.000 OA
ENDBRANCH 57 66
BRANCH 60 70
ATOM     70   C  SGN C   4     147.978  41.832  48.7870  0.00  0.00     0.000 C
ATOM     71   O  SGN C   4     146.667  45.259  49.5860  0.00  0.00     0.000 OA
ATOM     72   O  SGN C   4     145.415  43.351  48.7860  0.00  0.00     0.000 OA
ATOM     73   O  SGN C   4     147.822  43.263  48.8230  0.00  0.00     0.000 O
ATOM     74   S  SGN C   4     146.528  43.821  49.5790  0.00  0.00     0.000 S
ATOM     75   O  SGN C   4     146.587  43.229  50.9000  0.00  0.00     0.000 OA
ENDBRANCH 60 70
BRANCH 56 76
ATOM     76  O4  IDS C   5     148.719  38.792  45.9600  0.00  0.00     0.000 O
BRANCH 76 80
ATOM     77  C1  IDS C   5     148.446  34.726  45.7330  0.00  0.00     0.000 C
ATOM     78  C2  IDS C   5     147.104  35.446  45.8700  0.00  0.00     0.000 C
ATOM     79  C3  IDS C   5     147.266  36.909  45.5070  0.00  0.00     0.000 C
ATOM     80  C4  IDS C   5     148.176  37.590  46.5250  0.00  0.00     0.000 C
ATOM     81  C5  IDS C   5     149.304  36.627  46.9240  0.00  0.00     0.000 C
ATOM     82  O5  IDS C   5     149.519  35.653  45.8980  0.00  0.00     0.000 O
BRANCH 78 83
ATOM     83   O  IDS C   5     146.094  34.847  44.9660  0.00  0.00     0.000 O
ATOM     84   S  IDS C   5     144.944  33.919  45.5650  0.00  0.00     0.000 S
ATOM     85   O  IDS C   5     145.605  32.976  46.4260  0.00  0.00     0.000 OA
ATOM     86   O  IDS C   5     144.065  34.818  46.2760  0.00  0.00     0.000 OA
ATOM     87   O  IDS C   5     144.307  33.302  44.4270  0.00  0.00     0.000 OA
ENDBRANCH 78 83
BRANCH 81 88
ATOM     88   C  IDS C   5     150.632  37.311  47.1910  0.00  0.00     0.000 C
ATOM     89   O  IDS C   5     150.760  38.013  48.1580  0.00  0.00     0.000 OA
ATOM     90   O  IDS C   5     151.555  37.145  46.4270  0.00  0.00     0.000 OA
ENDBRANCH 81 88
ENDBRANCH 76 80
ENDBRANCH 56 76
ENDBRANCH 55 59
ENDBRANCH 39 55
ENDBRANCH 38 42
ENDBRANCH 18 38
ENDBRANCH 17 21
ENDBRANCH 1 17
TORSDOF 18
ENDMDL
MODEL 64
REMARK VINA RESULT:      -5.8     50.123     55.224
ROOT
ATOM      1  C1  IDS C   1     130.872  45.383  51.0210  0.00  0.00     0.000 C
ATOM      2  C2  IDS C   1     130.727  46.473  52.0860  0.00  0.00     0.000 C
ATOM      3  C3  IDS C   1     131.564  47.693  51.7280  0.00  0.00     0.000 C
ATOM      4  C4  IDS C   1     133.032  47.315  51.5920  0.00  0.00     0.000 C
ATOM      5  C5  IDS C   1     133.163  45.958  50.9090  0.00  0.00     0.000 C
ATOM      6  O5  IDS C   1     131.976  45.664  50.1710  0.00  0.00     0.000 O
ATOM      7   O  IDS C   1     131.409  48.701  52.7370  0.00  0.00     0.000 O
ATOM      9  HD  IDS C   1     130.589  48.683  53.0160  0.00  0.00     0.000 HD
ENDROOT
BRANCH 2 9
ATOM      9   O  IDS C   1     129.319  46.916  52.2000  0.00  0.00     0.000 O
ATOM     10   S  IDS C   1     128.634  46.989  53.6380  0.00  0.00     0.000 S
ATOM     11   O  IDS C   1     127.287  47.462  53.4120  0.00  0.00     0.000 OA
ATOM     12   O  IDS C   1     128.678  45.638  54.1590  0.00  0.00     0.000 OA
ATOM     13   O  IDS C   1     129.432  47.916  54.4090  0.00  0.00     0.000 OA
ENDBRANCH 2 9
BRANCH 5 14
ATOM     14   C  IDS C   1     134.346  45.906  49.9580  0.00  0.00     0.000 C
ATOM     15   O  IDS C   1     134.152  45.755  48.7760  0.00  0.00     0.000 OA
ATOM     16   O  IDS C   1     135.479  46.014  50.3950  0.00  0.00     0.000 OA
ENDBRANCH 5 14
BRANCH 1 17
ATOM     17  O4  SGN C   2     129.837  44.676  50.5590  0.00  0.00     0.000 O
BRANCH 17 21
ATOM     18  C1  SGN C   2     127.044  43.448  47.6910  0.00  0.00     0.000 C
ATOM     19  C2  SGN C   2     128.290  44.175  47.1700  0.00  0.00     0.000 C
ATOM     20  C3  SGN C   2     129.381  44.175  48.2480  0.00  0.00     0.000 C
ATOM     21  C4  SGN C   2     128.832  44.744  49.5510  0.00  0.00     0.000 C
ATOM     22  C5  SGN C   2     127.604  43.939  49.9670  0.00  0.00     0.000 C
ATOM     23  O5  SGN C   2     126.608  43.990  48.9200  0.00  0.00     0.000 O
ATOM     24   O  SGN C   2     130.501  44.921  47.8000  0.00  0.00     0.000 O
ATOM     26  HD  SGN C   2     130.087  44.262  48.1800  0.00  0.00     0.000 HD
BRANCH 19 28
ATOM     26   N  SGN C   2     128.272  43.803  45.7480  0.00  0.00     0.000 N
ATOM     28  HD  SGN C   2     127.434  43.884  45.9500  0.00  0.00     0.000 HD
ATOM     28   O  SGN C   2     129.348  43.901  43.5000  0.00  0.00     0.000 OA
ATOM     29   S  SGN C   2     128.706  44.827  44.5870  0.00  0.00     0.000 S
ATOM     30   O  SGN C   2     127.526  45.394  44.0570  0.00  0.00     0.000 OA
ATOM     31   O  SGN C   2     129.717  45.675  45.1150  0.00  0.00     0.000 OA
ENDBRANCH 19 28
BRANCH 22 32
ATOM     32   C  SGN C   2     126.945  44.459  51.2210  0.00  0.00     0.000 C
ATOM     33   S  SGN C   2     124.985  43.845  52.7780  0.00  0.00     0.000 S
ATOM     34   O  SGN C   2     124.002  44.351  51.8540  0.00  0.00     0.000 OA
ATOM     35   O  SGN C   2     124.576  42.631  53.4540  0.00  0.00     0.000 OA
ATOM     36   O  SGN C   2     125.526  44.845  53.6690  0.00  0.00     0.000 OA
ATOM     37   O  SGN C   2     126.207  43.404  51.8500  0.00  0.00     0.000 O
ENDBRANCH 22 32
BRANCH 18 38
ATOM     38  O4  IDS C   3     126.793  42.142  47.8060  0.00  0.00     0.000 O
BRANCH 38 42
ATOM     39  C1  IDS C   3     127.074  38.702  47.3410  0.00  0.00     0.000 C
ATOM     40  C2  IDS C   3     127.286  39.679  46.1730  0.00  0.00     0.000 C
ATOM     41  C3  IDS C   3     126.110  40.646  46.0420  0.00  0.00     0.000 C
ATOM     42  C4  IDS C   3     125.747  41.259  47.3870  0.00  0.00     0.000 C
ATOM     43  C5  IDS C   3     125.553  40.148  48.4280  0.00  0.00     0.000 C
ATOM     44  O5  IDS C   3     126.760  39.396  48.5370  0.00  0.00     0.000 O
ATOM     45   O  IDS C   3     124.982  39.950  45.5080  0.00  0.00     0.000 O
ATOM     47  HD  IDS C   3     124.538  39.241  45.7320  0.00  0.00     0.000 HD
BRANCH 40 47
ATOM     47   O  IDS C   3     128.508  40.490  46.3890  0.00  0.00     0.000 O
ATOM     48   S  IDS C   3     129.685  40.459  45.3060  0.00  0.00     0.000 S
ATOM     49   O  IDS C   3     130.387  39.211  45.5190  0.00  0.00     0.000 OA
ATOM     50   O  IDS C   3     130.505  41.613  45.6030  0.00  0.00     0.000 OA
ATOM     51   O  IDS C   3     129.052  40.529  44.0160  0.00  0.00     0.000 OA
ENDBRANCH 40 47
BRANCH 43 52
ATOM     52   C  IDS C   3     125.161  40.682  49.7880  0.00  0.00     0.000 C
ATOM     53   O  IDS C   3     125.725  40.279  50.7790  0.00  0.00     0.000 OA
ATOM     54   O  IDS C   3     124.289  41.508  49.8770  0.00  0.00     0.000 OA
ENDBRANCH 43 52
BRANCH 39 55
ATOM     55  O4  SGN C   4     126.458  37.526  47.2180  0.00  0.00     0.000 O
BRANCH 55 59
ATOM     56  C1  SGN C   4     125.457  33.719  48.6340  0.00  0.00     0.000 C
ATOM     57  C2  SGN C   4     124.470  34.853  48.9560  0.00  0.00     0.000 C
ATOM     58  C3  SGN C   4     124.734  36.068  48.0700  0.00  0.00     0.000 C
ATOM     59  C4  SGN C   4     126.206  36.462  48.1250  0.00  0.00     0.000 C
ATOM     60  C5  SGN C   4     127.053  35.248  47.7510  0.00  0.00     0.000 C
ATOM     61  O5  SGN C   4     126.789  34.201  48.7070  0.00  0.00     0.000 O
ATOM     62   O  SGN C   4     123.910  37.149  48.4870  0.00  0.00     0.000 O
ATOM     64  HD  SGN C   4     123.464  36.439  48.7060  0.00  0.00     0.000 HD
BRANCH 57 66
ATOM     64   N  SGN C   4     123.023  34.588  48.9120  0.00  0.00     0.000 N
ATOM     66  HD  SGN C   4     122.509  33.899  49.0250  0.00  0.00     0.000 HD
ATOM     66   S  SGN C   4     122.287  33.897  50.1480  0.00  0.00     0.000 S
ATOM     67   O  SGN C   4     120.927  33.719  49.7880  0.00  0.00     0.000 OA
ATOM     68   O  SGN C   4     123.066  32.765  50.5170  0.00  0.00     0.000 OA
ATOM     69   O  SGN C   4     122.387  34.965  51.2840  0.00  0.00     0.000 OA
ENDBRANCH 57 66
BRANCH 60 70
ATOM     70   C  SGN C   4     128.543  35.516  47.7600  0.00  0.00     0.000 C
ATOM     71   O  SGN C   4     131.175  33.688  45.8020  0.00  0.00     0.000 OA
ATOM     72   O  SGN C   4     130.199  35.844  45.3040  0.00  0.00     0.000 OA
ATOM     73   O  SGN C   4     129.246  34.481  47.0470  0.00  0.00     0.000 O
ATOM     74   S  SGN C   4     130.608  34.909  46.3270  0.00  0.00     0.000 S
ATOM     75   O  SGN C   4     131.407  35.512  47.3750  0.00  0.00     0.000 OA
ENDBRANCH 60 70
BRANCH 56 76
ATOM     76  O4  IDS C   5     125.457  32.643  47.8250  0.00  0.00     0.000 O
BRANCH 76 80
ATOM     77  C1  IDS C   5     124.035  29.095  49.2530  0.00  0.00     0.000 C
ATOM     78  C2  IDS C   5     125.556  29.230  49.2940  0.00  0.00     0.000 C
ATOM     79  C3  IDS C   5     125.946  30.690  49.1710  0.00  0.00     0.000 C
ATOM     80  C4  IDS C   5     125.548  31.211  47.7940  0.00  0.00     0.000 C
ATOM     81  C5  IDS C   5     124.200  30.598  47.3880  0.00  0.00     0.000 C
ATOM     82  O5  IDS C   5     123.462  30.195  48.5460  0.00  0.00     0.000 O
BRANCH 78 83
ATOM     83   O  IDS C   5     126.095  28.708  50.5720  0.00  0.00     0.000 O
ATOM     84   S  IDS C   5     127.284  27.644  50.5550  0.00  0.00     0.000 S
ATOM     85   O  IDS C   5     126.894  26.629  49.6130  0.00  0.00     0.000 OA
ATOM     86   O  IDS C   5     128.450  28.387  50.1380  0.00  0.00     0.000 OA
ATOM     87   O  IDS C   5     127.390  27.155  51.9080  0.00  0.00     0.000 OA
ENDBRANCH 78 83
BRANCH 81 88
ATOM     88   C  IDS C   5     123.314  31.533  46.5850  0.00  0.00     0.000 C
ATOM     89   O  IDS C   5     123.563  31.746  45.4280  0.00  0.00     0.000 OA
ATOM     90   O  IDS C   5     122.362  32.058  47.1140  0.00  0.00     0.000 OA
ENDBRANCH 81 88
ENDBRANCH 76 80
ENDBRANCH 56 76
ENDBRANCH 55 59
ENDBRANCH 39 55
ENDBRANCH 38 42
ENDBRANCH 18 38
ENDBRANCH 17 21
ENDBRANCH 1 17
TORSDOF 18
ENDMDL
MODEL 65
REMARK VINA RESULT:      -5.8     46.434     51.005
ROOT
ATOM      1  C1  IDS C   1     123.260  35.076  66.9110  0.00  0.00     0.000 C
ATOM      2  C2  IDS C   1     122.544  33.793  66.4780  0.00  0.00     0.000 C
ATOM      3  C3  IDS C   1     121.670  33.257  67.6010  0.00  0.00     0.000 C
ATOM      4  C4  IDS C   1     122.504  32.972  68.8420  0.00  0.00     0.000 C
ATOM      5  C5  IDS C   1     123.559  34.058  69.0240  0.00  0.00     0.000 C
ATOM      6  O5  IDS C   1     123.174  35.240  68.3200  0.00  0.00     0.000 O
ATOM      7   O  IDS C   1     121.008  32.059  67.1710  0.00  0.00     0.000 O
ATOM      9  HD  IDS C   1     120.802  32.147  66.3340  0.00  0.00     0.000 HD
ENDROOT
BRANCH 2 9
ATOM      9   O  IDS C   1     121.668  34.046  65.3120  0.00  0.00     0.000 O
ATOM     10   S  IDS C   1     121.869  33.192  63.9800  0.00  0.00     0.000 S
ATOM     11   O  IDS C   1     120.866  33.664  63.0520  0.00  0.00     0.000 OA
ATOM     12   O  IDS C   1     123.221  33.471  63.5390  0.00  0.00     0.000 OA
ATOM     13   O  IDS C   1     121.674  31.811  64.3630  0.00  0.00     0.000 OA
ENDBRANCH 2 9
BRANCH 5 14
ATOM     14   C  IDS C   1     123.769  34.415  70.4860  0.00  0.00     0.000 C
ATOM     15   O  IDS C   1     124.706  35.107  70.8000  0.00  0.00     0.000 OA
ATOM     16   O  IDS C   1     122.991  33.999  71.3280  0.00  0.00     0.000 OA
ENDBRANCH 5 14
BRANCH 1 17
ATOM     17  O4  SGN C   2     123.374  36.148  66.1210  0.00  0.00     0.000 O
BRANCH 17 21
ATOM     18  C1  SGN C   2     122.115  39.765  64.4310  0.00  0.00     0.000 C
ATOM     19  C2  SGN C   2     121.364  39.294  65.6830  0.00  0.00     0.000 C
ATOM     20  C3  SGN C   2     122.187  38.223  66.4100  0.00  0.00     0.000 C
ATOM     21  C4  SGN C   2     122.554  37.100  65.4470  0.00  0.00     0.000 C
ATOM     22  C5  SGN C   2     123.297  37.690  64.2520  0.00  0.00     0.000 C
ATOM     23  O5  SGN C   2     122.466  38.678  63.6000  0.00  0.00     0.000 O
ATOM     24   O  SGN C   2     121.458  37.724  67.5180  0.00  0.00     0.000 O
ATOM     26  HD  SGN C   2     122.155  38.009  67.0900  0.00  0.00     0.000 HD
BRANCH 19 28
ATOM     26   N  SGN C   2     120.201  40.013  66.2190  0.00  0.00     0.000 N
ATOM     28  HD  SGN C   2     119.891  39.224  66.0410  0.00  0.00     0.000 HD
ATOM     28   O  SGN C   2     119.283  41.733  67.7760  0.00  0.00     0.000 OA
ATOM     29   S  SGN C   2     120.057  40.371  67.7800  0.00  0.00     0.000 S
ATOM     30   O  SGN C   2     119.234  39.386  68.3680  0.00  0.00     0.000 OA
ATOM     31   O  SGN C   2     121.363  40.594  68.2940  0.00  0.00     0.000 OA
ENDBRANCH 19 28
BRANCH 22 32
ATOM     32   C  SGN C   2     123.657  36.665  63.2050  0.00  0.00     0.000 C
ATOM     33   S  SGN C   2     123.409  36.320  60.6630  0.00  0.00     0.000 S
ATOM     34   O  SGN C   2     122.019  35.956  60.7790  0.00  0.00     0.000 OA
ATOM     35   O  SGN C   2     123.702  37.134  59.5020  0.00  0.00     0.000 OA
ATOM     36   O  SGN C   2     124.324  35.216  60.8370  0.00  0.00     0.000 OA
ATOM     37   O  SGN C   2     123.669  37.280  61.9120  0.00  0.00     0.000 O
ENDBRANCH 22 32
BRANCH 18 38
ATOM     38  O4  IDS C   3     123.140  40.611  64.3080  0.00  0.00     0.000 O
BRANCH 38 42
ATOM     39  C1  IDS C   3     126.187  42.297  64.2670  0.00  0.00     0.000 C
ATOM     40  C2  IDS C   3     125.555  41.836  65.5900  0.00  0.00     0.000 C
ATOM     41  C3  IDS C   3     124.109  42.317  65.7100  0.00  0.00     0.000 C
ATOM     42  C4  IDS C   3     123.324  42.025  64.4390  0.00  0.00     0.000 C
ATOM     43  C5  IDS C   3     124.084  42.568  63.2220  0.00  0.00     0.000 C
ATOM     44  O5  IDS C   3     125.369  41.952  63.1610  0.00  0.00     0.000 O
ATOM     45   O  IDS C   3     124.099  43.722  65.9710  0.00  0.00     0.000 O
ATOM     47  HD  IDS C   3     124.433  44.419  65.5820  0.00  0.00     0.000 HD
BRANCH 40 47
ATOM     47   O  IDS C   3     125.539  40.356  65.6700  0.00  0.00     0.000 O
ATOM     48   S  IDS C   3     126.407  39.610  66.7880  0.00  0.00     0.000 S
ATOM     49   O  IDS C   3     127.775  39.643  66.3160  0.00  0.00     0.000 OA
ATOM     50   O  IDS C   3     125.875  38.266  66.8490  0.00  0.00     0.000 OA
ATOM     51   O  IDS C   3     126.220  40.349  68.0080  0.00  0.00     0.000 OA
ENDBRANCH 40 47
BRANCH 43 52
ATOM     52   C  IDS C   3     123.348  42.338  61.9210  0.00  0.00     0.000 C
ATOM     53   O  IDS C   3     123.817  41.601  61.0850  0.00  0.00     0.000 OA
ATOM     54   O  IDS C   3     122.296  42.892  61.7240  0.00  0.00     0.000 OA
ENDBRANCH 43 52
BRANCH 39 55
ATOM     55  O4  SGN C   4     126.835  43.453  64.1210  0.00  0.00     0.000 O
BRANCH 55 59
ATOM     56  C1  SGN C   4     128.930  43.919  60.5300  0.00  0.00     0.000 C
ATOM     57  C2  SGN C   4     129.675  43.209  61.6740  0.00  0.00     0.000 C
ATOM     58  C3  SGN C   4     128.699  42.757  62.7570  0.00  0.00     0.000 C
ATOM     59  C4  SGN C   4     127.805  43.913  63.1910  0.00  0.00     0.000 C
ATOM     60  C5  SGN C   4     127.112  44.488  61.9570  0.00  0.00     0.000 C
ATOM     61  O5  SGN C   4     128.126  44.965  61.0510  0.00  0.00     0.000 O
ATOM     62   O  SGN C   4     129.424  42.241  63.8650  0.00  0.00     0.000 O
ATOM     64  HD  SGN C   4     129.938  42.094  63.1830  0.00  0.00     0.000 HD
BRANCH 57 66
ATOM     64   N  SGN C   4     130.496  42.087  61.1930  0.00  0.00     0.000 N
ATOM     66  HD  SGN C   4     131.006  41.932  60.5110  0.00  0.00     0.000 HD
ATOM     66   S  SGN C   4     132.038  42.301  60.8420  0.00  0.00     0.000 S
ATOM     67   O  SGN C   4     132.538  41.068  60.3530  0.00  0.00     0.000 OA
ATOM     68   O  SGN C   4     132.121  43.462  60.0250  0.00  0.00     0.000 OA
ATOM     69   O  SGN C   4     132.694  42.615  62.2250  0.00  0.00     0.000 OA
ENDBRANCH 57 66
BRANCH 60 70
ATOM     70   C  SGN C   4     126.183  45.643  62.2610  0.00  0.00     0.000 C
ATOM     71   O  SGN C   4     124.593  47.972  59.7810  0.00  0.00     0.000 OA
ATOM     72   O  SGN C   4     123.568  46.092  60.9050  0.00  0.00     0.000 OA
ATOM     73   O  SGN C   4     125.948  46.427  61.0760  0.00  0.00     0.000 O
ATOM     74   S  SGN C   4     124.533  47.166  60.9780  0.00  0.00     0.000 S
ATOM     75   O  SGN C   4     124.437  47.945  62.1960  0.00  0.00     0.000 OA
ENDBRANCH 60 70
BRANCH 56 76
ATOM     76  O4  IDS C   5     128.399  43.546  59.3510  0.00  0.00     0.000 O
BRANCH 76 80
ATOM     77  C1  IDS C   5     126.187  42.863  55.9900  0.00  0.00     0.000 C
ATOM     78  C2  IDS C   5     125.363  43.050  57.2640  0.00  0.00     0.000 C
ATOM     79  C3  IDS C   5     126.209  43.718  58.3300  0.00  0.00     0.000 C
ATOM     80  C4  IDS C   5     127.347  42.786  58.7370  0.00  0.00     0.000 C
ATOM     81  C5  IDS C   5     127.872  42.051  57.4950  0.00  0.00     0.000 C
ATOM     82  O5  IDS C   5     127.576  42.795  56.3090  0.00  0.00     0.000 O
BRANCH 78 83
ATOM     83   O  IDS C   5     124.180  43.902  57.0030  0.00  0.00     0.000 O
ATOM     84   S  IDS C   5     122.723  43.253  56.9860  0.00  0.00     0.000 S
ATOM     85   O  IDS C   5     122.817  42.091  56.1440  0.00  0.00     0.000 OA
ATOM     86   O  IDS C   5     122.436  42.933  58.3650  0.00  0.00     0.000 OA
ATOM     87   O  IDS C   5     121.848  44.270  56.4570  0.00  0.00     0.000 OA
ENDBRANCH 78 83
BRANCH 81 88
ATOM     88   C  IDS C   5     129.368  41.798  57.5150  0.00  0.00     0.000 C
ATOM     89   O  IDS C   5     130.085  42.385  56.7500  0.00  0.00     0.000 OA
ATOM     90   O  IDS C   5     129.831  41.007  58.3050  0.00  0.00     0.000 OA
ENDBRANCH 81 88
ENDBRANCH 76 80
ENDBRANCH 56 76
ENDBRANCH 55 59
ENDBRANCH 39 55
ENDBRANCH 38 42
ENDBRANCH 18 38
ENDBRANCH 17 21
ENDBRANCH 1 17
TORSDOF 18
ENDMDL
MODEL 66
REMARK VINA RESULT:      -5.8     28.495     32.312
ROOT
ATOM      1  C1  IDS C   1     154.255  45.668  63.7580  0.00  0.00     0.000 C
ATOM      2  C2  IDS C   1     155.453  46.163  62.9420  0.00  0.00     0.000 C
ATOM      3  C3  IDS C   1     155.061  47.349  62.0720  0.00  0.00     0.000 C
ATOM      4  C4  IDS C   1     153.931  46.971  61.1260  0.00  0.00     0.000 C
ATOM      5  C5  IDS C   1     152.931  46.066  61.8390  0.00  0.00     0.000 C
ATOM      6  O5  IDS C   1     153.048  46.225  63.2530  0.00  0.00     0.000 O
ATOM      7   O  IDS C   1     156.199  47.797  61.3220  0.00  0.00     0.000 O
ATOM      9  HD  IDS C   1     156.903  47.713  61.8190  0.00  0.00     0.000 HD
ENDROOT
BRANCH 2 9
ATOM      9   O  IDS C   1     156.550  46.605  63.8320  0.00  0.00     0.000 O
ATOM     10   S  IDS C   1     158.001  45.965  63.6630  0.00  0.00     0.000 S
ATOM     11   O  IDS C   1     158.835  46.608  64.6550  0.00  0.00     0.000 OA
ATOM     12   O  IDS C   1     157.832  44.546  63.9030  0.00  0.00     0.000 OA
ATOM     13   O  IDS C   1     158.410  46.263  62.3080  0.00  0.00     0.000 OA
ENDBRANCH 2 9
BRANCH 5 14
ATOM     14   C  IDS C   1     151.497  46.367  61.4380  0.00  0.00     0.000 C
ATOM     15   O  IDS C   1     150.630  46.352  62.2780  0.00  0.00     0.000 OA
ATOM     16   O  IDS C   1     151.234  46.619  60.2740  0.00  0.00     0.000 OA
ENDBRANCH 5 14
BRANCH 1 17
ATOM     17  O4  SGN C   2     154.345  45.324  65.0460  0.00  0.00     0.000 O
BRANCH 17 21
ATOM     18  C1  SGN C   2     153.768  45.831  69.1610  0.00  0.00     0.000 C
ATOM     19  C2  SGN C   2     152.923  46.714  68.2350  0.00  0.00     0.000 C
ATOM     20  C3  SGN C   2     152.927  46.133  66.8160  0.00  0.00     0.000 C
ATOM     21  C4  SGN C   2     154.359  45.926  66.3370  0.00  0.00     0.000 C
ATOM     22  C5  SGN C   2     155.092  45.032  67.3330  0.00  0.00     0.000 C
ATOM     23  O5  SGN C   2     155.069  45.639  68.6450  0.00  0.00     0.000 O
ATOM     24   O  SGN C   2     152.218  46.993  65.9400  0.00  0.00     0.000 O
ATOM     26  HD  SGN C   2     152.465  46.237  66.2810  0.00  0.00     0.000 HD
BRANCH 19 28
ATOM     26   N  SGN C   2     151.835  47.123  69.1350  0.00  0.00     0.000 N
ATOM     28  HD  SGN C   2     152.517  47.036  69.6620  0.00  0.00     0.000 HD
ATOM     28   O  SGN C   2     149.740  48.426  69.5000  0.00  0.00     0.000 OA
ATOM     29   S  SGN C   2     151.254  48.622  69.1550  0.00  0.00     0.000 S
ATOM     30   O  SGN C   2     151.876  49.306  70.2230  0.00  0.00     0.000 OA
ATOM     31   O  SGN C   2     151.355  49.142  67.8350  0.00  0.00     0.000 OA
ENDBRANCH 19 28
BRANCH 22 32
ATOM     32   C  SGN C   2     156.543  44.810  66.9820  0.00  0.00     0.000 C
ATOM     33   S  SGN C   2     158.755  44.217  68.1650  0.00  0.00     0.000 S
ATOM     34   O  SGN C   2     158.914  45.552  68.6850  0.00  0.00     0.000 OA
ATOM     35   O  SGN C   2     159.156  43.180  69.0920  0.00  0.00     0.000 OA
ATOM     36   O  SGN C   2     159.288  44.036  66.8350  0.00  0.00     0.000 OA
ATOM     37   O  SGN C   2     157.176  44.040  68.0110  0.00  0.00     0.000 O
ENDBRANCH 22 32
BRANCH 18 38
ATOM     38  O4  IDS C   3     153.476  44.666  69.7440  0.00  0.00     0.000 O
BRANCH 38 42
ATOM     39  C1  IDS C   3     152.329  41.987  71.6510  0.00  0.00     0.000 C
ATOM     40  C2  IDS C   3     153.818  42.368  71.6360  0.00  0.00     0.000 C
ATOM     41  C3  IDS C   3     154.349  42.466  70.2060  0.00  0.00     0.000 C
ATOM     42  C4  IDS C   3     153.422  43.297  69.3290  0.00  0.00     0.000 C
ATOM     43  C5  IDS C   3     151.986  42.771  69.4480  0.00  0.00     0.000 C
ATOM     44  O5  IDS C   3     151.573  42.844  70.8120  0.00  0.00     0.000 O
ATOM     45   O  IDS C   3     154.481  41.153  69.6590  0.00  0.00     0.000 O
ATOM     47  HD  IDS C   3     153.948  40.478  69.5510  0.00  0.00     0.000 HD
BRANCH 40 47
ATOM     47   O  IDS C   3     154.024  43.688  72.2780  0.00  0.00     0.000 O
ATOM     48   S  IDS C   3     154.917  43.799  73.6000  0.00  0.00     0.000 S
ATOM     49   O  IDS C   3     154.084  43.321  74.6830  0.00  0.00     0.000 OA
ATOM     50   O  IDS C   3     155.236  45.204  73.7270  0.00  0.00     0.000 OA
ATOM     51   O  IDS C   3     156.074  42.974  73.3800  0.00  0.00     0.000 OA
ENDBRANCH 40 47
BRANCH 43 52
ATOM     52   C  IDS C   3     151.009  43.533  68.5800  0.00  0.00     0.000 C
ATOM     53   O  IDS C   3     150.319  44.399  69.0660  0.00  0.00     0.000 OA
ATOM     54   O  IDS C   3     150.924  43.272  67.4070  0.00  0.00     0.000 OA
ENDBRANCH 43 52
BRANCH 39 55
ATOM     55  O4  SGN C   4     151.889  40.729  71.6800  0.00  0.00     0.000 O
BRANCH 55 59
ATOM     56  C1  SGN C   4     148.068  40.088  73.2590  0.00  0.00     0.000 C
ATOM     57  C2  SGN C   4     149.210  40.270  74.2740  0.00  0.00     0.000 C
ATOM     58  C3  SGN C   4     150.439  40.878  73.6030  0.00  0.00     0.000 C
ATOM     59  C4  SGN C   4     150.811  40.093  72.3500  0.00  0.00     0.000 C
ATOM     60  C5  SGN C   4     149.592  40.028  71.4320  0.00  0.00     0.000 C
ATOM     61  O5  SGN C   4     148.530  39.355  72.1360  0.00  0.00     0.000 O
ATOM     62   O  SGN C   4     151.523  40.896  74.5230  0.00  0.00     0.000 O
ATOM     64  HD  SGN C   4     150.815  40.945  75.0200  0.00  0.00     0.000 HD
BRANCH 57 66
ATOM     64   N  SGN C   4     148.103  40.579  75.1930  0.00  0.00     0.000 N
ATOM     66  HD  SGN C   4     147.661  40.154  75.8050  0.00  0.00     0.000 HD
ATOM     66   S  SGN C   4     148.261  40.338  76.7630  0.00  0.00     0.000 S
ATOM     67   O  SGN C   4     147.022  40.665  77.3690  0.00  0.00     0.000 OA
ATOM     68   O  SGN C   4     148.798  39.032  76.9320  0.00  0.00     0.000 OA
ATOM     69   O  SGN C   4     149.340  41.382  77.1920  0.00  0.00     0.000 OA
ENDBRANCH 57 66
BRANCH 60 70
ATOM     70   C  SGN C   4     149.839  39.277  70.1410  0.00  0.00     0.000 C
ATOM     71   O  SGN C   4     147.329  37.304  68.1640  0.00  0.00     0.000 OA
ATOM     72   O  SGN C   4     148.144  39.534  67.7040  0.00  0.00     0.000 OA
ATOM     73   O  SGN C   4     148.693  38.475  69.7970  0.00  0.00     0.000 O
ATOM     74   S  SGN C   4     148.440  38.224  68.2380  0.00  0.00     0.000 S
ATOM     75   O  SGN C   4     149.685  37.668  67.7460  0.00  0.00     0.000 OA
ENDBRANCH 60 70
BRANCH 56 76
ATOM     76  O4  IDS C   5     147.010  40.818  72.8610  0.00  0.00     0.000 O
BRANCH 76 80
ATOM     77  C1  IDS C   5     144.128  42.568  70.5620  0.00  0.00     0.000 C
ATOM     78  C2  IDS C   5     145.532  42.610  69.9600  0.00  0.00     0.000 C
ATOM     79  C3  IDS C   5     146.415  41.584  70.6420  0.00  0.00     0.000 C
ATOM     80  C4  IDS C   5     146.609  41.971  72.1050  0.00  0.00     0.000 C
ATOM     81  C5  IDS C   5     145.297  42.545  72.6580  0.00  0.00     0.000 C
ATOM     82  O5  IDS C   5     144.182  42.071  71.8990  0.00  0.00     0.000 O
BRANCH 78 83
ATOM     83   O  IDS C   5     145.490  42.302  68.5110  0.00  0.00     0.000 O
ATOM     84   S  IDS C   5     146.290  43.222  67.4810  0.00  0.00     0.000 S
ATOM     85   O  IDS C   5     145.944  44.579  67.8120  0.00  0.00     0.000 OA
ATOM     86   O  IDS C   5     147.683  42.920  67.7070  0.00  0.00     0.000 OA
ATOM     87   O  IDS C   5     145.840  42.823  66.1700  0.00  0.00     0.000 OA
ENDBRANCH 78 83
BRANCH 81 88
ATOM     88   C  IDS C   5     145.039  42.201  74.1140  0.00  0.00     0.000 C
ATOM     89   O  IDS C   5     144.158  41.437  74.4010  0.00  0.00     0.000 OA
ATOM     90   O  IDS C   5     145.725  42.699  74.9770  0.00  0.00     0.000 OA
ENDBRANCH 81 88
ENDBRANCH 76 80
ENDBRANCH 56 76
ENDBRANCH 55 59
ENDBRANCH 39 55
ENDBRANCH 38 42
ENDBRANCH 18 38
ENDBRANCH 17 21
ENDBRANCH 1 17
TORSDOF 18
ENDMDL
MODEL 67
REMARK VINA RESULT:      -5.8     27.662     32.209
ROOT
ATOM      1  C1  IDS C   1     165.868  34.013  48.8390  0.00  0.00     0.000 C
ATOM      2  C2  IDS C   1     164.751  33.036  48.4590  0.00  0.00     0.000 C
ATOM      3  C3  IDS C   1     165.170  32.170  47.2800  0.00  0.00     0.000 C
ATOM      4  C4  IDS C   1     165.515  33.033  46.0750  0.00  0.00     0.000 C
ATOM      5  C5  IDS C   1     166.262  34.285  46.5240  0.00  0.00     0.000 C
ATOM      6  O5  IDS C   1     166.846  34.073  47.8090  0.00  0.00     0.000 O
ATOM      7   O  IDS C   1     164.111  31.262  46.9460  0.00  0.00     0.000 O
ATOM      9  HD  IDS C   1     163.726  31.010  47.6800  0.00  0.00     0.000 HD
ENDROOT
BRANCH 2 9
ATOM      9   O  IDS C   1     164.435  32.132  49.5880  0.00  0.00     0.000 O
ATOM     10   S  IDS C   1     162.961  32.128  50.1980  0.00  0.00     0.000 S
ATOM     11   O  IDS C   1     162.974  31.144  51.2580  0.00  0.00     0.000 OA
ATOM     12   O  IDS C   1     162.736  33.475  50.6820  0.00  0.00     0.000 OA
ATOM     13   O  IDS C   1     162.083  31.767  49.1080  0.00  0.00     0.000 OA
ENDBRANCH 2 9
BRANCH 5 14
ATOM     14   C  IDS C   1     167.363  34.675  45.5530  0.00  0.00     0.000 C
ATOM     15   O  IDS C   1     168.494  34.307  45.7590  0.00  0.00     0.000 OA
ATOM     16   O  IDS C   1     167.097  35.355  44.5770  0.00  0.00     0.000 OA
ENDBRANCH 5 14
BRANCH 1 17
ATOM     17  O4  SGN C   2     166.216  34.262  50.1050  0.00  0.00     0.000 O
BRANCH 17 21
ATOM     18  C1  SGN C   2     168.733  33.503  53.3630  0.00  0.00     0.000 C
ATOM     19  C2  SGN C   2     168.897  32.591  52.1410  0.00  0.00     0.000 C
ATOM     20  C3  SGN C   2     168.239  33.238  50.9170  0.00  0.00     0.000 C
ATOM     21  C4  SGN C   2     166.792  33.603  51.2290  0.00  0.00     0.000 C
ATOM     22  C5  SGN C   2     166.761  34.512  52.4540  0.00  0.00     0.000 C
ATOM     23  O5  SGN C   2     167.379  33.841  53.5770  0.00  0.00     0.000 O
ATOM     24   O  SGN C   2     168.313  32.359  49.8080  0.00  0.00     0.000 O
ATOM     26  HD  SGN C   2     168.353  33.118  50.2220  0.00  0.00     0.000 HD
BRANCH 19 28
ATOM     26   N  SGN C   2     170.239  32.037  52.3680  0.00  0.00     0.000 N
ATOM     28  HD  SGN C   2     169.929  32.160  53.1680  0.00  0.00     0.000 HD
ATOM     28   O  SGN C   2     172.081  30.527  51.6270  0.00  0.00     0.000 OA
ATOM     29   S  SGN C   2     170.588  30.491  52.0970  0.00  0.00     0.000 S
ATOM     30   O  SGN C   2     170.519  29.815  53.3350  0.00  0.00     0.000 OA
ATOM     31   O  SGN C   2     169.781  30.051  51.0110  0.00  0.00     0.000 OA
ENDBRANCH 19 28
BRANCH 22 32
ATOM     32   C  SGN C   2     165.364  34.886  52.8860  0.00  0.00     0.000 C
ATOM     33   S  SGN C   2     163.589  36.680  52.3610  0.00  0.00     0.000 S
ATOM     34   O  SGN C   2     164.275  37.684  53.1350  0.00  0.00     0.000 OA
ATOM     35   O  SGN C   2     163.000  37.189  51.1400  0.00  0.00     0.000 OA
ATOM     36   O  SGN C   2     162.689  35.854  53.1330  0.00  0.00     0.000 OA
ATOM     37   O  SGN C   2     164.749  35.696  51.8770  0.00  0.00     0.000 O
ENDBRANCH 22 32
BRANCH 18 38
ATOM     38  O4  IDS C   3     169.401  34.606  53.7110  0.00  0.00     0.000 O
BRANCH 38 42
ATOM     39  C1  IDS C   3     170.343  37.105  55.9450  0.00  0.00     0.000 C
ATOM     40  C2  IDS C   3     170.308  37.368  54.4310  0.00  0.00     0.000 C
ATOM     41  C3  IDS C   3     171.105  36.311  53.6680  0.00  0.00     0.000 C
ATOM     42  C4  IDS C   3     170.738  34.907  54.1270  0.00  0.00     0.000 C
ATOM     43  C5  IDS C   3     170.844  34.814  55.6540  0.00  0.00     0.000 C
ATOM     44  O5  IDS C   3     169.964  35.772  56.2410  0.00  0.00     0.000 O
ATOM     45   O  IDS C   3     172.502  36.534  53.8710  0.00  0.00     0.000 O
ATOM     47  HD  IDS C   3     173.016  36.605  54.5640  0.00  0.00     0.000 HD
BRANCH 40 47
ATOM     47   O  IDS C   3     168.915  37.325  53.9270  0.00  0.00     0.000 O
ATOM     48   S  IDS C   3     168.180  38.680  53.5010  0.00  0.00     0.000 S
ATOM     49   O  IDS C   3     167.790  39.325  54.7360  0.00  0.00     0.000 OA
ATOM     50   O  IDS C   3     167.042  38.263  52.7110  0.00  0.00     0.000 OA
ATOM     51   O  IDS C   3     169.140  39.445  52.7510  0.00  0.00     0.000 OA
ENDBRANCH 40 47
BRANCH 43 52
ATOM     52   C  IDS C   3     170.519  33.435  56.1810  0.00  0.00     0.000 C
ATOM     53   O  IDS C   3     171.027  32.461  55.6760  0.00  0.00     0.000 OA
ATOM     54   O  IDS C   3     169.754  33.313  57.1040  0.00  0.00     0.000 OA
ENDBRANCH 43 52
BRANCH 39 55
ATOM     55  O4  SGN C   4     171.276  37.598  56.7590  0.00  0.00     0.000 O
BRANCH 55 59
ATOM     56  C1  SGN C   4     171.784  41.740  56.4500  0.00  0.00     0.000 C
ATOM     57  C2  SGN C   4     173.046  40.878  56.2790  0.00  0.00     0.000 C
ATOM     58  C3  SGN C   4     172.675  39.420  56.0190  0.00  0.00     0.000 C
ATOM     59  C4  SGN C   4     171.693  38.920  57.0720  0.00  0.00     0.000 C
ATOM     60  C5  SGN C   4     170.485  39.854  57.0990  0.00  0.00     0.000 C
ATOM     61  O5  SGN C   4     170.943  41.176  57.4440  0.00  0.00     0.000 O
ATOM     62   O  SGN C   4     173.852  38.623  56.0130  0.00  0.00     0.000 O
ATOM     64  HD  SGN C   4     174.119  39.406  55.7570  0.00  0.00     0.000 HD
BRANCH 57 66
ATOM     64   N  SGN C   4     173.564  42.152  55.7550  0.00  0.00     0.000 N
ATOM     66  HD  SGN C   4     174.133  42.750  56.0160  0.00  0.00     0.000 HD
ATOM     66   S  SGN C   4     175.135  42.385  55.5970  0.00  0.00     0.000 S
ATOM     67   O  SGN C   4     175.323  43.712  55.1340  0.00  0.00     0.000 OA
ATOM     68   O  SGN C   4     175.741  41.979  56.8180  0.00  0.00     0.000 OA
ATOM     69   O  SGN C   4     175.548  41.381  54.4740  0.00  0.00     0.000 OA
ENDBRANCH 57 66
BRANCH 60 70
ATOM     70   C  SGN C   4     169.427  39.455  58.1050  0.00  0.00     0.000 C
ATOM     71   O  SGN C   4     166.750  41.654  59.5560  0.00  0.00     0.000 OA
ATOM     72   O  SGN C   4     166.518  40.020  57.7890  0.00  0.00     0.000 OA
ATOM     73   O  SGN C   4     168.715  40.615  58.5770  0.00  0.00     0.000 O
ATOM     74   S  SGN C   4     167.193  40.391  59.0120  0.00  0.00     0.000 S
ATOM     75   O  SGN C   4     167.241  39.325  59.9920  0.00  0.00     0.000 OA
ENDBRANCH 60 70
BRANCH 56 76
ATOM     76  O4  IDS C   5     171.011  42.486  55.6390  0.00  0.00     0.000 O
BRANCH 76 80
ATOM     77  C1  IDS C   5     167.975  44.531  53.8340  0.00  0.00     0.000 C
ATOM     78  C2  IDS C   5     167.562  43.192  54.4460  0.00  0.00     0.000 C
ATOM     79  C3  IDS C   5     168.610  42.738  55.4430  0.00  0.00     0.000 C
ATOM     80  C4  IDS C   5     169.917  42.443  54.7110  0.00  0.00     0.000 C
ATOM     81  C5  IDS C   5     170.119  43.477  53.5950  0.00  0.00     0.000 C
ATOM     82  O5  IDS C   5     169.394  44.676  53.8830  0.00  0.00     0.000 O
BRANCH 78 83
ATOM     83   O  IDS C   5     166.266  43.317  55.1530  0.00  0.00     0.000 O
ATOM     84   S  IDS C   5     164.995  42.510  54.6270  0.00  0.00     0.000 S
ATOM     85   O  IDS C   5     164.928  42.758  53.2110  0.00  0.00     0.000 OA
ATOM     86   O  IDS C   5     165.263  41.129  54.9490  0.00  0.00     0.000 OA
ATOM     87   O  IDS C   5     163.867  43.042  55.3530  0.00  0.00     0.000 OA
ENDBRANCH 78 83
BRANCH 81 88
ATOM     88   C  IDS C   5     171.570  43.862  53.3680  0.00  0.00     0.000 C
ATOM     89   O  IDS C   5     172.340  43.056  52.9200  0.00  0.00     0.000 OA
ATOM     90   O  IDS C   5     171.941  44.981  53.6390  0.00  0.00     0.000 OA
ENDBRANCH 81 88
ENDBRANCH 76 80
ENDBRANCH 56 76
ENDBRANCH 55 59
ENDBRANCH 39 55
ENDBRANCH 38 42
ENDBRANCH 18 38
ENDBRANCH 17 21
ENDBRANCH 1 17
TORSDOF 18
ENDMDL
MODEL 68
REMARK VINA RESULT:      -5.8     11.181     15.678
ROOT
ATOM      1  C1  IDS C   1     179.464  25.464  72.3400  0.00  0.00     0.000 C
ATOM      2  C2  IDS C   1     178.169  26.277  72.2690  0.00  0.00     0.000 C
ATOM      3  C3  IDS C   1     177.764  26.521  70.8230  0.00  0.00     0.000 C
ATOM      4  C4  IDS C   1     178.863  27.262  70.0750  0.00  0.00     0.000 C
ATOM      5  C5  IDS C   1     180.231  26.740  70.5030  0.00  0.00     0.000 C
ATOM      6  O5  IDS C   1     180.103  25.436  71.0700  0.00  0.00     0.000 O
ATOM      7   O  IDS C   1     176.547  27.280  70.7820  0.00  0.00     0.000 O
ATOM      9  HD  IDS C   1     176.043  27.023  71.4380  0.00  0.00     0.000 HD
ENDROOT
BRANCH 2 9
ATOM      9   O  IDS C   1     177.057  25.555  72.9280  0.00  0.00     0.000 O
ATOM     10   S  IDS C   1     176.308  26.231  74.1640  0.00  0.00     0.000 S
ATOM     11   O  IDS C   1     175.282  25.294  74.5650  0.00  0.00     0.000 OA
ATOM     12   O  IDS C   1     177.324  26.422  75.1780  0.00  0.00     0.000 OA
ATOM     13   O  IDS C   1     175.767  27.476  73.6650  0.00  0.00     0.000 OA
ENDBRANCH 2 9
BRANCH 5 14
ATOM     14   C  IDS C   1     181.206  26.666  69.3410  0.00  0.00     0.000 C
ATOM     15   O  IDS C   1     181.191  27.528  68.4970  0.00  0.00     0.000 OA
ATOM     16   O  IDS C   1     181.993  25.737  69.2690  0.00  0.00     0.000 OA
ENDBRANCH 5 14
BRANCH 1 17
ATOM     17  O4  SGN C   2     179.645  24.457  73.2000  0.00  0.00     0.000 O
BRANCH 17 21
ATOM     18  C1  SGN C   2     180.498  20.494  74.2470  0.00  0.00     0.000 C
ATOM     19  C2  SGN C   2     180.800  20.903  72.8000  0.00  0.00     0.000 C
ATOM     20  C3  SGN C   2     180.844  22.432  72.6900  0.00  0.00     0.000 C
ATOM     21  C4  SGN C   2     179.561  23.035  73.2490  0.00  0.00     0.000 C
ATOM     22  C5  SGN C   2     179.374  22.562  74.6870  0.00  0.00     0.000 C
ATOM     23  O5  SGN C   2     179.324  21.117  74.7240  0.00  0.00     0.000 O
ATOM     24   O  SGN C   2     181.037  22.812  71.3380  0.00  0.00     0.000 O
ATOM     26  HD  SGN C   2     181.154  22.843  72.1950  0.00  0.00     0.000 HD
BRANCH 19 28
ATOM     26   N  SGN C   2     181.706  19.826  72.3750  0.00  0.00     0.000 N
ATOM     28  HD  SGN C   2     181.135  19.424  72.8870  0.00  0.00     0.000 HD
ATOM     28   O  SGN C   2     183.184  18.845  70.6210  0.00  0.00     0.000 OA
ATOM     29   S  SGN C   2     181.689  19.229  70.8820  0.00  0.00     0.000 S
ATOM     30   O  SGN C   2     180.916  18.046  70.9060  0.00  0.00     0.000 OA
ATOM     31   O  SGN C   2     181.331  20.284  69.9990  0.00  0.00     0.000 OA
ENDBRANCH 19 28
BRANCH 22 32
ATOM     32   C  SGN C   2     178.096  23.058  75.3190  0.00  0.00     0.000 C
ATOM     33   S  SGN C   2     176.142  22.134  76.7230  0.00  0.00     0.000 S
ATOM     34   O  SGN C   2     175.528  21.506  75.5800  0.00  0.00     0.000 OA
ATOM     35   O  SGN C   2     176.055  21.347  77.9350  0.00  0.00     0.000 OA
ATOM     36   O  SGN C   2     175.768  23.516  76.9070  0.00  0.00     0.000 OA
ATOM     37   O  SGN C   2     177.698  22.165  76.3660  0.00  0.00     0.000 O
ENDBRANCH 22 32
BRANCH 18 38
ATOM     38  O4  IDS C   3     181.298  20.450  75.3150  0.00  0.00     0.000 O
BRANCH 38 42
ATOM     39  C1  IDS C   3     180.255  20.003  78.6070  0.00  0.00     0.000 C
ATOM     40  C2  IDS C   3     181.493  20.852  78.2770  0.00  0.00     0.000 C
ATOM     41  C3  IDS C   3     182.470  20.081  77.3900  0.00  0.00     0.000 C
ATOM     42  C4  IDS C   3     181.753  19.432  76.2140  0.00  0.00     0.000 C
ATOM     43  C5  IDS C   3     180.561  18.612  76.7220  0.00  0.00     0.000 C
ATOM     44  O5  IDS C   3     179.670  19.472  77.4300  0.00  0.00     0.000 O
ATOM     45   O  IDS C   3     183.126  19.078  78.1680  0.00  0.00     0.000 O
ATOM     47  HD  IDS C   3     182.862  18.421  78.6670  0.00  0.00     0.000 HD
BRANCH 40 47
ATOM     47   O  IDS C   3     181.103  22.080  77.5460  0.00  0.00     0.000 O
ATOM     48   S  IDS C   3     180.776  23.419  78.3580  0.00  0.00     0.000 S
ATOM     49   O  IDS C   3     179.450  23.237  78.9080  0.00  0.00     0.000 OA
ATOM     50   O  IDS C   3     180.827  24.481  77.3770  0.00  0.00     0.000 OA
ATOM     51   O  IDS C   3     181.789  23.537  79.3730  0.00  0.00     0.000 OA
ENDBRANCH 40 47
BRANCH 43 52
ATOM     52   C  IDS C   3     179.814  17.913  75.6070  0.00  0.00     0.000 C
ATOM     53   O  IDS C   3     178.604  17.899  75.6090  0.00  0.00     0.000 OA
ATOM     54   O  IDS C   3     180.428  17.374  74.7230  0.00  0.00     0.000 OA
ENDBRANCH 43 52
BRANCH 39 55
ATOM     55  O4  SGN C   4     180.172  19.197  79.6650  0.00  0.00     0.000 O
BRANCH 55 59
ATOM     56  C1  SGN C   4     176.534  17.514  80.8640  0.00  0.00     0.000 C
ATOM     57  C2  SGN C   4     176.635  19.048  80.9230  0.00  0.00     0.000 C
ATOM     58  C3  SGN C   4     177.826  19.544  80.1070  0.00  0.00     0.000 C
ATOM     59  C4  SGN C   4     179.096  18.800  80.5030  0.00  0.00     0.000 C
ATOM     60  C5  SGN C   4     178.851  17.299  80.3610  0.00  0.00     0.000 C
ATOM     61  O5  SGN C   4     177.771  16.932  81.2430  0.00  0.00     0.000 O
ATOM     62   O  SGN C   4     177.983  20.943  80.2990  0.00  0.00     0.000 O
ATOM     64  HD  SGN C   4     177.137  20.803  80.4160  0.00  0.00     0.000 HD
BRANCH 57 66
ATOM     64   N  SGN C   4     175.632  20.105  80.7190  0.00  0.00     0.000 N
ATOM     66  HD  SGN C   4     174.784  20.137  80.5460  0.00  0.00     0.000 HD
ATOM     66   S  SGN C   4     174.287  20.124  81.5780  0.00  0.00     0.000 S
ATOM     67   O  SGN C   4     173.503  21.212  81.1160  0.00  0.00     0.000 OA
ATOM     68   O  SGN C   4     173.749  18.808  81.5380  0.00  0.00     0.000 OA
ATOM     69   O  SGN C   4     174.779  20.420  83.0310  0.00  0.00     0.000 OA
ENDBRANCH 57 66
BRANCH 60 70
ATOM     70   C  SGN C   4     180.050  16.448  80.7190  0.00  0.00     0.000 C
ATOM     71   O  SGN C   4     182.861  15.440  78.4410  0.00  0.00     0.000 OA
ATOM     72   O  SGN C   4     182.871  17.189  80.1110  0.00  0.00     0.000 OA
ATOM     73   O  SGN C   4     180.797  16.107  79.5360  0.00  0.00     0.000 O
ATOM     74   S  SGN C   4     182.370  15.890  79.7230  0.00  0.00     0.000 S
ATOM     75   O  SGN C   4     182.485  14.892  80.7680  0.00  0.00     0.000 OA
ENDBRANCH 60 70
BRANCH 56 76
ATOM     76  O4  IDS C   5     175.884  16.621  80.0950  0.00  0.00     0.000 O
BRANCH 76 80
ATOM     77  C1  IDS C   5     178.195  13.464  78.9350  0.00  0.00     0.000 C
ATOM     78  C2  IDS C   5     177.792  14.405  77.8010  0.00  0.00     0.000 C
ATOM     79  C3  IDS C   5     177.335  15.733  78.3720  0.00  0.00     0.000 C
ATOM     80  C4  IDS C   5     176.057  15.529  79.1790  0.00  0.00     0.000 C
ATOM     81  C5  IDS C   5     176.142  14.199  79.9410  0.00  0.00     0.000 C
ATOM     82  O5  IDS C   5     177.508  13.818  80.1350  0.00  0.00     0.000 O
BRANCH 78 83
ATOM     83   O  IDS C   5     178.937  14.654  76.8940  0.00  0.00     0.000 O
ATOM     84   S  IDS C   5     179.043  13.859  75.5150  0.00  0.00     0.000 S
ATOM     85   O  IDS C   5     178.830  12.474  75.8390  0.00  0.00     0.000 OA
ATOM     86   O  IDS C   5     178.005  14.413  74.6780  0.00  0.00     0.000 OA
ATOM     87   O  IDS C   5     180.368  14.129  75.0100  0.00  0.00     0.000 OA
ENDBRANCH 78 83
BRANCH 81 88
ATOM     88   C  IDS C   5     175.476  14.226  81.3050  0.00  0.00     0.000 C
ATOM     89   O  IDS C   5     174.278  14.249  81.3850  0.00  0.00     0.000 OA
ATOM     90   O  IDS C   5     176.158  14.224  82.3040  0.00  0.00     0.000 OA
ENDBRANCH 81 88
ENDBRANCH 76 80
ENDBRANCH 56 76
ENDBRANCH 55 59
ENDBRANCH 39 55
ENDBRANCH 38 42
ENDBRANCH 18 38
ENDBRANCH 17 21
ENDBRANCH 1 17
TORSDOF 18
ENDMDL
MODEL 69
REMARK VINA RESULT:      -5.7     23.672     31.137
ROOT
ATOM      1  C1  IDS C   1     147.505  33.423  86.1400  0.00  0.00     0.000 C
ATOM      2  C2  IDS C   1     147.918  33.696  87.5890  0.00  0.00     0.000 C
ATOM      3  C3  IDS C   1     149.392  34.066  87.6700  0.00  0.00     0.000 C
ATOM      4  C4  IDS C   1     150.258  32.951  87.1020  0.00  0.00     0.000 C
ATOM      5  C5  IDS C   1     149.594  32.349  85.8680  0.00  0.00     0.000 C
ATOM      6  O5  IDS C   1     148.655  33.272  85.3170  0.00  0.00     0.000 O
ATOM      7   O  IDS C   1     149.753  34.321  89.0350  0.00  0.00     0.000 O
ATOM      9  HD  IDS C   1     149.086  34.711  89.4250  0.00  0.00     0.000 HD
ENDROOT
BRANCH 2 9
ATOM      9   O  IDS C   1     147.143  34.823  88.1540  0.00  0.00     0.000 O
ATOM     10   S  IDS C   1     146.279  34.594  89.4750  0.00  0.00     0.000 S
ATOM     11   O  IDS C   1     145.664  35.869  89.7720  0.00  0.00     0.000 OA
ATOM     12   O  IDS C   1     145.314  33.568  89.1370  0.00  0.00     0.000 OA
ATOM     13   O  IDS C   1     147.216  34.173  90.4930  0.00  0.00     0.000 OA
ENDBRANCH 2 9
BRANCH 5 14
ATOM     14   C  IDS C   1     150.604  31.989  84.7920  0.00  0.00     0.000 C
ATOM     15   O  IDS C   1     151.618  31.411  85.0980  0.00  0.00     0.000 OA
ATOM     16   O  IDS C   1     150.384  32.290  83.6300  0.00  0.00     0.000 OA
ENDBRANCH 5 14
BRANCH 1 17
ATOM     17  O4  SGN C   2     146.362  33.869  85.6130  0.00  0.00     0.000 O
BRANCH 17 21
ATOM     18  C1  SGN C   2     144.077  36.004  82.8290  0.00  0.00     0.000 C
ATOM     19  C2  SGN C   2     145.563  35.816  82.4980  0.00  0.00     0.000 C
ATOM     20  C3  SGN C   2     146.148  34.690  83.3580  0.00  0.00     0.000 C
ATOM     21  C4  SGN C   2     145.870  34.957  84.8330  0.00  0.00     0.000 C
ATOM     22  C5  SGN C   2     144.367  35.120  85.0350  0.00  0.00     0.000 C
ATOM     23  O5  SGN C   2     143.878  36.204  84.2120  0.00  0.00     0.000 O
ATOM     24   O  SGN C   2     147.540  34.573  83.1180  0.00  0.00     0.000 O
ATOM     26  HD  SGN C   2     146.732  34.292  83.2520  0.00  0.00     0.000 HD
BRANCH 19 28
ATOM     26   N  SGN C   2     145.573  36.057  81.0490  0.00  0.00     0.000 N
ATOM     28  HD  SGN C   2     144.927  36.557  81.3360  0.00  0.00     0.000 HD
ATOM     28   O  SGN C   2     146.864  36.249  78.9230  0.00  0.00     0.000 OA
ATOM     29   S  SGN C   2     146.721  36.922  80.3290  0.00  0.00     0.000 S
ATOM     30   O  SGN C   2     146.221  38.232  80.1540  0.00  0.00     0.000 OA
ATOM     31   O  SGN C   2     147.929  36.723  81.0520  0.00  0.00     0.000 OA
ENDBRANCH 19 28
BRANCH 22 32
ATOM     32   C  SGN C   2     143.986  35.447  86.4580  0.00  0.00     0.000 C
ATOM     33   S  SGN C   2     142.000  36.465  87.7480  0.00  0.00     0.000 S
ATOM     34   O  SGN C   2     142.347  37.808  87.3580  0.00  0.00     0.000 OA
ATOM     35   O  SGN C   2     140.574  36.214  87.7660  0.00  0.00     0.000 OA
ATOM     36   O  SGN C   2     142.680  36.003  88.9360  0.00  0.00     0.000 OA
ATOM     37   O  SGN C   2     142.561  35.554  86.5630  0.00  0.00     0.000 O
ENDBRANCH 22 32
BRANCH 18 38
ATOM     38  O4  IDS C   3     143.013  35.294  82.4470  0.00  0.00     0.000 O
BRANCH 38 42
ATOM     39  C1  IDS C   3     140.549  33.965  80.3750  0.00  0.00     0.000 C
ATOM     40  C2  IDS C   3     141.024  35.418  80.2100  0.00  0.00     0.000 C
ATOM     41  C3  IDS C   3     140.961  36.174  81.5370  0.00  0.00     0.000 C
ATOM     42  C4  IDS C   3     141.599  35.369  82.6610  0.00  0.00     0.000 C
ATOM     43  C5  IDS C   3     140.999  33.958  82.6950  0.00  0.00     0.000 C
ATOM     44  O5  IDS C   3     141.230  33.322  81.4400  0.00  0.00     0.000 O
ATOM     45   O  IDS C   3     139.597  36.452  81.8580  0.00  0.00     0.000 O
ATOM     47  HD  IDS C   3     138.880  35.975  81.9490  0.00  0.00     0.000 HD
BRANCH 40 47
ATOM     47   O  IDS C   3     142.430  35.456  79.7430  0.00  0.00     0.000 O
ATOM     48   S  IDS C   3     142.760  35.243  78.1930  0.00  0.00     0.000 S
ATOM     49   O  IDS C   3     142.642  33.820  77.9530  0.00  0.00     0.000 OA
ATOM     50   O  IDS C   3     144.114  35.722  78.0220  0.00  0.00     0.000 OA
ATOM     51   O  IDS C   3     141.790  36.013  77.4610  0.00  0.00     0.000 OA
ENDBRANCH 40 47
BRANCH 43 52
ATOM     52   C  IDS C   3     141.568  33.107  83.8090  0.00  0.00     0.000 C
ATOM     53   O  IDS C   3     142.440  32.304  83.5680  0.00  0.00     0.000 OA
ATOM     54   O  IDS C   3     141.149  33.234  84.9310  0.00  0.00     0.000 OA
ENDBRANCH 43 52
BRANCH 39 55
ATOM     55  O4  SGN C   4     139.280  33.582  80.2330  0.00  0.00     0.000 O
BRANCH 55 59
ATOM     56  C1  SGN C   4     138.470  31.042  77.0090  0.00  0.00     0.000 C
ATOM     57  C2  SGN C   4     138.507  32.549  76.7040  0.00  0.00     0.000 C
ATOM     58  C3  SGN C   4     139.187  33.314  77.8360  0.00  0.00     0.000 C
ATOM     59  C4  SGN C   4     138.570  32.944  79.1810  0.00  0.00     0.000 C
ATOM     60  C5  SGN C   4     138.638  31.428  79.3510  0.00  0.00     0.000 C
ATOM     61  O5  SGN C   4     137.887  30.819  78.2820  0.00  0.00     0.000 O
ATOM     62   O  SGN C   4     139.075  34.712  77.6010  0.00  0.00     0.000 O
ATOM     64  HD  SGN C   4     139.064  34.357  76.8110  0.00  0.00     0.000 HD
BRANCH 57 66
ATOM     64   N  SGN C   4     138.710  33.440  75.5500  0.00  0.00     0.000 N
ATOM     66  HD  SGN C   4     139.087  33.380  74.7730  0.00  0.00     0.000 HD
ATOM     66   S  SGN C   4     138.255  32.992  74.0880  0.00  0.00     0.000 S
ATOM     67   O  SGN C   4     138.634  34.021  73.1900  0.00  0.00     0.000 OA
ATOM     68   O  SGN C   4     138.745  31.672  73.8860  0.00  0.00     0.000 OA
ATOM     69   O  SGN C   4     136.696  32.937  74.1860  0.00  0.00     0.000 OA
ENDBRANCH 57 66
BRANCH 60 70
ATOM     70   C  SGN C   4     138.061  30.934  80.6600  0.00  0.00     0.000 C
ATOM     71   O  SGN C   4     135.303  28.424  81.1070  0.00  0.00     0.000 OA
ATOM     72   O  SGN C   4     137.682  28.059  81.3450  0.00  0.00     0.000 OA
ATOM     73   O  SGN C   4     136.884  30.138  80.4250  0.00  0.00     0.000 O
ATOM     74   S  SGN C   4     136.580  28.983  81.4890  0.00  0.00     0.000 S
ATOM     75   O  SGN C   4     136.555  29.658  82.7710  0.00  0.00     0.000 OA
ENDBRANCH 60 70
BRANCH 56 76
ATOM     76  O4  IDS C   5     139.255  29.985  76.7300  0.00  0.00     0.000 O
BRANCH 76 80
ATOM     77  C1  IDS C   5     143.275  29.589  77.3160  0.00  0.00     0.000 C
ATOM     78  C2  IDS C   5     142.890  30.313  76.0260  0.00  0.00     0.000 C
ATOM     79  C3  IDS C   5     141.454  30.791  76.1130  0.00  0.00     0.000 C
ATOM     80  C4  IDS C   5     140.518  29.588  76.1750  0.00  0.00     0.000 C
ATOM     81  C5  IDS C   5     141.159  28.489  77.0350  0.00  0.00     0.000 C
ATOM     82  O5  IDS C   5     142.110  29.052  77.9430  0.00  0.00     0.000 O
BRANCH 78 83
ATOM     83   O  IDS C   5     143.763  31.490  75.8060  0.00  0.00     0.000 O
ATOM     84   S  IDS C   5     144.655  31.580  74.4870  0.00  0.00     0.000 S
ATOM     85   O  IDS C   5     145.325  30.312  74.3750  0.00  0.00     0.000 OA
ATOM     86   O  IDS C   5     143.720  31.825  73.4140  0.00  0.00     0.000 OA
ATOM     87   O  IDS C   5     145.557  32.685  74.7000  0.00  0.00     0.000 OA
ENDBRANCH 78 83
BRANCH 81 88
ATOM     88   C  IDS C   5     140.163  27.688  77.8540  0.00  0.00     0.000 C
ATOM     89   O  IDS C   5     139.980  27.962  79.0090  0.00  0.00     0.000 OA
ATOM     90   O  IDS C   5     139.558  26.777  77.3360  0.00  0.00     0.000 OA
ENDBRANCH 81 88
ENDBRANCH 76 80
ENDBRANCH 56 76
ENDBRANCH 55 59
ENDBRANCH 39 55
ENDBRANCH 38 42
ENDBRANCH 18 38
ENDBRANCH 17 21
ENDBRANCH 1 17
TORSDOF 18
ENDMDL
MODEL 70
REMARK VINA RESULT:      -5.6     25.657     31.579
ROOT
ATOM      1  C1  IDS C   1     176.186  38.524  63.6760  0.00  0.00     0.000 C
ATOM      2  C2  IDS C   1     175.624  38.838  65.0650  0.00  0.00     0.000 C
ATOM      3  C3  IDS C   1     176.682  39.497  65.9390  0.00  0.00     0.000 C
ATOM      4  C4  IDS C   1     177.899  38.594  66.0820  0.00  0.00     0.000 C
ATOM      5  C5  IDS C   1     178.196  37.902  64.7550  0.00  0.00     0.000 C
ATOM      6  O5  IDS C   1     177.604  38.630  63.6790  0.00  0.00     0.000 O
ATOM      7   O  IDS C   1     176.131  39.785  67.2330  0.00  0.00     0.000 O
ATOM      9  HD  IDS C   1     175.305  40.022  67.1300  0.00  0.00     0.000 HD
ENDROOT
BRANCH 2 9
ATOM      9   O  IDS C   1     174.478  39.770  64.9720  0.00  0.00     0.000 O
ATOM     10   S  IDS C   1     173.050  39.312  65.5130  0.00  0.00     0.000 S
ATOM     11   O  IDS C   1     172.164  40.434  65.2940  0.00  0.00     0.000 OA
ATOM     12   O  IDS C   1     172.691  38.148  64.7290  0.00  0.00     0.000 OA
ATOM     13   O  IDS C   1     173.237  39.010  66.9150  0.00  0.00     0.000 OA
ENDBRANCH 2 9
BRANCH 5 14
ATOM     14   C  IDS C   1     179.687  37.782  64.4920  0.00  0.00     0.000 C
ATOM     15   O  IDS C   1     180.404  38.732  64.6920  0.00  0.00     0.000 OA
ATOM     16   O  IDS C   1     180.146  36.730  64.0800  0.00  0.00     0.000 OA
ENDBRANCH 5 14
BRANCH 1 17
ATOM     17  O4  SGN C   2     175.503  38.744  62.5480  0.00  0.00     0.000 O
BRANCH 17 21
ATOM     18  C1  SGN C   2     174.953  40.464  58.7720  0.00  0.00     0.000 C
ATOM     19  C2  SGN C   2     176.338  40.632  59.4080  0.00  0.00     0.000 C
ATOM     20  C3  SGN C   2     176.514  39.619  60.5460  0.00  0.00     0.000 C
ATOM     21  C4  SGN C   2     175.360  39.735  61.5350  0.00  0.00     0.000 C
ATOM     22  C5  SGN C   2     174.043  39.546  60.7870  0.00  0.00     0.000 C
ATOM     23  O5  SGN C   2     173.928  40.537  59.7410  0.00  0.00     0.000 O
ATOM     24   O  SGN C   2     177.758  39.830  61.1910  0.00  0.00     0.000 O
ATOM     26  HD  SGN C   2     177.113  39.370  60.8430  0.00  0.00     0.000 HD
BRANCH 19 28
ATOM     26   N  SGN C   2     177.362  41.441  58.7310  0.00  0.00     0.000 N
ATOM     28  HD  SGN C   2     177.187  41.890  59.4500  0.00  0.00     0.000 HD
ATOM     28   O  SGN C   2     179.391  41.543  57.2840  0.00  0.00     0.000 OA
ATOM     29   S  SGN C   2     178.905  40.995  58.6680  0.00  0.00     0.000 S
ATOM     30   O  SGN C   2     179.590  41.684  59.6930  0.00  0.00     0.000 OA
ATOM     31   O  SGN C   2     178.943  39.574  58.6310  0.00  0.00     0.000 OA
ENDBRANCH 19 28
BRANCH 22 32
ATOM     32   C  SGN C   2     172.827  39.700  61.6680  0.00  0.00     0.000 C
ATOM     33   S  SGN C   2     170.826  41.299  61.9490  0.00  0.00     0.000 S
ATOM     34   O  SGN C   2     171.631  42.301  62.6020  0.00  0.00     0.000 OA
ATOM     35   O  SGN C   2     169.839  41.848  61.0430  0.00  0.00     0.000 OA
ATOM     36   O  SGN C   2     170.294  40.297  62.8420  0.00  0.00     0.000 OA
ATOM     37   O  SGN C   2     171.855  40.520  61.0100  0.00  0.00     0.000 O
ENDBRANCH 22 32
BRANCH 18 38
ATOM     38  O4  IDS C   3     174.509  39.556  57.8990  0.00  0.00     0.000 O
BRANCH 38 42
ATOM     39  C1  IDS C   3     172.798  37.436  55.7310  0.00  0.00     0.000 C
ATOM     40  C2  IDS C   3     172.711  37.249  57.2540  0.00  0.00     0.000 C
ATOM     41  C3  IDS C   3     174.102  37.180  57.8830  0.00  0.00     0.000 C
ATOM     42  C4  IDS C   3     174.990  38.311  57.3820  0.00  0.00     0.000 C
ATOM     43  C5  IDS C   3     174.978  38.341  55.8490  0.00  0.00     0.000 C
ATOM     44  O5  IDS C   3     173.638  38.528  55.3970  0.00  0.00     0.000 O
ATOM     45   O  IDS C   3     174.701  35.921  57.5680  0.00  0.00     0.000 O
ATOM     47  HD  IDS C   3     174.871  35.490  56.8360  0.00  0.00     0.000 HD
BRANCH 40 47
ATOM     47   O  IDS C   3     171.997  38.388  57.8780  0.00  0.00     0.000 O
ATOM     48   S  IDS C   3     170.430  38.581  57.6230  0.00  0.00     0.000 S
ATOM     49   O  IDS C   3     170.310  39.140  56.2940  0.00  0.00     0.000 OA
ATOM     50   O  IDS C   3     169.988  39.498  58.6510  0.00  0.00     0.000 OA
ATOM     51   O  IDS C   3     169.836  37.276  57.7360  0.00  0.00     0.000 OA
ENDBRANCH 40 47
BRANCH 43 52
ATOM     52   C  IDS C   3     175.863  39.426  55.2770  0.00  0.00     0.000 C
ATOM     53   O  IDS C   3     175.565  39.960  54.2340  0.00  0.00     0.000 OA
ATOM     54   O  IDS C   3     176.862  39.753  55.8660  0.00  0.00     0.000 OA
ENDBRANCH 43 52
BRANCH 39 55
ATOM     55  O4  SGN C   4     172.853  36.424  54.8650  0.00  0.00     0.000 O
BRANCH 55 59
ATOM     56  C1  SGN C   4     172.173  32.421  53.8560  0.00  0.00     0.000 C
ATOM     57  C2  SGN C   4     171.121  33.091  54.7560  0.00  0.00     0.000 C
ATOM     58  C3  SGN C   4     171.267  34.610  54.7210  0.00  0.00     0.000 C
ATOM     59  C4  SGN C   4     172.709  35.018  55.0030  0.00  0.00     0.000 C
ATOM     60  C5  SGN C   4     173.625  34.300  54.0140  0.00  0.00     0.000 C
ATOM     61  O5  SGN C   4     173.470  32.880  54.2020  0.00  0.00     0.000 O
ATOM     62   O  SGN C   4     170.386  35.195  55.6700  0.00  0.00     0.000 O
ATOM     64  HD  SGN C   4     169.999  34.455  55.4420  0.00  0.00     0.000 HD
BRANCH 57 66
ATOM     64   N  SGN C   4     170.130  32.147  54.2140  0.00  0.00     0.000 N
ATOM     66  HD  SGN C   4     169.879  31.337  54.3860  0.00  0.00     0.000 HD
ATOM     66   S  SGN C   4     169.056  31.459  55.1730  0.00  0.00     0.000 S
ATOM     67   O  SGN C   4     168.290  30.567  54.3810  0.00  0.00     0.000 OA
ATOM     68   O  SGN C   4     169.763  30.962  56.3010  0.00  0.00     0.000 OA
ATOM     69   O  SGN C   4     168.153  32.649  55.6320  0.00  0.00     0.000 OA
ENDBRANCH 57 66
BRANCH 60 70
ATOM     70   C  SGN C   4     175.091  34.632  54.1870  0.00  0.00     0.000 C
ATOM     71   O  SGN C   4     177.625  32.692  56.1680  0.00  0.00     0.000 OA
ATOM     72   O  SGN C   4     177.310  32.687  53.7700  0.00  0.00     0.000 OA
ATOM     73   O  SGN C   4     175.689  33.777  55.1800  0.00  0.00     0.000 O
ATOM     74   S  SGN C   4     177.243  33.448  54.9980  0.00  0.00     0.000 S
ATOM     75   O  SGN C   4     177.888  34.743  54.9100  0.00  0.00     0.000 OA
ENDBRANCH 60 70
BRANCH 56 76
ATOM     76  O4  IDS C   5     172.219  31.998  52.5790  0.00  0.00     0.000 O
BRANCH 76 80
ATOM     77  C1  IDS C   5     172.758  34.292  49.2470  0.00  0.00     0.000 C
ATOM     78  C2  IDS C   5     171.311  34.208  49.7310  0.00  0.00     0.000 C
ATOM     79  C3  IDS C   5     171.277  33.727  51.1690  0.00  0.00     0.000 C
ATOM     80  C4  IDS C   5     171.793  32.293  51.2400  0.00  0.00     0.000 C
ATOM     81  C5  IDS C   5     172.960  32.123  50.2570  0.00  0.00     0.000 C
ATOM     82  O5  IDS C   5     173.577  33.385  49.9860  0.00  0.00     0.000 O
BRANCH 78 83
ATOM     83   O  IDS C   5     170.659  35.537  49.6660  0.00  0.00     0.000 O
ATOM     84   S  IDS C   5     169.260  35.697  48.9160  0.00  0.00     0.000 S
ATOM     85   O  IDS C   5     169.417  35.047  47.6430  0.00  0.00     0.000 OA
ATOM     86   O  IDS C   5     168.295  35.046  49.7720  0.00  0.00     0.000 OA
ATOM     87   O  IDS C   5     169.036  37.118  48.8070  0.00  0.00     0.000 OA
ENDBRANCH 78 83
BRANCH 81 88
ATOM     88   C  IDS C   5     174.045  31.180  50.7460  0.00  0.00     0.000 C
ATOM     89   O  IDS C   5     175.083  31.624  51.1590  0.00  0.00     0.000 OA
ATOM     90   O  IDS C   5     173.857  29.986  50.7180  0.00  0.00     0.000 OA
ENDBRANCH 81 88
ENDBRANCH 76 80
ENDBRANCH 56 76
ENDBRANCH 55 59
ENDBRANCH 39 55
ENDBRANCH 38 42
ENDBRANCH 18 38
ENDBRANCH 17 21
ENDBRANCH 1 17
TORSDOF 18
ENDMDL
MODEL 71
REMARK VINA RESULT:      -5.6     12.033     16.825
ROOT
ATOM      1  C1  IDS C   1     179.744  25.076  72.1530  0.00  0.00     0.000 C
ATOM      2  C2  IDS C   1     178.423  25.846  72.0660  0.00  0.00     0.000 C
ATOM      3  C3  IDS C   1     178.066  26.145  70.6180  0.00  0.00     0.000 C
ATOM      4  C4  IDS C   1     179.166  26.959  69.9510  0.00  0.00     0.000 C
ATOM      5  C5  IDS C   1     180.535  26.465  70.4100  0.00  0.00     0.000 C
ATOM      6  O5  IDS C   1     180.433  25.132  70.9110  0.00  0.00     0.000 O
ATOM      7   O  IDS C   1     176.825  26.861  70.5620  0.00  0.00     0.000 O
ATOM      9  HD  IDS C   1     176.306  26.555  71.1840  0.00  0.00     0.000 HD
ENDROOT
BRANCH 2 9
ATOM      9   O  IDS C   1     177.314  25.055  72.6450  0.00  0.00     0.000 O
ATOM     10   S  IDS C   1     176.467  25.660  73.8530  0.00  0.00     0.000 S
ATOM     11   O  IDS C   1     175.467  24.666  74.1740  0.00  0.00     0.000 OA
ATOM     12   O  IDS C   1     177.416  25.873  74.9270  0.00  0.00     0.000 OA
ATOM     13   O  IDS C   1     175.894  26.891  73.3560  0.00  0.00     0.000 OA
ENDBRANCH 2 9
BRANCH 5 14
ATOM     14   C  IDS C   1     181.557  26.481  69.2870  0.00  0.00     0.000 C
ATOM     15   O  IDS C   1     181.519  27.361  68.4620  0.00  0.00     0.000 OA
ATOM     16   O  IDS C   1     182.404  25.605  69.2260  0.00  0.00     0.000 OA
ENDBRANCH 5 14
BRANCH 1 17
ATOM     17  O4  SGN C   2     179.928  24.037  72.9720  0.00  0.00     0.000 O
BRANCH 17 21
ATOM     18  C1  SGN C   2     180.576  20.002  73.8820  0.00  0.00     0.000 C
ATOM     19  C2  SGN C   2     180.814  20.425  72.4270  0.00  0.00     0.000 C
ATOM     20  C3  SGN C   2     180.954  21.950  72.3450  0.00  0.00     0.000 C
ATOM     21  C4  SGN C   2     179.752  22.623  72.9970  0.00  0.00     0.000 C
ATOM     22  C5  SGN C   2     179.623  22.128  74.4350  0.00  0.00     0.000 C
ATOM     23  O5  SGN C   2     179.479  20.689  74.4460  0.00  0.00     0.000 O
ATOM     24   O  SGN C   2     181.087  22.350  70.9920  0.00  0.00     0.000 O
ATOM     26  HD  SGN C   2     181.259  22.352  71.8400  0.00  0.00     0.000 HD
BRANCH 19 28
ATOM     26   N  SGN C   2     181.647  19.319  71.9340  0.00  0.00     0.000 N
ATOM     28  HD  SGN C   2     181.125  18.941  72.5130  0.00  0.00     0.000 HD
ATOM     28   O  SGN C   2     182.913  18.269  70.0590  0.00  0.00     0.000 OA
ATOM     29   S  SGN C   2     181.462  18.692  70.4650  0.00  0.00     0.000 S
ATOM     30   O  SGN C   2     180.672  17.528  70.5970  0.00  0.00     0.000 OA
ATOM     31   O  SGN C   2     181.035  19.737  69.6010  0.00  0.00     0.000 OA
ENDBRANCH 19 28
BRANCH 22 32
ATOM     32   C  SGN C   2     178.424  22.691  75.1570  0.00  0.00     0.000 C
ATOM     33   S  SGN C   2     176.495  21.862  76.6510  0.00  0.00     0.000 S
ATOM     34   O  SGN C   2     175.771  21.315  75.5310  0.00  0.00     0.000 OA
ATOM     35   O  SGN C   2     176.423  21.043  77.8440  0.00  0.00     0.000 OA
ATOM     36   O  SGN C   2     176.232  23.260  76.8970  0.00  0.00     0.000 OA
ATOM     37   O  SGN C   2     178.025  21.795  76.2010  0.00  0.00     0.000 O
ENDBRANCH 22 32
BRANCH 18 38
ATOM     38  O4  IDS C   3     181.437  19.878  74.8950  0.00  0.00     0.000 O
BRANCH 38 42
ATOM     39  C1  IDS C   3     181.855  18.562  78.0920  0.00  0.00     0.000 C
ATOM     40  C2  IDS C   3     182.638  19.805  77.6380  0.00  0.00     0.000 C
ATOM     41  C3  IDS C   3     183.359  19.551  76.3140  0.00  0.00     0.000 C
ATOM     42  C4  IDS C   3     182.424  18.921  75.2910  0.00  0.00     0.000 C
ATOM     43  C5  IDS C   3     181.744  17.688  75.8990  0.00  0.00     0.000 C
ATOM     44  O5  IDS C   3     181.012  18.083  77.0580  0.00  0.00     0.000 O
ATOM     45   O  IDS C   3     184.477  18.691  76.5410  0.00  0.00     0.000 O
ATOM     47  HD  IDS C   3     184.585  17.909  76.8960  0.00  0.00     0.000 HD
BRANCH 40 47
ATOM     47   O  IDS C   3     181.721  20.951  77.4340  0.00  0.00     0.000 O
ATOM     48   S  IDS C   3     181.842  22.243  78.3690  0.00  0.00     0.000 S
ATOM     49   O  IDS C   3     181.225  21.881  79.6270  0.00  0.00     0.000 OA
ATOM     50   O  IDS C   3     181.114  23.283  77.6760  0.00  0.00     0.000 OA
ATOM     51   O  IDS C   3     183.247  22.523  78.4970  0.00  0.00     0.000 OA
ENDBRANCH 40 47
BRANCH 43 52
ATOM     52   C  IDS C   3     180.818  16.991  74.9270  0.00  0.00     0.000 C
ATOM     53   O  IDS C   3     179.677  16.751  75.2470  0.00  0.00     0.000 OA
ATOM     54   O  IDS C   3     181.224  16.678  73.8360  0.00  0.00     0.000 OA
ENDBRANCH 43 52
BRANCH 39 55
ATOM     55  O4  SGN C   4     182.373  17.602  78.8580  0.00  0.00     0.000 O
BRANCH 55 59
ATOM     56  C1  SGN C   4     179.700  15.052  80.8220  0.00  0.00     0.000 C
ATOM     57  C2  SGN C   4     179.904  16.444  81.4430  0.00  0.00     0.000 C
ATOM     58  C3  SGN C   4     180.568  17.390  80.4450  0.00  0.00     0.000 C
ATOM     59  C4  SGN C   4     181.824  16.756  79.8590  0.00  0.00     0.000 C
ATOM     60  C5  SGN C   4     181.456  15.403  79.2540  0.00  0.00     0.000 C
ATOM     61  O5  SGN C   4     180.928  14.567  80.3030  0.00  0.00     0.000 O
ATOM     62   O  SGN C   4     180.879  18.618  81.0890  0.00  0.00     0.000 O
ATOM     64  HD  SGN C   4     180.192  18.315  81.5210  0.00  0.00     0.000 HD
BRANCH 57 66
ATOM     64   N  SGN C   4     178.849  15.916  82.3230  0.00  0.00     0.000 N
ATOM     66  HD  SGN C   4     178.732  15.831  83.1770  0.00  0.00     0.000 HD
ATOM     66   S  SGN C   4     178.243  16.817  83.4940  0.00  0.00     0.000 S
ATOM     67   O  SGN C   4     177.304  16.022  84.1980  0.00  0.00     0.000 OA
ATOM     68   O  SGN C   4     179.343  17.385  84.1940  0.00  0.00     0.000 OA
ATOM     69   O  SGN C   4     177.492  17.956  82.7340  0.00  0.00     0.000 OA
ENDBRANCH 57 66
BRANCH 60 70
ATOM     70   C  SGN C   4     182.626  14.676  78.6280  0.00  0.00     0.000 C
ATOM     71   O  SGN C   4     183.350  14.305  74.9610  0.00  0.00     0.000 OA
ATOM     72   O  SGN C   4     184.386  15.835  76.5210  0.00  0.00     0.000 OA
ATOM     73   O  SGN C   4     182.451  14.572  77.2020  0.00  0.00     0.000 O
ATOM     74   S  SGN C   4     183.784  14.536  76.3200  0.00  0.00     0.000 S
ATOM     75   O  SGN C   4     184.564  13.447  76.8710  0.00  0.00     0.000 OA
ENDBRANCH 60 70
BRANCH 56 76
ATOM     76  O4  IDS C   5     178.706  14.429  80.1620  0.00  0.00     0.000 O
BRANCH 76 80
ATOM     77  C1  IDS C   5     180.166  11.560  77.6520  0.00  0.00     0.000 C
ATOM     78  C2  IDS C   5     179.265  12.595  76.9770  0.00  0.00     0.000 C
ATOM     79  C3  IDS C   5     179.143  13.823  77.8580  0.00  0.00     0.000 C
ATOM     80  C4  IDS C   5     178.414  13.456  79.1470  0.00  0.00     0.000 C
ATOM     81  C5  IDS C   5     178.856  12.058  79.6020  0.00  0.00     0.000 C
ATOM     82  O5  IDS C   5     180.145  11.740  79.0680  0.00  0.00     0.000 O
BRANCH 78 83
ATOM     83   O  IDS C   5     179.830  13.009  75.6720  0.00  0.00     0.000 O
ATOM     84   S  IDS C   5     178.890  13.068  74.3840  0.00  0.00     0.000 S
ATOM     85   O  IDS C   5     178.179  11.818  74.3560  0.00  0.00     0.000 OA
ATOM     86   O  IDS C   5     178.028  14.207  74.5970  0.00  0.00     0.000 OA
ATOM     87   O  IDS C   5     179.777  13.244  73.2600  0.00  0.00     0.000 OA
ENDBRANCH 78 83
BRANCH 81 88
ATOM     88   C  IDS C   5     178.932  11.896  81.1090  0.00  0.00     0.000 C
ATOM     89   O  IDS C   5     177.930  11.957  81.7690  0.00  0.00     0.000 OA
ATOM     90   O  IDS C   5     180.004  11.704  81.6370  0.00  0.00     0.000 OA
ENDBRANCH 81 88
ENDBRANCH 76 80
ENDBRANCH 56 76
ENDBRANCH 55 59
ENDBRANCH 39 55
ENDBRANCH 38 42
ENDBRANCH 18 38
ENDBRANCH 17 21
ENDBRANCH 1 17
TORSDOF 18
ENDMDL
MODEL 72
REMARK VINA RESULT:      -5.5     30.759     35.320
ROOT
ATOM      1  C1  IDS C   1     169.558  35.714  45.6300  0.00  0.00     0.000 C
ATOM      2  C2  IDS C   1     169.867  35.402  44.1630  0.00  0.00     0.000 C
ATOM      3  C3  IDS C   1     171.363  35.226  43.9510  0.00  0.00     0.000 C
ATOM      4  C4  IDS C   1     172.116  36.483  44.3650  0.00  0.00     0.000 C
ATOM      5  C5  IDS C   1     171.494  37.073  45.6270  0.00  0.00     0.000 C
ATOM      6  O5  IDS C   1     170.748  36.072  46.3210  0.00  0.00     0.000 O
ATOM      7   O  IDS C   1     171.626  34.930  42.5720  0.00  0.00     0.000 O
ATOM      9  HD  IDS C   1     170.986  34.430  42.2740  0.00  0.00     0.000 HD
ENDROOT
BRANCH 2 9
ATOM      9   O  IDS C   1     169.206  34.146  43.7410  0.00  0.00     0.000 O
ATOM     10   S  IDS C   1     168.265  34.150  42.4530  0.00  0.00     0.000 S
ATOM     11   O  IDS C   1     167.792  32.792  42.3040  0.00  0.00     0.000 OA
ATOM     12   O  IDS C   1     167.202  35.088  42.7500  0.00  0.00     0.000 OA
ATOM     13   O  IDS C   1     169.103  34.577  41.3540  0.00  0.00     0.000 OA
ENDBRANCH 2 9
BRANCH 5 14
ATOM     14   C  IDS C   1     172.541  37.635  46.5730  0.00  0.00     0.000 C
ATOM     15   O  IDS C   1     173.614  37.975  46.1370  0.00  0.00     0.000 OA
ATOM     16   O  IDS C   1     172.291  37.736  47.7630  0.00  0.00     0.000 OA
ENDBRANCH 5 14
BRANCH 1 17
ATOM     17  O4  SGN C   2     168.543  35.156  46.2950  0.00  0.00     0.000 O
BRANCH 17 21
ATOM     18  C1  SGN C   2     166.782  32.511  49.0190  0.00  0.00     0.000 C
ATOM     19  C2  SGN C   2     168.295  32.725  49.1500  0.00  0.00     0.000 C
ATOM     20  C3  SGN C   2     168.706  33.997  48.3990  0.00  0.00     0.000 C
ATOM     21  C4  SGN C   2     168.211  33.940  46.9590  0.00  0.00     0.000 C
ATOM     22  C5  SGN C   2     166.699  33.730  46.9600  0.00  0.00     0.000 C
ATOM     23  O5  SGN C   2     166.376  32.510  47.6670  0.00  0.00     0.000 O
ATOM     24   O  SGN C   2     170.115  34.150  48.4460  0.00  0.00     0.000 O
ATOM     26  HD  SGN C   2     169.287  34.404  48.4790  0.00  0.00     0.000 HD
BRANCH 19 28
ATOM     26   N  SGN C   2     168.557  32.180  50.4890  0.00  0.00     0.000 N
ATOM     28  HD  SGN C   2     167.995  31.618  50.1450  0.00  0.00     0.000 HD
ATOM     28   O  SGN C   2     170.146  31.830  52.3800  0.00  0.00     0.000 OA
ATOM     29   S  SGN C   2     169.949  31.469  50.8700  0.00  0.00     0.000 S
ATOM     30   O  SGN C   2     169.758  30.074  50.7600  0.00  0.00     0.000 OA
ATOM     31   O  SGN C   2     170.976  32.099  50.1140  0.00  0.00     0.000 OA
ENDBRANCH 19 28
BRANCH 22 32
ATOM     32   C  SGN C   2     166.112  33.600  45.5760  0.00  0.00     0.000 C
ATOM     33   S  SGN C   2     164.600  31.984  44.2560  0.00  0.00     0.000 S
ATOM     34   O  SGN C   2     165.663  31.029  44.0730  0.00  0.00     0.000 OA
ATOM     35   O  SGN C   2     163.310  31.376  44.5080  0.00  0.00     0.000 OA
ATOM     36   O  SGN C   2     164.560  33.020  43.2510  0.00  0.00     0.000 OA
ATOM     37   O  SGN C   2     164.972  32.733  45.6150  0.00  0.00     0.000 O
ENDBRANCH 22 32
BRANCH 18 38
ATOM     38  O4  IDS C   3     165.769  33.098  49.6610  0.00  0.00     0.000 O
BRANCH 38 42
ATOM     39  C1  IDS C   3     163.854  35.626  51.1000  0.00  0.00     0.000 C
ATOM     40  C2  IDS C   3     165.388  35.640  51.2000  0.00  0.00     0.000 C
ATOM     41  C3  IDS C   3     165.919  34.312  51.7390  0.00  0.00     0.000 C
ATOM     42  C4  IDS C   3     165.292  33.131  51.0100  0.00  0.00     0.000 C
ATOM     43  C5  IDS C   3     163.764  33.266  51.0220  0.00  0.00     0.000 C
ATOM     44  O5  IDS C   3     163.399  34.489  50.3860  0.00  0.00     0.000 O
ATOM     45   O  IDS C   3     165.635  34.222  53.1370  0.00  0.00     0.000 O
ATOM     47  HD  IDS C   3     164.919  34.278  53.6210  0.00  0.00     0.000 HD
BRANCH 40 47
ATOM     47   O  IDS C   3     165.995  35.852  49.8650  0.00  0.00     0.000 O
ATOM     48   S  IDS C   3     166.223  37.339  49.3210  0.00  0.00     0.000 S
ATOM     49   O  IDS C   3     164.924  37.806  48.8860  0.00  0.00     0.000 OA
ATOM     50   O  IDS C   3     167.158  37.204  48.2260  0.00  0.00     0.000 OA
ATOM     51   O  IDS C   3     166.748  38.099  50.4240  0.00  0.00     0.000 OA
ENDBRANCH 40 47
BRANCH 43 52
ATOM     52   C  IDS C   3     163.069  32.110  50.3370  0.00  0.00     0.000 C
ATOM     53   O  IDS C   3     162.571  32.267  49.2460  0.00  0.00     0.000 OA
ATOM     54   O  IDS C   3     163.016  31.037  50.8820  0.00  0.00     0.000 OA
ENDBRANCH 43 52
BRANCH 39 55
ATOM     55  O4  SGN C   4     163.046  36.005  52.0900  0.00  0.00     0.000 O
BRANCH 55 59
ATOM     56  C1  SGN C   4     160.295  39.058  51.3070  0.00  0.00     0.000 C
ATOM     57  C2  SGN C   4     161.757  39.488  51.5210  0.00  0.00     0.000 C
ATOM     58  C3  SGN C   4     162.696  38.291  51.4000  0.00  0.00     0.000 C
ATOM     59  C4  SGN C   4     162.225  37.147  52.2910  0.00  0.00     0.000 C
ATOM     60  C5  SGN C   4     160.776  36.815  51.9380  0.00  0.00     0.000 C
ATOM     61  O5  SGN C   4     159.973  37.987  52.1790  0.00  0.00     0.000 O
ATOM     62   O  SGN C   4     164.017  38.685  51.7470  0.00  0.00     0.000 O
ATOM     64  HD  SGN C   4     163.648  39.407  51.4420  0.00  0.00     0.000 HD
BRANCH 57 66
ATOM     64   N  SGN C   4     162.509  40.731  51.7550  0.00  0.00     0.000 N
ATOM     66  HD  SGN C   4     162.884  41.337  51.2640  0.00  0.00     0.000 HD
ATOM     66   S  SGN C   4     162.050  42.098  51.0720  0.00  0.00     0.000 S
ATOM     67   O  SGN C   4     162.995  43.092  51.4330  0.00  0.00     0.000 OA
ATOM     68   O  SGN C   4     161.819  41.820  49.6970  0.00  0.00     0.000 OA
ATOM     69   O  SGN C   4     160.681  42.413  51.7550  0.00  0.00     0.000 OA
ENDBRANCH 57 66
BRANCH 60 70
ATOM     70   C  SGN C   4     160.194  35.680  52.7530  0.00  0.00     0.000 C
ATOM     71   O  SGN C   4     156.946  35.693  54.6390  0.00  0.00     0.000 OA
ATOM     72   O  SGN C   4     157.397  34.689  52.4850  0.00  0.00     0.000 OA
ATOM     73   O  SGN C   4     159.043  36.130  53.4940  0.00  0.00     0.000 O
ATOM     74   S  SGN C   4     157.914  35.037  53.7900  0.00  0.00     0.000 S
ATOM     75   O  SGN C   4     158.612  33.949  54.4430  0.00  0.00     0.000 OA
ENDBRANCH 60 70
BRANCH 56 76
ATOM     76  O4  IDS C   5     159.454  38.997  50.2580  0.00  0.00     0.000 O
BRANCH 76 80
ATOM     77  C1  IDS C   5     158.622  35.294  48.7570  0.00  0.00     0.000 C
ATOM     78  C2  IDS C   5     159.628  36.100  47.9350  0.00  0.00     0.000 C
ATOM     79  C3  IDS C   5     160.191  37.229  48.7760  0.00  0.00     0.000 C
ATOM     80  C4  IDS C   5     159.081  38.221  49.1100  0.00  0.00     0.000 C
ATOM     81  C5  IDS C   5     157.779  37.454  49.3820  0.00  0.00     0.000 C
ATOM     82  O5  IDS C   5     158.061  36.111  49.7850  0.00  0.00     0.000 O
BRANCH 78 83
ATOM     83   O  IDS C   5     160.750  35.241  47.4920  0.00  0.00     0.000 O
ATOM     84   S  IDS C   5     161.128  35.166  45.9440  0.00  0.00     0.000 S
ATOM     85   O  IDS C   5     159.891  34.937  45.2460  0.00  0.00     0.000 OA
ATOM     86   O  IDS C   5     161.725  36.444  45.6370  0.00  0.00     0.000 OA
ATOM     87   O  IDS C   5     162.061  34.073  45.8220  0.00  0.00     0.000 OA
ENDBRANCH 78 83
BRANCH 81 88
ATOM     88   C  IDS C   5     156.908  38.080  50.4550  0.00  0.00     0.000 C
ATOM     89   O  IDS C   5     156.693  37.483  51.4760  0.00  0.00     0.000 OA
ATOM     90   O  IDS C   5     156.435  39.179  50.2770  0.00  0.00     0.000 OA
ENDBRANCH 81 88
ENDBRANCH 76 80
ENDBRANCH 56 76
ENDBRANCH 55 59
ENDBRANCH 39 55
ENDBRANCH 38 42
ENDBRANCH 18 38
ENDBRANCH 17 21
ENDBRANCH 1 17
TORSDOF 18
ENDMDL
MODEL 73
REMARK VINA RESULT:      -5.5     46.201     51.199
ROOT
ATOM      1  C1  IDS C   1     129.376  44.541  50.4440  0.00  0.00     0.000 C
ATOM      2  C2  IDS C   1     130.257  44.805  49.2190  0.00  0.00     0.000 C
ATOM      3  C3  IDS C   1     129.418  44.855  47.9510  0.00  0.00     0.000 C
ATOM      4  C4  IDS C   1     128.663  43.548  47.7540  0.00  0.00     0.000 C
ATOM      5  C5  IDS C   1     128.156  43.029  49.0960  0.00  0.00     0.000 C
ATOM      6  O5  IDS C   1     128.087  44.097  50.0410  0.00  0.00     0.000 O
ATOM      7   O  IDS C   1     130.263  45.108  46.8190  0.00  0.00     0.000 O
ATOM      9  HD  IDS C   1     130.888  45.655  47.0640  0.00  0.00     0.000 HD
ENDROOT
BRANCH 2 9
ATOM      9   O  IDS C   1     130.956  46.104  49.3430  0.00  0.00     0.000 O
ATOM     10   S  IDS C   1     132.548  46.147  49.2640  0.00  0.00     0.000 S
ATOM     11   O  IDS C   1     132.914  47.539  49.4030  0.00  0.00     0.000 OA
ATOM     12   O  IDS C   1     133.015  45.329  50.3650  0.00  0.00     0.000 OA
ATOM     13   O  IDS C   1     132.895  45.603  47.9700  0.00  0.00     0.000 OA
ENDBRANCH 2 9
BRANCH 5 14
ATOM     14   C  IDS C   1     126.778  42.398  48.9830  0.00  0.00     0.000 C
ATOM     15   O  IDS C   1     125.811  43.011  49.3620  0.00  0.00     0.000 OA
ATOM     16   O  IDS C   1     126.663  41.278  48.5130  0.00  0.00     0.000 OA
ENDBRANCH 5 14
BRANCH 1 17
ATOM     17  O4  SGN C   2     129.527  45.190  51.6020  0.00  0.00     0.000 O
BRANCH 17 21
ATOM     18  C1  SGN C   2     128.140  47.438  54.8500  0.00  0.00     0.000 C
ATOM     19  C2  SGN C   2     127.075  46.869  53.9030  0.00  0.00     0.000 C
ATOM     20  C3  SGN C   2     127.684  45.752  53.0470  0.00  0.00     0.000 C
ATOM     21  C4  SGN C   2     128.937  46.257  52.3400  0.00  0.00     0.000 C
ATOM     22  C5  SGN C   2     129.916  46.790  53.3810  0.00  0.00     0.000 C
ATOM     23  O5  SGN C   2     129.292  47.848  54.1440  0.00  0.00     0.000 O
ATOM     24   O  SGN C   2     126.727  45.285  52.1120  0.00  0.00     0.000 O
ATOM     26  HD  SGN C   2     127.361  45.220  52.6980  0.00  0.00     0.000 HD
BRANCH 19 28
ATOM     26   N  SGN C   2     125.655  47.191  54.1010  0.00  0.00     0.000 N
ATOM     28  HD  SGN C   2     125.845  47.555  53.3380  0.00  0.00     0.000 HD
ATOM     28   O  SGN C   2     123.422  46.542  55.0040  0.00  0.00     0.000 OA
ATOM     29   S  SGN C   2     124.496  46.085  53.9600  0.00  0.00     0.000 S
ATOM     30   O  SGN C   2     123.947  46.207  52.6640  0.00  0.00     0.000 OA
ATOM     31   O  SGN C   2     125.036  44.838  54.3790  0.00  0.00     0.000 OA
ENDBRANCH 19 28
BRANCH 22 32
ATOM     32   C  SGN C   2     131.173  47.370  52.7790  0.00  0.00     0.000 C
ATOM     33   S  SGN C   2     132.295  49.670  52.4790  0.00  0.00     0.000 S
ATOM     34   O  SGN C   2     131.412  50.037  51.4010  0.00  0.00     0.000 OA
ATOM     35   O  SGN C   2     132.606  50.766  53.3740  0.00  0.00     0.000 OA
ATOM     36   O  SGN C   2     133.458  48.924  52.0600  0.00  0.00     0.000 OA
ATOM     37   O  SGN C   2     131.438  48.652  53.3610  0.00  0.00     0.000 O
ENDBRANCH 22 32
BRANCH 18 38
ATOM     38  O4  IDS C   3     128.619  46.954  55.9980  0.00  0.00     0.000 O
BRANCH 38 42
ATOM     39  C1  IDS C   3     129.444  44.969  58.7380  0.00  0.00     0.000 C
ATOM     40  C2  IDS C   3     127.992  45.075  58.2460  0.00  0.00     0.000 C
ATOM     41  C3  IDS C   3     127.555  46.534  58.1210  0.00  0.00     0.000 C
ATOM     42  C4  IDS C   3     128.593  47.358  57.3710  0.00  0.00     0.000 C
ATOM     43  C5  IDS C   3     129.975  47.152  58.0030  0.00  0.00     0.000 C
ATOM     44  O5  IDS C   3     130.311  45.766  57.9490  0.00  0.00     0.000 O
ATOM     45   O  IDS C   3     127.356  47.081  59.4260  0.00  0.00     0.000 O
ATOM     47  HD  IDS C   3     127.842  47.154  60.1400  0.00  0.00     0.000 HD
BRANCH 40 47
ATOM     47   O  IDS C   3     127.850  44.452  56.9080  0.00  0.00     0.000 O
ATOM     48   S  IDS C   3     127.826  42.859  56.7700  0.00  0.00     0.000 S
ATOM     49   O  IDS C   3     129.201  42.428  56.9050  0.00  0.00     0.000 OA
ATOM     50   O  IDS C   3     127.292  42.599  55.4510  0.00  0.00     0.000 OA
ATOM     51   O  IDS C   3     126.983  42.372  57.8290  0.00  0.00     0.000 OA
ENDBRANCH 40 47
BRANCH 43 52
ATOM     52   C  IDS C   3     131.056  47.964  57.3250  0.00  0.00     0.000 C
ATOM     53   O  IDS C   3     131.078  49.166  57.4550  0.00  0.00     0.000 OA
ATOM     54   O  IDS C   3     131.892  47.408  56.6590  0.00  0.00     0.000 OA
ENDBRANCH 43 52
BRANCH 39 55
ATOM     55  O4  SGN C   4     129.785  44.908  60.0260  0.00  0.00     0.000 O
BRANCH 55 59
ATOM     56  C1  SGN C   4     131.321  42.910  63.3650  0.00  0.00     0.000 C
ATOM     57  C2  SGN C   4     132.167  42.854  62.0810  0.00  0.00     0.000 C
ATOM     58  C3  SGN C   4     131.714  43.920  61.0870  0.00  0.00     0.000 C
ATOM     59  C4  SGN C   4     130.207  43.846  60.8690  0.00  0.00     0.000 C
ATOM     60  C5  SGN C   4     129.509  43.949  62.2240  0.00  0.00     0.000 C
ATOM     61  O5  SGN C   4     129.942  42.843  63.0410  0.00  0.00     0.000 O
ATOM     62   O  SGN C   4     132.407  43.750  59.8580  0.00  0.00     0.000 O
ATOM     64  HD  SGN C   4     132.949  43.438  60.4570  0.00  0.00     0.000 HD
BRANCH 57 66
ATOM     64   N  SGN C   4     132.904  41.646  62.4870  0.00  0.00     0.000 N
ATOM     66  HD  SGN C   4     133.537  41.158  62.1530  0.00  0.00     0.000 HD
ATOM     66   S  SGN C   4     134.499  41.647  62.5370  0.00  0.00     0.000 S
ATOM     67   O  SGN C   4     134.913  40.341  62.8980  0.00  0.00     0.000 OA
ATOM     68   O  SGN C   4     134.953  42.211  61.3120  0.00  0.00     0.000 OA
ATOM     69   O  SGN C   4     134.833  42.638  63.6980  0.00  0.00     0.000 OA
ENDBRANCH 57 66
BRANCH 60 70
ATOM     70   C  SGN C   4     127.999  43.897  62.1390  0.00  0.00     0.000 C
ATOM     71   O  SGN C   4     125.918  41.163  60.6240  0.00  0.00     0.000 OA
ATOM     72   O  SGN C   4     126.354  41.555  62.9700  0.00  0.00     0.000 OA
ATOM     73   O  SGN C   4     127.578  42.798  61.3080  0.00  0.00     0.000 O
ATOM     74   S  SGN C   4     126.165  42.138  61.6610  0.00  0.00     0.000 S
ATOM     75   O  SGN C   4     125.227  43.242  61.6510  0.00  0.00     0.000 OA
ENDBRANCH 60 70
BRANCH 56 76
ATOM     76  O4  IDS C   5     131.429  43.517  64.5610  0.00  0.00     0.000 O
BRANCH 76 80
ATOM     77  C1  IDS C   5     129.959  47.288  65.0870  0.00  0.00     0.000 C
ATOM     78  C2  IDS C   5     131.452  47.229  64.7650  0.00  0.00     0.000 C
ATOM     79  C3  IDS C   5     131.796  45.878  64.1670  0.00  0.00     0.000 C
ATOM     80  C4  IDS C   5     131.581  44.788  65.2120  0.00  0.00     0.000 C
ATOM     81  C5  IDS C   5     130.332  45.117  66.0430  0.00  0.00     0.000 C
ATOM     82  O5  IDS C   5     129.451  45.972  65.3080  0.00  0.00     0.000 O
BRANCH 78 83
ATOM     83   O  IDS C   5     131.820  48.281  63.7880  0.00  0.00     0.000 O
ATOM     84   S  IDS C   5     133.020  49.279  64.1140  0.00  0.00     0.000 S
ATOM     85   O  IDS C   5     132.783  49.761  65.4480  0.00  0.00     0.000 OA
ATOM     86   O  IDS C   5     134.218  48.480  64.0030  0.00  0.00     0.000 OA
ATOM     87   O  IDS C   5     132.949  50.315  63.1120  0.00  0.00     0.000 OA
ENDBRANCH 78 83
BRANCH 81 88
ATOM     88   C  IDS C   5     129.536  43.897  66.4680  0.00  0.00     0.000 C
ATOM     89   O  IDS C   5     129.969  43.166  67.3180  0.00  0.00     0.000 OA
ATOM     90   O  IDS C   5     128.467  43.669  65.9490  0.00  0.00     0.000 OA
ENDBRANCH 81 88
ENDBRANCH 76 80
ENDBRANCH 56 76
ENDBRANCH 55 59
ENDBRANCH 39 55
ENDBRANCH 38 42
ENDBRANCH 18 38
ENDBRANCH 17 21
ENDBRANCH 1 17
TORSDOF 18
ENDMDL
MODEL 74
REMARK VINA RESULT:      -5.4     24.968     31.643
ROOT
ATOM      1  C1  IDS C   1     154.746  47.672  64.6310  0.00  0.00     0.000 C
ATOM      2  C2  IDS C   1     155.967  48.457  64.1450  0.00  0.00     0.000 C
ATOM      3  C3  IDS C   1     155.552  49.811  63.5880  0.00  0.00     0.000 C
ATOM      4  C4  IDS C   1     154.573  49.640  62.4350  0.00  0.00     0.000 C
ATOM      5  C5  IDS C   1     153.600  48.505  62.7380  0.00  0.00     0.000 C
ATOM      6  O5  IDS C   1     153.549  48.265  64.1440  0.00  0.00     0.000 O
ATOM      7   O  IDS C   1     156.712  50.529  63.1440  0.00  0.00     0.000 O
ATOM      9  HD  IDS C   1     157.364  50.356  63.6870  0.00  0.00     0.000 HD
ENDROOT
BRANCH 2 9
ATOM      9   O  IDS C   1     156.913  48.703  65.2570  0.00  0.00     0.000 O
ATOM     10   S  IDS C   1     158.437  48.263  65.1020  0.00  0.00     0.000 S
ATOM     11   O  IDS C   1     159.089  48.648  66.3340  0.00  0.00     0.000 OA
ATOM     12   O  IDS C   1     158.410  46.828  64.9030  0.00  0.00     0.000 OA
ATOM     13   O  IDS C   1     158.941  48.982  63.9520  0.00  0.00     0.000 OA
ENDBRANCH 2 9
BRANCH 5 14
ATOM     14   C  IDS C   1     152.194  48.809  62.2500  0.00  0.00     0.000 C
ATOM     15   O  IDS C   1     151.425  49.389  62.9780  0.00  0.00     0.000 OA
ATOM     16   O  IDS C   1     151.854  48.465  61.1310  0.00  0.00     0.000 OA
ENDBRANCH 5 14
BRANCH 1 17
ATOM     17  O4  SGN C   2     154.732  46.985  65.7770  0.00  0.00     0.000 O
BRANCH 17 21
ATOM     18  C1  SGN C   2     153.518  46.202  69.7070  0.00  0.00     0.000 C
ATOM     19  C2  SGN C   2     152.680  47.216  68.9180  0.00  0.00     0.000 C
ATOM     20  C3  SGN C   2     152.972  47.077  67.4190  0.00  0.00     0.000 C
ATOM     21  C4  SGN C   2     154.471  47.182  67.1650  0.00  0.00     0.000 C
ATOM     22  C5  SGN C   2     155.192  46.125  67.9970  0.00  0.00     0.000 C
ATOM     23  O5  SGN C   2     154.892  46.317  69.3980  0.00  0.00     0.000 O
ATOM     24   O  SGN C   2     152.264  48.070  66.6960  0.00  0.00     0.000 O
ATOM     26  HD  SGN C   2     152.579  47.280  66.8590  0.00  0.00     0.000 HD
BRANCH 19 28
ATOM     26   N  SGN C   2     151.316  47.071  69.4450  0.00  0.00     0.000 N
ATOM     28  HD  SGN C   2     151.775  46.496  69.9020  0.00  0.00     0.000 HD
ATOM     28   O  SGN C   2     149.121  48.114  70.0100  0.00  0.00     0.000 OA
ATOM     29   S  SGN C   2     150.639  48.180  70.3920  0.00  0.00     0.000 S
ATOM     30   O  SGN C   2     150.788  47.747  71.7280  0.00  0.00     0.000 OA
ATOM     31   O  SGN C   2     151.149  49.449  70.0040  0.00  0.00     0.000 OA
ENDBRANCH 19 28
BRANCH 22 32
ATOM     32   C  SGN C   2     156.695  46.180  67.8620  0.00  0.00     0.000 C
ATOM     33   S  SGN C   2     158.749  44.752  68.4800  0.00  0.00     0.000 S
ATOM     34   O  SGN C   2     158.693  45.147  69.8650  0.00  0.00     0.000 OA
ATOM     35   O  SGN C   2     159.107  43.363  68.2860  0.00  0.00     0.000 OA
ATOM     36   O  SGN C   2     159.493  45.660  67.6380  0.00  0.00     0.000 OA
ATOM     37   O  SGN C   2     157.237  44.860  67.9790  0.00  0.00     0.000 O
ENDBRANCH 22 32
BRANCH 18 38
ATOM     38  O4  IDS C   3     153.337  44.893  69.8930  0.00  0.00     0.000 O
BRANCH 38 42
ATOM     39  C1  IDS C   3     151.715  41.820  70.1360  0.00  0.00     0.000 C
ATOM     40  C2  IDS C   3     151.056  43.107  70.6570  0.00  0.00     0.000 C
ATOM     41  C3  IDS C   3     151.988  43.861  71.6050  0.00  0.00     0.000 C
ATOM     42  C4  IDS C   3     153.383  44.000  71.0110  0.00  0.00     0.000 C
ATOM     43  C5  IDS C   3     153.896  42.626  70.5630  0.00  0.00     0.000 C
ATOM     44  O5  IDS C   3     152.998  42.086  69.5940  0.00  0.00     0.000 O
ATOM     45   O  IDS C   3     152.061  43.164  72.8500  0.00  0.00     0.000 O
ATOM     47  HD  IDS C   3     152.264  42.356  73.0880  0.00  0.00     0.000 HD
BRANCH 40 47
ATOM     47   O  IDS C   3     150.732  44.018  69.5330  0.00  0.00     0.000 O
ATOM     48   S  IDS C   3     149.362  43.834  68.7300  0.00  0.00     0.000 S
ATOM     49   O  IDS C   3     149.566  42.704  67.8500  0.00  0.00     0.000 OA
ATOM     50   O  IDS C   3     149.177  45.073  68.0050  0.00  0.00     0.000 OA
ATOM     51   O  IDS C   3     148.341  43.597  69.7150  0.00  0.00     0.000 OA
ENDBRANCH 40 47
BRANCH 43 52
ATOM     52   C  IDS C   3     155.293  42.682  69.9860  0.00  0.00     0.000 C
ATOM     53   O  IDS C   3     155.508  42.235  68.8820  0.00  0.00     0.000 OA
ATOM     54   O  IDS C   3     156.185  43.172  70.6290  0.00  0.00     0.000 OA
ENDBRANCH 43 52
BRANCH 39 55
ATOM     55  O4  SGN C   4     151.619  40.640  70.7490  0.00  0.00     0.000 O
BRANCH 55 59
ATOM     56  C1  SGN C   4     149.218  37.795  72.6570  0.00  0.00     0.000 C
ATOM     57  C2  SGN C   4     148.495  38.816  71.7630  0.00  0.00     0.000 C
ATOM     58  C3  SGN C   4     149.483  39.521  70.8370  0.00  0.00     0.000 C
ATOM     59  C4  SGN C   4     150.658  40.080  71.6320  0.00  0.00     0.000 C
ATOM     60  C5  SGN C   4     151.289  38.947  72.4380  0.00  0.00     0.000 C
ATOM     61  O5  SGN C   4     150.293  38.422  73.3380  0.00  0.00     0.000 O
ATOM     62   O  SGN C   4     148.817  40.558  70.1310  0.00  0.00     0.000 O
ATOM     64  HD  SGN C   4     148.198  39.975  70.2940  0.00  0.00     0.000 HD
BRANCH 57 66
ATOM     64   N  SGN C   4     147.119  39.263  71.4920  0.00  0.00     0.000 N
ATOM     66  HD  SGN C   4     146.475  39.020  70.9660  0.00  0.00     0.000 HD
ATOM     66   S  SGN C   4     145.901  38.234  71.5710  0.00  0.00     0.000 S
ATOM     67   O  SGN C   4     144.727  38.938  71.2030  0.00  0.00     0.000 OA
ATOM     68   O  SGN C   4     146.284  37.079  70.8350  0.00  0.00     0.000 OA
ATOM     69   O  SGN C   4     145.829  37.861  73.0860  0.00  0.00     0.000 OA
ENDBRANCH 57 66
BRANCH 60 70
ATOM     70   C  SGN C   4     152.480  39.377  73.2670  0.00  0.00     0.000 C
ATOM     71   O  SGN C   4     154.873  37.141  75.1060  0.00  0.00     0.000 OA
ATOM     72   O  SGN C   4     155.219  38.239  72.9790  0.00  0.00     0.000 OA
ATOM     73   O  SGN C   4     153.029  38.253  73.9820  0.00  0.00     0.000 O
ATOM     74   S  SGN C   4     154.599  38.297  74.2830  0.00  0.00     0.000 S
ATOM     75   O  SGN C   4     154.810  39.557  74.9680  0.00  0.00     0.000 OA
ENDBRANCH 60 70
BRANCH 56 76
ATOM     76  O4  IDS C   5     149.494  36.479  72.5870  0.00  0.00     0.000 O
BRANCH 76 80
ATOM     77  C1  IDS C   5     150.566  32.598  71.9210  0.00  0.00     0.000 C
ATOM     78  C2  IDS C   5     151.079  33.181  73.2370  0.00  0.00     0.000 C
ATOM     79  C3  IDS C   5     150.288  34.424  73.5930  0.00  0.00     0.000 C
ATOM     80  C4  IDS C   5     150.554  35.513  72.5570  0.00  0.00     0.000 C
ATOM     81  C5  IDS C   5     150.659  34.875  71.1640  0.00  0.00     0.000 C
ATOM     82  O5  IDS C   5     149.965  33.624  71.1310  0.00  0.00     0.000 O
BRANCH 78 83
ATOM     83   O  IDS C   5     150.930  32.200  74.3380  0.00  0.00     0.000 O
ATOM     84   S  IDS C   5     149.777  31.100  74.2690  0.00  0.00     0.000 S
ATOM     85   O  IDS C   5     148.571  31.811  73.9370  0.00  0.00     0.000 OA
ATOM     86   O  IDS C   5     150.195  30.178  73.2390  0.00  0.00     0.000 OA
ATOM     87   O  IDS C   5     149.739  30.492  75.5770  0.00  0.00     0.000 OA
ENDBRANCH 78 83
BRANCH 81 88
ATOM     88   C  IDS C   5     150.100  35.738  70.0480  0.00  0.00     0.000 C
ATOM     89   O  IDS C   5     150.791  36.581  69.5410  0.00  0.00     0.000 OA
ATOM     90   O  IDS C   5     148.962  35.571  69.6750  0.00  0.00     0.000 OA
ENDBRANCH 81 88
ENDBRANCH 76 80
ENDBRANCH 56 76
ENDBRANCH 55 59
ENDBRANCH 39 55
ENDBRANCH 38 42
ENDBRANCH 18 38
ENDBRANCH 17 21
ENDBRANCH 1 17
TORSDOF 18
ENDMDL
MODEL 75
REMARK VINA RESULT:      -5.4     29.613     35.147
ROOT
ATOM      1  C1  IDS C   1     153.120  48.601  60.1970  0.00  0.00     0.000 C
ATOM      2  C2  IDS C   1     151.627  48.261  60.2030  0.00  0.00     0.000 C
ATOM      3  C3  IDS C   1     150.801  49.447  59.7270  0.00  0.00     0.000 C
ATOM      4  C4  IDS C   1     151.043  50.660  60.6140  0.00  0.00     0.000 C
ATOM      5  C5  IDS C   1     152.517  50.743  60.9970  0.00  0.00     0.000 C
ATOM      6  O5  IDS C   1     153.308  50.004  60.0660  0.00  0.00     0.000 O
ATOM      7   O  IDS C   1     149.408  49.103  59.7370  0.00  0.00     0.000 O
ATOM      9  HD  IDS C   1     149.331  48.274  59.5000  0.00  0.00     0.000 HD
ENDROOT
BRANCH 2 9
ATOM      9   O  IDS C   1     151.341  47.126  59.2960  0.00  0.00     0.000 O
ATOM     10   S  IDS C   1     150.628  45.822  59.8740  0.00  0.00     0.000 S
ATOM     11   O  IDS C   1     150.481  44.921  58.7530  0.00  0.00     0.000 OA
ATOM     12   O  IDS C   1     151.519  45.311  60.8960  0.00  0.00     0.000 OA
ATOM     13   O  IDS C   1     149.359  46.269  60.4050  0.00  0.00     0.000 OA
ENDBRANCH 2 9
BRANCH 5 14
ATOM     14   C  IDS C   1     153.022  52.175  61.0270  0.00  0.00     0.000 C
ATOM     15   O  IDS C   1     154.096  52.416  61.5230  0.00  0.00     0.000 OA
ATOM     16   O  IDS C   1     152.340  53.068  60.5530  0.00  0.00     0.000 OA
ENDBRANCH 5 14
BRANCH 1 17
ATOM     17  O4  SGN C   2     154.056  47.757  59.7530  0.00  0.00     0.000 O
BRANCH 17 21
ATOM     18  C1  SGN C   2     157.242  46.640  57.2770  0.00  0.00     0.000 C
ATOM     19  C2  SGN C   2     156.828  48.116  57.2390  0.00  0.00     0.000 C
ATOM     20  C3  SGN C   2     155.973  48.448  58.4690  0.00  0.00     0.000 C
ATOM     21  C4  SGN C   2     154.802  47.478  58.5710  0.00  0.00     0.000 C
ATOM     22  C5  SGN C   2     155.339  46.050  58.6050  0.00  0.00     0.000 C
ATOM     23  O5  SGN C   2     156.120  45.793  57.4150  0.00  0.00     0.000 O
ATOM     24   O  SGN C   2     155.517  49.788  58.3920  0.00  0.00     0.000 O
ATOM     26  HD  SGN C   2     155.840  49.080  58.7730  0.00  0.00     0.000 HD
BRANCH 19 28
ATOM     26   N  SGN C   2     158.025  48.740  56.6590  0.00  0.00     0.000 N
ATOM     28  HD  SGN C   2     157.996  47.961  56.2830  0.00  0.00     0.000 HD
ATOM     28   O  SGN C   2     159.198  50.801  55.8840  0.00  0.00     0.000 OA
ATOM     29   S  SGN C   2     157.936  49.926  55.5770  0.00  0.00     0.000 S
ATOM     30   O  SGN C   2     158.089  49.347  54.2970  0.00  0.00     0.000 OA
ATOM     31   O  SGN C   2     156.773  50.690  55.8680  0.00  0.00     0.000 OA
ENDBRANCH 19 28
BRANCH 22 32
ATOM     32   C  SGN C   2     154.253  45.003  58.6470  0.00  0.00     0.000 C
ATOM     33   S  SGN C   2     153.688  42.750  57.5300  0.00  0.00     0.000 S
ATOM     34   O  SGN C   2     153.257  43.385  56.3100  0.00  0.00     0.000 OA
ATOM     35   O  SGN C   2     154.419  41.519  57.3170  0.00  0.00     0.000 OA
ATOM     36   O  SGN C   2     152.654  42.640  58.5330  0.00  0.00     0.000 OA
ATOM     37   O  SGN C   2     154.760  43.762  58.1420  0.00  0.00     0.000 O
ENDBRANCH 22 32
BRANCH 18 38
ATOM     38  O4  IDS C   3     158.197  46.031  57.9820  0.00  0.00     0.000 O
BRANCH 38 42
ATOM     39  C1  IDS C   3     161.063  44.787  59.5220  0.00  0.00     0.000 C
ATOM     40  C2  IDS C   3     160.585  44.231  58.1710  0.00  0.00     0.000 C
ATOM     41  C3  IDS C   3     159.116  43.815  58.2330  0.00  0.00     0.000 C
ATOM     42  C4  IDS C   3     158.261  44.905  58.8650  0.00  0.00     0.000 C
ATOM     43  C5  IDS C   3     158.867  45.327  60.2080  0.00  0.00     0.000 C
ATOM     44  O5  IDS C   3     160.194  45.804  59.9930  0.00  0.00     0.000 O
ATOM     45   O  IDS C   3     158.997  42.609  58.9900  0.00  0.00     0.000 O
ATOM     47  HD  IDS C   3     159.233  42.360  59.7850  0.00  0.00     0.000 HD
BRANCH 40 47
ATOM     47   O  IDS C   3     160.712  45.260  57.1110  0.00  0.00     0.000 O
ATOM     48   S  IDS C   3     161.545  44.937  55.7850  0.00  0.00     0.000 S
ATOM     49   O  IDS C   3     162.940  45.043  56.1560  0.00  0.00     0.000 OA
ATOM     50   O  IDS C   3     161.148  45.949  54.8300  0.00  0.00     0.000 OA
ATOM     51   O  IDS C   3     161.174  43.606  55.3850  0.00  0.00     0.000 OA
ENDBRANCH 40 47
BRANCH 43 52
ATOM     52   C  IDS C   3     158.052  46.391  60.9100  0.00  0.00     0.000 C
ATOM     53   O  IDS C   3     158.407  47.546  60.8700  0.00  0.00     0.000 OA
ATOM     54   O  IDS C   3     157.052  46.081  61.5060  0.00  0.00     0.000 OA
ENDBRANCH 43 52
BRANCH 39 55
ATOM     55  O4  SGN C   4     161.588  44.032  60.4870  0.00  0.00     0.000 O
BRANCH 55 59
ATOM     56  C1  SGN C   4     164.876  41.643  61.4800  0.00  0.00     0.000 C
ATOM     57  C2  SGN C   4     164.877  42.263  60.0720  0.00  0.00     0.000 C
ATOM     58  C3  SGN C   4     163.861  43.398  59.9800  0.00  0.00     0.000 C
ATOM     59  C4  SGN C   4     162.495  42.940  60.4800  0.00  0.00     0.000 C
ATOM     60  C5  SGN C   4     162.652  42.383  61.8940  0.00  0.00     0.000 C
ATOM     61  O5  SGN C   4     163.558  41.263  61.8410  0.00  0.00     0.000 O
ATOM     62   O  SGN C   4     163.775  43.853  58.6360  0.00  0.00     0.000 O
ATOM     64  HD  SGN C   4     164.582  43.547  58.7110  0.00  0.00     0.000 HD
BRANCH 57 66
ATOM     64   N  SGN C   4     166.267  42.647  59.7780  0.00  0.00     0.000 N
ATOM     66  HD  SGN C   4     167.044  42.269  59.8290  0.00  0.00     0.000 HD
ATOM     66   S  SGN C   4     167.170  41.751  58.8150  0.00  0.00     0.000 S
ATOM     67   O  SGN C   4     168.460  42.337  58.7760  0.00  0.00     0.000 OA
ATOM     68   O  SGN C   4     167.027  40.403  59.2450  0.00  0.00     0.000 OA
ATOM     69   O  SGN C   4     166.488  41.905  57.4180  0.00  0.00     0.000 OA
ENDBRANCH 57 66
BRANCH 60 70
ATOM     70   C  SGN C   4     161.355  41.901  62.5070  0.00  0.00     0.000 C
ATOM     71   O  SGN C   4     160.233  38.338  62.8970  0.00  0.00     0.000 OA
ATOM     72   O  SGN C   4     161.177  39.780  64.5930  0.00  0.00     0.000 OA
ATOM     73   O  SGN C   4     161.190  40.486  62.2900  0.00  0.00     0.000 O
ATOM     74   S  SGN C   4     160.365  39.685  63.4010  0.00  0.00     0.000 S
ATOM     75   O  SGN C   4     159.102  40.390  63.5050  0.00  0.00     0.000 OA
ENDBRANCH 60 70
BRANCH 56 76
ATOM     76  O4  IDS C   5     165.570  41.836  62.6160  0.00  0.00     0.000 O
BRANCH 76 80
ATOM     77  C1  IDS C   5     169.584  42.380  62.1150  0.00  0.00     0.000 C
ATOM     78  C2  IDS C   5     169.197  41.029  62.7160  0.00  0.00     0.000 C
ATOM     79  C3  IDS C   5     167.729  40.752  62.4550  0.00  0.00     0.000 C
ATOM     80  C4  IDS C   5     166.876  41.768  63.2080  0.00  0.00     0.000 C
ATOM     81  C5  IDS C   5     167.559  43.142  63.1580  0.00  0.00     0.000 C
ATOM     82  O5  IDS C   5     168.437  43.226  62.0310  0.00  0.00     0.000 O
BRANCH 78 83
ATOM     83   O  IDS C   5     169.995  39.938  62.1080  0.00  0.00     0.000 O
ATOM     84   S  IDS C   5     171.006  39.098  63.0120  0.00  0.00     0.000 S
ATOM     85   O  IDS C   5     171.779  40.065  63.7440  0.00  0.00     0.000 OA
ATOM     86   O  IDS C   5     170.168  38.281  63.8590  0.00  0.00     0.000 OA
ATOM     87   O  IDS C   5     171.795  38.316  62.0910  0.00  0.00     0.000 OA
ENDBRANCH 78 83
BRANCH 81 88
ATOM     88   C  IDS C   5     166.592  44.308  63.0720  0.00  0.00     0.000 C
ATOM     89   O  IDS C   5     165.996  44.666  64.0530  0.00  0.00     0.000 OA
ATOM     90   O  IDS C   5     166.427  44.873  62.0150  0.00  0.00     0.000 OA
ENDBRANCH 81 88
ENDBRANCH 76 80
ENDBRANCH 56 76
ENDBRANCH 55 59
ENDBRANCH 39 55
ENDBRANCH 38 42
ENDBRANCH 18 38
ENDBRANCH 17 21
ENDBRANCH 1 17
TORSDOF 18
ENDMDL
MODEL 76
REMARK VINA RESULT:      -5.4     15.743     21.272
ROOT
ATOM      1  C1  IDS C   1     155.349  29.121  85.4210  0.00  0.00     0.000 C
ATOM      2  C2  IDS C   1     154.061  29.321  86.2250  0.00  0.00     0.000 C
ATOM      3  C3  IDS C   1     154.119  28.554  87.5380  0.00  0.00     0.000 C
ATOM      4  C4  IDS C   1     154.326  27.068  87.2840  0.00  0.00     0.000 C
ATOM      5  C5  IDS C   1     155.305  26.865  86.1310  0.00  0.00     0.000 C
ATOM      6  O5  IDS C   1     156.101  28.037  85.9520  0.00  0.00     0.000 O
ATOM      7   O  IDS C   1     152.905  28.761  88.2740  0.00  0.00     0.000 O
ATOM      9  HD  IDS C   1     152.646  29.577  88.1470  0.00  0.00     0.000 HD
ENDROOT
BRANCH 2 9
ATOM      9   O  IDS C   1     153.861  30.751  86.5510  0.00  0.00     0.000 O
ATOM     10   S  IDS C   1     152.492  31.462  86.1490  0.00  0.00     0.000 S
ATOM     11   O  IDS C   1     152.603  32.827  86.6110  0.00  0.00     0.000 OA
ATOM     12   O  IDS C   1     152.409  31.360  84.7060  0.00  0.00     0.000 OA
ATOM     13   O  IDS C   1     151.449  30.723  86.8260  0.00  0.00     0.000 OA
ENDBRANCH 2 9
BRANCH 5 14
ATOM     14   C  IDS C   1     156.231  25.685  86.3660  0.00  0.00     0.000 C
ATOM     15   O  IDS C   1     156.600  25.433  87.4870  0.00  0.00     0.000 OA
ATOM     16   O  IDS C   1     156.596  25.004  85.4220  0.00  0.00     0.000 OA
ENDBRANCH 5 14
BRANCH 1 17
ATOM     17  O4  SGN C   2     155.972  30.117  84.7850  0.00  0.00     0.000 O
BRANCH 17 21
ATOM     18  C1  SGN C   2     159.420  32.293  83.8350  0.00  0.00     0.000 C
ATOM     19  C2  SGN C   2     159.603  31.091  84.7690  0.00  0.00     0.000 C
ATOM     20  C3  SGN C   2     158.378  30.172  84.6800  0.00  0.00     0.000 C
ATOM     21  C4  SGN C   2     157.104  30.970  84.9370  0.00  0.00     0.000 C
ATOM     22  C5  SGN C   2     157.034  32.129  83.9480  0.00  0.00     0.000 C
ATOM     23  O5  SGN C   2     158.205  32.966  84.0910  0.00  0.00     0.000 O
ATOM     24   O  SGN C   2     158.505  29.107  85.6060  0.00  0.00     0.000 O
ATOM     26  HD  SGN C   2     158.314  29.482  84.8490  0.00  0.00     0.000 HD
BRANCH 19 28
ATOM     26   N  SGN C   2     161.048  30.850  84.6550  0.00  0.00     0.000 N
ATOM     28  HD  SGN C   2     160.977  31.710  84.5860  0.00  0.00     0.000 HD
ATOM     28   O  SGN C   2     163.045  29.498  85.2930  0.00  0.00     0.000 OA
ATOM     29   S  SGN C   2     161.950  30.427  85.9180  0.00  0.00     0.000 S
ATOM     30   O  SGN C   2     162.574  31.597  86.4050  0.00  0.00     0.000 OA
ATOM     31   O  SGN C   2     161.138  29.649  86.7880  0.00  0.00     0.000 OA
ENDBRANCH 19 28
BRANCH 22 32
ATOM     32   C  SGN C   2     155.834  33.020  84.1550  0.00  0.00     0.000 C
ATOM     33   S  SGN C   2     153.879  33.988  82.7820  0.00  0.00     0.000 S
ATOM     34   O  SGN C   2     154.717  34.982  82.1600  0.00  0.00     0.000 OA
ATOM     35   O  SGN C   2     152.894  33.416  81.8880  0.00  0.00     0.000 OA
ATOM     36   O  SGN C   2     153.332  34.392  84.0560  0.00  0.00     0.000 OA
ATOM     37   O  SGN C   2     154.875  32.786  83.1160  0.00  0.00     0.000 O
ENDBRANCH 22 32
BRANCH 18 38
ATOM     38  O4  IDS C   3     159.570  32.387  82.5120  0.00  0.00     0.000 O
BRANCH 38 42
ATOM     39  C1  IDS C   3     159.623  33.281  79.1460  0.00  0.00     0.000 C
ATOM     40  C2  IDS C   3     158.297  33.182  79.9190  0.00  0.00     0.000 C
ATOM     41  C3  IDS C   3     158.170  31.834  80.6270  0.00  0.00     0.000 C
ATOM     42  C4  IDS C   3     159.438  31.495  81.3990  0.00  0.00     0.000 C
ATOM     43  C5  IDS C   3     160.657  31.625  80.4770  0.00  0.00     0.000 C
ATOM     44  O5  IDS C   3     160.725  32.960  79.9780  0.00  0.00     0.000 O
ATOM     45   O  IDS C   3     157.906  30.815  79.6610  0.00  0.00     0.000 O
ATOM     47  HD  IDS C   3     158.297  30.542  78.9380  0.00  0.00     0.000 HD
BRANCH 40 47
ATOM     47   O  IDS C   3     158.219  34.239  80.9550  0.00  0.00     0.000 O
ATOM     48   S  IDS C   3     157.821  35.732  80.5410  0.00  0.00     0.000 S
ATOM     49   O  IDS C   3     159.006  36.306  79.9410  0.00  0.00     0.000 OA
ATOM     50   O  IDS C   3     157.456  36.385  81.7790  0.00  0.00     0.000 OA
ATOM     51   O  IDS C   3     156.726  35.619  79.6160  0.00  0.00     0.000 OA
ENDBRANCH 40 47
BRANCH 43 52
ATOM     52   C  IDS C   3     161.955  31.276  81.1710  0.00  0.00     0.000 C
ATOM     53   O  IDS C   3     162.030  30.270  81.8390  0.00  0.00     0.000 OA
ATOM     54   O  IDS C   3     162.909  32.001  81.0520  0.00  0.00     0.000 OA
ENDBRANCH 43 52
BRANCH 39 55
ATOM     55  O4  SGN C   4     159.769  32.896  77.8780  0.00  0.00     0.000 O
BRANCH 55 59
ATOM     56  C1  SGN C   4     157.909  35.451  75.1370  0.00  0.00     0.000 C
ATOM     57  C2  SGN C   4     157.431  33.989  75.1480  0.00  0.00     0.000 C
ATOM     58  C3  SGN C   4     157.884  33.281  76.4220  0.00  0.00     0.000 C
ATOM     59  C4  SGN C   4     159.381  33.470  76.6380  0.00  0.00     0.000 C
ATOM     60  C5  SGN C   4     159.692  34.965  76.6350  0.00  0.00     0.000 C
ATOM     61  O5  SGN C   4     159.309  35.504  75.3550  0.00  0.00     0.000 O
ATOM     62   O  SGN C   4     157.559  31.899  76.3400  0.00  0.00     0.000 O
ATOM     64  HD  SGN C   4     156.964  32.291  75.8480  0.00  0.00     0.000 HD
BRANCH 57 66
ATOM     64   N  SGN C   4     156.897  33.476  73.8760  0.00  0.00     0.000 N
ATOM     66  HD  SGN C   4     156.248  32.955  73.6340  0.00  0.00     0.000 HD
ATOM     66   S  SGN C   4     155.354  33.660  73.5100  0.00  0.00     0.000 S
ATOM     67   O  SGN C   4     155.133  33.016  72.2670  0.00  0.00     0.000 OA
ATOM     68   O  SGN C   4     154.605  33.258  74.6490  0.00  0.00     0.000 OA
ATOM     69   O  SGN C   4     155.199  35.204  73.3280  0.00  0.00     0.000 OA
ENDBRANCH 57 66
BRANCH 60 70
ATOM     70   C  SGN C   4     161.156  35.284  76.8520  0.00  0.00     0.000 C
ATOM     71   O  SGN C   4     162.594  38.500  78.1560  0.00  0.00     0.000 OA
ATOM     72   O  SGN C   4     162.264  36.433  79.3680  0.00  0.00     0.000 OA
ATOM     73   O  SGN C   4     161.327  36.681  77.1630  0.00  0.00     0.000 O
ATOM     74   S  SGN C   4     162.567  37.056  78.1000  0.00  0.00     0.000 S
ATOM     75   O  SGN C   4     163.720  36.483  77.4360  0.00  0.00     0.000 OA
ENDBRANCH 60 70
BRANCH 56 76
ATOM     76  O4  IDS C   5     157.392  36.635  75.5150  0.00  0.00     0.000 O
BRANCH 76 80
ATOM     77  C1  IDS C   5     155.265  39.914  76.6890  0.00  0.00     0.000 C
ATOM     78  C2  IDS C   5     154.461  38.889  75.8890  0.00  0.00     0.000 C
ATOM     79  C3  IDS C   5     155.184  37.557  75.8870  0.00  0.00     0.000 C
ATOM     80  C4  IDS C   5     156.501  37.692  75.1290  0.00  0.00     0.000 C
ATOM     81  C5  IDS C   5     157.127  39.060  75.4360  0.00  0.00     0.000 C
ATOM     82  O5  IDS C   5     156.648  39.561  76.6880  0.00  0.00     0.000 O
BRANCH 78 83
ATOM     83   O  IDS C   5     153.120  38.694  76.4880  0.00  0.00     0.000 O
ATOM     84   S  IDS C   5     151.819  38.798  75.5700  0.00  0.00     0.000 S
ATOM     85   O  IDS C   5     151.963  40.015  74.8170  0.00  0.00     0.000 OA
ATOM     86   O  IDS C   5     151.842  37.613  74.7450  0.00  0.00     0.000 OA
ATOM     87   O  IDS C   5     150.700  38.821  76.4800  0.00  0.00     0.000 OA
ENDBRANCH 78 83
BRANCH 81 88
ATOM     88   C  IDS C   5     158.644  39.043  75.5000  0.00  0.00     0.000 C
ATOM     89   O  IDS C   5     159.198  39.088  76.5660  0.00  0.00     0.000 OA
ATOM     90   O  IDS C   5     159.285  38.982  74.4770  0.00  0.00     0.000 OA
ENDBRANCH 81 88
ENDBRANCH 76 80
ENDBRANCH 56 76
ENDBRANCH 55 59
ENDBRANCH 39 55
ENDBRANCH 38 42
ENDBRANCH 18 38
ENDBRANCH 17 21
ENDBRANCH 1 17
TORSDOF 18
ENDMDL
MODEL 77
REMARK VINA RESULT:      -5.4     43.509     49.107
ROOT
ATOM      1  C1  IDS C   1     124.508  48.168  59.3710  0.00  0.00     0.000 C
ATOM      2  C2  IDS C   1     123.126  47.546  59.1550  0.00  0.00     0.000 C
ATOM      3  C3  IDS C   1     122.530  48.000  57.8300  0.00  0.00     0.000 C
ATOM      4  C4  IDS C   1     122.409  49.517  57.7880  0.00  0.00     0.000 C
ATOM      5  C5  IDS C   1     123.630  50.157  58.4420  0.00  0.00     0.000 C
ATOM      6  O5  IDS C   1     124.720  49.235  58.4560  0.00  0.00     0.000 O
ATOM      7   O  IDS C   1     121.239  47.401  57.6480  0.00  0.00     0.000 O
ATOM      9  HD  IDS C   1     121.264  46.598  57.9710  0.00  0.00     0.000 HD
ENDROOT
BRANCH 2 9
ATOM      9   O  IDS C   1     123.213  46.068  59.1220  0.00  0.00     0.000 O
ATOM     10   S  IDS C   1     122.309  45.208  60.1150  0.00  0.00     0.000 S
ATOM     11   O  IDS C   1     122.613  43.823  59.8280  0.00  0.00     0.000 OA
ATOM     12   O  IDS C   1     122.707  45.607  61.4490  0.00  0.00     0.000 OA
ATOM     13   O  IDS C   1     120.940  45.557  59.8070  0.00  0.00     0.000 OA
ENDBRANCH 2 9
BRANCH 5 14
ATOM     14   C  IDS C   1     124.074  51.416  57.7170  0.00  0.00     0.000 C
ATOM     15   O  IDS C   1     124.060  51.443  56.5100  0.00  0.00     0.000 OA
ATOM     16   O  IDS C   1     124.443  52.386  58.3580  0.00  0.00     0.000 OA
ENDBRANCH 5 14
BRANCH 1 17
ATOM     17  O4  SGN C   2     125.550  47.480  59.8460  0.00  0.00     0.000 O
BRANCH 17 21
ATOM     18  C1  SGN C   2     129.224  45.493  59.5740  0.00  0.00     0.000 C
ATOM     19  C2  SGN C   2     128.844  46.398  58.3950  0.00  0.00     0.000 C
ATOM     20  C3  SGN C   2     127.723  47.356  58.8170  0.00  0.00     0.000 C
ATOM     21  C4  SGN C   2     126.553  46.572  59.3990  0.00  0.00     0.000 C
ATOM     22  C5  SGN C   2     127.055  45.719  60.5610  0.00  0.00     0.000 C
ATOM     23  O5  SGN C   2     128.095  44.827  60.0990  0.00  0.00     0.000 O
ATOM     24   O  SGN C   2     127.310  48.133  57.7050  0.00  0.00     0.000 O
ATOM     26  HD  SGN C   2     127.526  47.980  58.5300  0.00  0.00     0.000 HD
BRANCH 19 28
ATOM     26   N  SGN C   2     130.150  46.611  57.7570  0.00  0.00     0.000 N
ATOM     28  HD  SGN C   2     130.207  45.810  58.0800  0.00  0.00     0.000 HD
ATOM     28   O  SGN C   2     131.491  47.654  55.9300  0.00  0.00     0.000 OA
ATOM     29   S  SGN C   2     130.334  46.624  56.1600  0.00  0.00     0.000 S
ATOM     30   O  SGN C   2     130.786  45.343  55.7730  0.00  0.00     0.000 OA
ATOM     31   O  SGN C   2     129.141  47.149  55.5920  0.00  0.00     0.000 OA
ENDBRANCH 19 28
BRANCH 22 32
ATOM     32   C  SGN C   2     125.981  44.854  61.1750  0.00  0.00     0.000 C
ATOM     33   S  SGN C   2     125.612  42.385  61.8170  0.00  0.00     0.000 S
ATOM     34   O  SGN C   2     125.376  41.994  60.4500  0.00  0.00     0.000 OA
ATOM     35   O  SGN C   2     126.374  41.415  62.5750  0.00  0.00     0.000 OA
ATOM     36   O  SGN C   2     124.434  42.857  62.5060  0.00  0.00     0.000 OA
ATOM     37   O  SGN C   2     126.569  43.658  61.7020  0.00  0.00     0.000 O
ENDBRANCH 22 32
BRANCH 18 38
ATOM     38  O4  IDS C   3     129.979  45.746  60.6460  0.00  0.00     0.000 O
BRANCH 38 42
ATOM     39  C1  IDS C   3     132.910  46.166  62.4780  0.00  0.00     0.000 C
ATOM     40  C2  IDS C   3     132.812  45.101  61.3740  0.00  0.00     0.000 C
ATOM     41  C3  IDS C   3     131.588  44.208  61.5740  0.00  0.00     0.000 C
ATOM     42  C4  IDS C   3     130.338  45.038  61.8370  0.00  0.00     0.000 C
ATOM     43  C5  IDS C   3     130.604  46.030  62.9750  0.00  0.00     0.000 C
ATOM     44  O5  IDS C   3     131.692  46.878  62.6110  0.00  0.00     0.000 O
ATOM     45   O  IDS C   3     131.820  43.325  62.6730  0.00  0.00     0.000 O
ATOM     47  HD  IDS C   3     132.040  43.428  63.5050  0.00  0.00     0.000 HD
BRANCH 40 47
ATOM     47   O  IDS C   3     132.683  45.741  60.0440  0.00  0.00     0.000 O
ATOM     48   S  IDS C   3     133.996  46.108  59.2070  0.00  0.00     0.000 S
ATOM     49   O  IDS C   3     134.531  47.308  59.8130  0.00  0.00     0.000 OA
ATOM     50   O  IDS C   3     133.535  46.331  57.8540  0.00  0.00     0.000 OA
ATOM     51   O  IDS C   3     134.882  44.981  59.3250  0.00  0.00     0.000 OA
ENDBRANCH 40 47
BRANCH 43 52
ATOM     52   C  IDS C   3     129.394  46.873  63.3120  0.00  0.00     0.000 C
ATOM     53   O  IDS C   3     128.427  46.361  63.8290  0.00  0.00     0.000 OA
ATOM     54   O  IDS C   3     129.399  48.052  63.0640  0.00  0.00     0.000 OA
ENDBRANCH 43 52
BRANCH 39 55
ATOM     55  O4  SGN C   4     133.558  45.980  63.6280  0.00  0.00     0.000 O
BRANCH 55 59
ATOM     56  C1  SGN C   4     135.593  43.522  66.3350  0.00  0.00     0.000 C
ATOM     57  C2  SGN C   4     135.829  43.242  64.8400  0.00  0.00     0.000 C
ATOM     58  C3  SGN C   4     135.365  44.421  63.9890  0.00  0.00     0.000 C
ATOM     59  C4  SGN C   4     133.939  44.818  64.3520  0.00  0.00     0.000 C
ATOM     60  C5  SGN C   4     133.873  45.095  65.8530  0.00  0.00     0.000 C
ATOM     61  O5  SGN C   4     134.240  43.888  66.5510  0.00  0.00     0.000 O
ATOM     62   O  SGN C   4     135.456  44.079  62.6130  0.00  0.00     0.000 O
ATOM     64  HD  SGN C   4     136.068  43.601  62.9960  0.00  0.00     0.000 HD
BRANCH 57 66
ATOM     64   N  SGN C   4     136.350  41.909  65.1810  0.00  0.00     0.000 N
ATOM     66  HD  SGN C   4     136.586  41.199  64.7440  0.00  0.00     0.000 HD
ATOM     66   S  SGN C   4     137.695  41.368  64.5130  0.00  0.00     0.000 S
ATOM     67   O  SGN C   4     137.903  40.048  64.9860  0.00  0.00     0.000 OA
ATOM     68   O  SGN C   4     137.586  41.600  63.1140  0.00  0.00     0.000 OA
ATOM     69   O  SGN C   4     138.801  42.307  65.0920  0.00  0.00     0.000 OA
ENDBRANCH 57 66
BRANCH 60 70
ATOM     70   C  SGN C   4     132.501  45.510  66.3370  0.00  0.00     0.000 C
ATOM     71   O  SGN C   4     129.306  43.562  66.0070  0.00  0.00     0.000 OA
ATOM     72   O  SGN C   4     130.705  43.779  67.9680  0.00  0.00     0.000 OA
ATOM     73   O  SGN C   4     131.496  44.602  65.8460  0.00  0.00     0.000 O
ATOM     74   S  SGN C   4     130.202  44.404  66.7660  0.00  0.00     0.000 S
ATOM     75   O  SGN C   4     129.693  45.744  66.9820  0.00  0.00     0.000 OA
ENDBRANCH 60 70
BRANCH 56 76
ATOM     76  O4  IDS C   5     136.320  44.035  67.3440  0.00  0.00     0.000 O
BRANCH 76 80
ATOM     77  C1  IDS C   5     136.610  48.076  67.8430  0.00  0.00     0.000 C
ATOM     78  C2  IDS C   5     137.758  47.450  67.0510  0.00  0.00     0.000 C
ATOM     79  C3  IDS C   5     137.350  46.079  66.5500  0.00  0.00     0.000 C
ATOM     80  C4  IDS C   5     137.145  45.143  67.7380  0.00  0.00     0.000 C
ATOM     81  C5  IDS C   5     136.487  45.918  68.8880  0.00  0.00     0.000 C
ATOM     82  O5  IDS C   5     135.776  47.054  68.3870  0.00  0.00     0.000 O
BRANCH 78 83
ATOM     83   O  IDS C   5     138.107  48.291  65.8810  0.00  0.00     0.000 O
ATOM     84   S  IDS C   5     139.632  48.662  65.5980  0.00  0.00     0.000 S
ATOM     85   O  IDS C   5     140.164  49.132  66.8490  0.00  0.00     0.000 OA
ATOM     86   O  IDS C   5     140.243  47.434  65.1470  0.00  0.00     0.000 OA
ATOM     87   O  IDS C   5     139.603  49.677  64.5730  0.00  0.00     0.000 OA
ENDBRANCH 78 83
BRANCH 81 88
ATOM     88   C  IDS C   5     135.512  45.093  69.7090  0.00  0.00     0.000 C
ATOM     89   O  IDS C   5     134.329  45.253  69.5710  0.00  0.00     0.000 OA
ATOM     90   O  IDS C   5     135.933  44.277  70.4970  0.00  0.00     0.000 OA
ENDBRANCH 81 88
ENDBRANCH 76 80
ENDBRANCH 56 76
ENDBRANCH 55 59
ENDBRANCH 39 55
ENDBRANCH 38 42
ENDBRANCH 18 38
ENDBRANCH 17 21
ENDBRANCH 1 17
TORSDOF 18
ENDMDL
MODEL 78
REMARK VINA RESULT:      -5.3     24.324     31.118
ROOT
ATOM      1  C1  IDS C   1     185.412  26.001  60.6460  0.00  0.00     0.000 C
ATOM      2  C2  IDS C   1     184.373  26.258  61.7400  0.00  0.00     0.000 C
ATOM      3  C3  IDS C   1     183.867  27.692  61.6790  0.00  0.00     0.000 C
ATOM      4  C4  IDS C   1     185.018  28.675  61.8380  0.00  0.00     0.000 C
ATOM      5  C5  IDS C   1     186.247  28.168  61.0890  0.00  0.00     0.000 C
ATOM      6  O5  IDS C   1     185.858  27.230  60.0860  0.00  0.00     0.000 O
ATOM      7   O  IDS C   1     182.893  27.907  62.7100  0.00  0.00     0.000 O
ATOM      9  HD  IDS C   1     182.426  27.183  62.7990  0.00  0.00     0.000 HD
ENDROOT
BRANCH 2 9
ATOM      9   O  IDS C   1     183.204  25.365  61.5770  0.00  0.00     0.000 O
ATOM     10   S  IDS C   1     182.783  24.398  62.7740  0.00  0.00     0.000 S
ATOM     11   O  IDS C   1     181.616  23.680  62.3120  0.00  0.00     0.000 OA
ATOM     12   O  IDS C   1     183.925  23.535  62.9980  0.00  0.00     0.000 OA
ATOM     13   O  IDS C   1     182.501  25.262  63.8990  0.00  0.00     0.000 OA
ENDBRANCH 2 9
BRANCH 5 14
ATOM     14   C  IDS C   1     187.016  29.295  60.4220  0.00  0.00     0.000 C
ATOM     15   O  IDS C   1     187.060  29.352  59.2170  0.00  0.00     0.000 OA
ATOM     16   O  IDS C   1     187.583  30.130  61.1060  0.00  0.00     0.000 OA
ENDBRANCH 5 14
BRANCH 1 17
ATOM     17  O4  SGN C   2     185.432  24.886  59.9090  0.00  0.00     0.000 O
BRANCH 17 21
ATOM     18  C1  SGN C   2     185.112  22.705  56.3500  0.00  0.00     0.000 C
ATOM     19  C2  SGN C   2     185.205  24.230  56.2150  0.00  0.00     0.000 C
ATOM     20  C3  SGN C   2     185.735  24.836  57.5200  0.00  0.00     0.000 C
ATOM     21  C4  SGN C   2     184.888  24.368  58.6980  0.00  0.00     0.000 C
ATOM     22  C5  SGN C   2     184.876  22.843  58.7290  0.00  0.00     0.000 C
ATOM     23  O5  SGN C   2     184.352  22.333  57.4810  0.00  0.00     0.000 O
ATOM     24   O  SGN C   2     185.740  26.250  57.4280  0.00  0.00     0.000 O
ATOM     26  HD  SGN C   2     186.048  25.468  57.6340  0.00  0.00     0.000 HD
BRANCH 19 28
ATOM     26   N  SGN C   2     185.576  24.376  54.8010  0.00  0.00     0.000 N
ATOM     28  HD  SGN C   2     185.031  23.704  54.8020  0.00  0.00     0.000 HD
ATOM     28   O  SGN C   2     186.211  25.863  52.9010  0.00  0.00     0.000 OA
ATOM     29   S  SGN C   2     185.030  25.584  53.8900  0.00  0.00     0.000 S
ATOM     30   O  SGN C   2     183.929  25.096  53.1520  0.00  0.00     0.000 OA
ATOM     31   O  SGN C   2     184.865  26.718  54.7310  0.00  0.00     0.000 OA
ENDBRANCH 19 28
BRANCH 22 32
ATOM     32   C  SGN C   2     184.014  22.273  59.8290  0.00  0.00     0.000 C
ATOM     33   S  SGN C   2     182.035  20.643  60.0920  0.00  0.00     0.000 S
ATOM     34   O  SGN C   2     181.081  21.617  59.6230  0.00  0.00     0.000 OA
ATOM     35   O  SGN C   2     181.767  19.298  59.6280  0.00  0.00     0.000 OA
ATOM     36   O  SGN C   2     182.306  20.720  61.5090  0.00  0.00     0.000 OA
ATOM     37   O  SGN C   2     183.402  21.058  59.3810  0.00  0.00     0.000 O
ENDBRANCH 22 32
BRANCH 18 38
ATOM     38  O4  IDS C   3     186.066  21.774  56.2790  0.00  0.00     0.000 O
BRANCH 38 42
ATOM     39  C1  IDS C   3     186.289  18.322  55.8720  0.00  0.00     0.000 C
ATOM     40  C2  IDS C   3     187.368  19.100  56.6430  0.00  0.00     0.000 C
ATOM     41  C3  IDS C   3     187.897  20.274  55.8190  0.00  0.00     0.000 C
ATOM     42  C4  IDS C   3     186.756  21.090  55.2280  0.00  0.00     0.000 C
ATOM     43  C5  IDS C   3     185.788  20.165  54.4810  0.00  0.00     0.000 C
ATOM     44  O5  IDS C   3     185.278  19.191  55.3900  0.00  0.00     0.000 O
ATOM     45   O  IDS C   3     188.730  19.778  54.7690  0.00  0.00     0.000 O
ATOM     47  HD  IDS C   3     188.629  19.207  54.1260  0.00  0.00     0.000 HD
BRANCH 40 47
ATOM     47   O  IDS C   3     186.813  19.654  57.9000  0.00  0.00     0.000 O
ATOM     48   S  IDS C   3     186.235  18.666  59.0180  0.00  0.00     0.000 S
ATOM     49   O  IDS C   3     184.934  18.246  58.5420  0.00  0.00     0.000 OA
ATOM     50   O  IDS C   3     186.153  19.462  60.2230  0.00  0.00     0.000 OA
ATOM     51   O  IDS C   3     187.170  17.578  59.1210  0.00  0.00     0.000 OA
ENDBRANCH 40 47
BRANCH 43 52
ATOM     52   C  IDS C   3     184.639  20.913  53.8410  0.00  0.00     0.000 C
ATOM     53   O  IDS C   3     183.504  20.526  54.0010  0.00  0.00     0.000 OA
ATOM     54   O  IDS C   3     184.861  21.891  53.1740  0.00  0.00     0.000 OA
ENDBRANCH 43 52
BRANCH 39 55
ATOM     55  O4  SGN C   4     186.554  17.296  55.0640  0.00  0.00     0.000 O
BRANCH 55 59
ATOM     56  C1  SGN C   4     185.746  13.200  54.7990  0.00  0.00     0.000 C
ATOM     57  C2  SGN C   4     185.497  13.863  56.1650  0.00  0.00     0.000 C
ATOM     58  C3  SGN C   4     185.445  15.382  56.0270  0.00  0.00     0.000 C
ATOM     59  C4  SGN C   4     186.667  15.896  55.2760  0.00  0.00     0.000 C
ATOM     60  C5  SGN C   4     186.760  15.172  53.9350  0.00  0.00     0.000 C
ATOM     61  O5  SGN C   4     186.899  13.760  54.1910  0.00  0.00     0.000 O
ATOM     62   O  SGN C   4     185.363  15.974  57.3170  0.00  0.00     0.000 O
ATOM     64  HD  SGN C   4     184.992  15.197  57.4110  0.00  0.00     0.000 HD
BRANCH 57 66
ATOM     64   N  SGN C   4     185.429  12.499  56.7130  0.00  0.00     0.000 N
ATOM     66  HD  SGN C   4     185.469  12.138  57.5000  0.00  0.00     0.000 HD
ATOM     66   S  SGN C   4     184.384  12.138  57.8640  0.00  0.00     0.000 S
ATOM     67   O  SGN C   4     184.598  10.784  58.2230  0.00  0.00     0.000 OA
ATOM     68   O  SGN C   4     184.493  13.150  58.8580  0.00  0.00     0.000 OA
ATOM     69   O  SGN C   4     182.995  12.275  57.1610  0.00  0.00     0.000 OA
ENDBRANCH 57 66
BRANCH 60 70
ATOM     70   C  SGN C   4     187.936  15.605  53.0860  0.00  0.00     0.000 C
ATOM     71   O  SGN C   4     191.060  13.640  52.3900  0.00  0.00     0.000 OA
ATOM     72   O  SGN C   4     189.152  13.940  50.9350  0.00  0.00     0.000 OA
ATOM     73   O  SGN C   4     189.028  14.676  53.2260  0.00  0.00     0.000 O
ATOM     74   S  SGN C   4     189.993  14.514  51.9610  0.00  0.00     0.000 S
ATOM     75   O  SGN C   4     190.436  15.860  51.6580  0.00  0.00     0.000 OA
ENDBRANCH 60 70
BRANCH 56 76
ATOM     76  O4  IDS C   5     184.973  12.696  53.8200  0.00  0.00     0.000 O
BRANCH 76 80
ATOM     77  C1  IDS C   5     181.728  10.367  52.9800  0.00  0.00     0.000 C
ATOM     78  C2  IDS C   5     182.884   9.626  53.6510  0.00  0.00     0.000 C
ATOM     79  C3  IDS C   5     183.823  10.621  54.3050  0.00  0.00     0.000 C
ATOM     80  C4  IDS C   5     184.484  11.480  53.2320  0.00  0.00     0.000 C
ATOM     81  C5  IDS C   5     183.463  11.791  52.1280  0.00  0.00     0.000 C
ATOM     82  O5  IDS C   5     182.129  11.693  52.6360  0.00  0.00     0.000 O
BRANCH 78 83
ATOM     83   O  IDS C   5     182.380   8.702  54.6930  0.00  0.00     0.000 O
ATOM     84   S  IDS C   5     182.552   7.127  54.5080  0.00  0.00     0.000 S
ATOM     85   O  IDS C   5     182.091   6.832  53.1780  0.00  0.00     0.000 OA
ATOM     86   O  IDS C   5     183.963   6.877  54.6890  0.00  0.00     0.000 OA
ATOM     87   O  IDS C   5     181.744   6.522  55.5380  0.00  0.00     0.000 OA
ENDBRANCH 78 83
BRANCH 81 88
ATOM     88   C  IDS C   5     183.620  13.171  51.5160  0.00  0.00     0.000 C
ATOM     89   O  IDS C   5     182.850  14.047  51.8090  0.00  0.00     0.000 OA
ATOM     90   O  IDS C   5     184.521  13.382  50.7370  0.00  0.00     0.000 OA
ENDBRANCH 81 88
ENDBRANCH 76 80
ENDBRANCH 56 76
ENDBRANCH 55 59
ENDBRANCH 39 55
ENDBRANCH 38 42
ENDBRANCH 18 38
ENDBRANCH 17 21
ENDBRANCH 1 17
TORSDOF 18
ENDMDL
MODEL 79
REMARK VINA RESULT:      -5.3     47.452     52.041
ROOT
ATOM      1  C1  IDS C   1     122.385  34.533  66.2890  0.00  0.00     0.000 C
ATOM      2  C2  IDS C   1     122.166  33.135  65.7050  0.00  0.00     0.000 C
ATOM      3  C3  IDS C   1     121.393  32.257  66.6770  0.00  0.00     0.000 C
ATOM      4  C4  IDS C   1     122.137  32.137  68.0000  0.00  0.00     0.000 C
ATOM      5  C5  IDS C   1     122.765  33.477  68.3710  0.00  0.00     0.000 C
ATOM      6  O5  IDS C   1     122.101  34.538  67.6830  0.00  0.00     0.000 O
ATOM      7   O  IDS C   1     121.197  30.956  66.1060  0.00  0.00     0.000 O
ATOM      9  HD  IDS C   1     121.065  31.049  65.2550  0.00  0.00     0.000 HD
ENDROOT
BRANCH 2 9
ATOM      9   O  IDS C   1     121.385  33.205  64.4490  0.00  0.00     0.000 O
ATOM     10   S  IDS C   1     121.966  32.531  63.1260  0.00  0.00     0.000 S
ATOM     11   O  IDS C   1     120.976  32.758  62.0970  0.00  0.00     0.000 OA
ATOM     12   O  IDS C   1     123.220  33.207  62.8620  0.00  0.00     0.000 OA
ATOM     13   O  IDS C   1     122.138  31.129  63.4390  0.00  0.00     0.000 OA
ENDBRANCH 2 9
BRANCH 5 14
ATOM     14   C  IDS C   1     122.691  33.752  69.8630  0.00  0.00     0.000 C
ATOM     15   O  IDS C   1     122.989  32.880  70.6430  0.00  0.00     0.000 OA
ATOM     16   O  IDS C   1     122.331  34.847  70.2600  0.00  0.00     0.000 OA
ENDBRANCH 5 14
BRANCH 1 17
ATOM     17  O4  SGN C   2     122.236  35.652  65.5750  0.00  0.00     0.000 O
BRANCH 17 21
ATOM     18  C1  SGN C   2     120.303  39.167  64.3780  0.00  0.00     0.000 C
ATOM     19  C2  SGN C   2     119.853  38.556  65.7110  0.00  0.00     0.000 C
ATOM     20  C3  SGN C   2     120.907  37.559  66.2070  0.00  0.00     0.000 C
ATOM     21  C4  SGN C   2     121.208  36.530  65.1230  0.00  0.00     0.000 C
ATOM     22  C5  SGN C   2     121.647  37.257  63.8550  0.00  0.00     0.000 C
ATOM     23  O5  SGN C   2     120.608  38.168  63.4290  0.00  0.00     0.000 O
ATOM     24   O  SGN C   2     120.454  36.928  67.3930  0.00  0.00     0.000 O
ATOM     26  HD  SGN C   2     121.024  37.312  66.8670  0.00  0.00     0.000 HD
BRANCH 19 28
ATOM     26   N  SGN C   2     119.190  39.702  66.3490  0.00  0.00     0.000 N
ATOM     28  HD  SGN C   2     119.041  39.822  65.5040  0.00  0.00     0.000 HD
ATOM     28   O  SGN C   2     117.946  40.637  68.2980  0.00  0.00     0.000 OA
ATOM     29   S  SGN C   2     117.821  39.549  67.1780  0.00  0.00     0.000 S
ATOM     30   O  SGN C   2     116.759  39.907  66.3180  0.00  0.00     0.000 OA
ATOM     31   O  SGN C   2     117.828  38.266  67.7900  0.00  0.00     0.000 OA
ENDBRANCH 19 28
BRANCH 22 32
ATOM     32   C  SGN C   2     121.915  36.328  62.6960  0.00  0.00     0.000 C
ATOM     33   S  SGN C   2     122.826  36.447  60.2880  0.00  0.00     0.000 S
ATOM     34   O  SGN C   2     121.596  36.998  59.7770  0.00  0.00     0.000 OA
ATOM     35   O  SGN C   2     124.013  37.018  59.6850  0.00  0.00     0.000 OA
ATOM     36   O  SGN C   2     122.847  35.005  60.3440  0.00  0.00     0.000 OA
ATOM     37   O  SGN C   2     122.869  36.926  61.8100  0.00  0.00     0.000 O
ENDBRANCH 22 32
BRANCH 18 38
ATOM     38  O4  IDS C   3     121.190  40.133  64.1290  0.00  0.00     0.000 O
BRANCH 38 42
ATOM     39  C1  IDS C   3     123.900  42.279  63.7060  0.00  0.00     0.000 C
ATOM     40  C2  IDS C   3     123.135  42.222  65.0390  0.00  0.00     0.000 C
ATOM     41  C3  IDS C   3     121.633  42.400  64.8220  0.00  0.00     0.000 C
ATOM     42  C4  IDS C   3     121.127  41.499  63.7030  0.00  0.00     0.000 C
ATOM     43  C5  IDS C   3     121.986  41.696  62.4490  0.00  0.00     0.000 C
ATOM     44  O5  IDS C   3     123.343  41.384  62.7580  0.00  0.00     0.000 O
ATOM     45   O  IDS C   3     121.360  43.765  64.5010  0.00  0.00     0.000 O
ATOM     47  HD  IDS C   3     121.642  44.321  63.9000  0.00  0.00     0.000 HD
BRANCH 40 47
ATOM     47   O  IDS C   3     123.337  40.910  65.6980  0.00  0.00     0.000 O
ATOM     48   S  IDS C   3     124.812  40.439  66.0990  0.00  0.00     0.000 S
ATOM     49   O  IDS C   3     125.435  39.999  64.8690  0.00  0.00     0.000 OA
ATOM     50   O  IDS C   3     124.623  39.358  67.0420  0.00  0.00     0.000 OA
ATOM     51   O  IDS C   3     125.462  41.586  66.6750  0.00  0.00     0.000 OA
ENDBRANCH 40 47
BRANCH 43 52
ATOM     52   C  IDS C   3     121.524  40.850  61.2830  0.00  0.00     0.000 C
ATOM     53   O  IDS C   3     120.376  40.918  60.9070  0.00  0.00     0.000 OA
ATOM     54   O  IDS C   3     122.302  40.112  60.7340  0.00  0.00     0.000 OA
ENDBRANCH 43 52
BRANCH 39 55
ATOM     55  O4  SGN C   4     124.375  43.406  63.1750  0.00  0.00     0.000 O
BRANCH 55 59
ATOM     56  C1  SGN C   4     127.252  43.055  60.1580  0.00  0.00     0.000 C
ATOM     57  C2  SGN C   4     127.742  42.851  61.6020  0.00  0.00     0.000 C
ATOM     58  C3  SGN C   4     126.565  42.612  62.5440  0.00  0.00     0.000 C
ATOM     59  C4  SGN C   4     125.508  43.697  62.3700  0.00  0.00     0.000 C
ATOM     60  C5  SGN C   4     125.102  43.755  60.8990  0.00  0.00     0.000 C
ATOM     61  O5  SGN C   4     126.270  44.077  60.1190  0.00  0.00     0.000 O
ATOM     62   O  SGN C   4     127.030  42.576  63.8870  0.00  0.00     0.000 O
ATOM     64  HD  SGN C   4     127.705  42.307  63.4160  0.00  0.00     0.000 HD
BRANCH 57 66
ATOM     64   N  SGN C   4     128.893  42.263  60.8980  0.00  0.00     0.000 N
ATOM     66  HD  SGN C   4     129.711  42.494  60.7360  0.00  0.00     0.000 HD
ATOM     66   S  SGN C   4     130.298  42.097  61.6360  0.00  0.00     0.000 S
ATOM     67   O  SGN C   4     131.213  41.566  60.6930  0.00  0.00     0.000 OA
ATOM     68   O  SGN C   4     130.586  43.339  62.2660  0.00  0.00     0.000 OA
ATOM     69   O  SGN C   4     130.013  41.030  62.7410  0.00  0.00     0.000 OA
ENDBRANCH 57 66
BRANCH 60 70
ATOM     70   C  SGN C   4     124.044  44.794  60.5980  0.00  0.00     0.000 C
ATOM     71   O  SGN C   4     120.413  44.171  59.8660  0.00  0.00     0.000 OA
ATOM     72   O  SGN C   4     121.389  44.922  61.9470  0.00  0.00     0.000 OA
ATOM     73   O  SGN C   4     122.823  44.162  60.1660  0.00  0.00     0.000 O
ATOM     74   S  SGN C   4     121.463  44.931  60.5040  0.00  0.00     0.000 S
ATOM     75   O  SGN C   4     121.638  46.257  59.9440  0.00  0.00     0.000 OA
ENDBRANCH 60 70
BRANCH 56 76
ATOM     76  O4  IDS C   5     127.058  42.262  59.0880  0.00  0.00     0.000 O
BRANCH 76 80
ATOM     77  C1  IDS C   5     127.090  44.368  55.5920  0.00  0.00     0.000 C
ATOM     78  C2  IDS C   5     125.774  43.650  55.8870  0.00  0.00     0.000 C
ATOM     79  C3  IDS C   5     125.706  43.284  57.3570  0.00  0.00     0.000 C
ATOM     80  C4  IDS C   5     126.788  42.257  57.6780  0.00  0.00     0.000 C
ATOM     81  C5  IDS C   5     128.061  42.595  56.8870  0.00  0.00     0.000 C
ATOM     82  O5  IDS C   5     128.084  43.983  56.5420  0.00  0.00     0.000 O
BRANCH 78 83
ATOM     83   O  IDS C   5     124.619  44.521  55.5680  0.00  0.00     0.000 O
ATOM     84   S  IDS C   5     123.470  43.990  54.5970  0.00  0.00     0.000 S
ATOM     85   O  IDS C   5     124.143  43.447  53.4470  0.00  0.00     0.000 OA
ATOM     86   O  IDS C   5     122.759  42.992  55.3620  0.00  0.00     0.000 OA
ATOM     87   O  IDS C   5     122.655  45.140  54.2900  0.00  0.00     0.000 OA
ENDBRANCH 78 83
BRANCH 81 88
ATOM     88   C  IDS C   5     129.348  42.287  57.6310  0.00  0.00     0.000 C
ATOM     89   O  IDS C   5     130.054  43.186  58.0020  0.00  0.00     0.000 OA
ATOM     90   O  IDS C   5     129.654  41.137  57.8480  0.00  0.00     0.000 OA
ENDBRANCH 81 88
ENDBRANCH 76 80
ENDBRANCH 56 76
ENDBRANCH 55 59
ENDBRANCH 39 55
ENDBRANCH 38 42
ENDBRANCH 18 38
ENDBRANCH 17 21
ENDBRANCH 1 17
TORSDOF 18
ENDMDL
MODEL 80
REMARK VINA RESULT:      -5.3     49.486     55.231
ROOT
ATOM      1  C1  IDS C   1     130.545  44.552  58.4810  0.00  0.00     0.000 C
ATOM      2  C2  IDS C   1     129.859  43.946  59.7080  0.00  0.00     0.000 C
ATOM      3  C3  IDS C   1     130.310  44.647  60.9810  0.00  0.00     0.000 C
ATOM      4  C4  IDS C   1     131.819  44.541  61.1470  0.00  0.00     0.000 C
ATOM      5  C5  IDS C   1     132.507  44.698  59.7940  0.00  0.00     0.000 C
ATOM      6  O5  IDS C   1     131.640  45.368  58.8780  0.00  0.00     0.000 O
ATOM      7   O  IDS C   1     129.651  44.065  62.1150  0.00  0.00     0.000 O
ATOM      9  HD  IDS C   1     128.843  43.856  61.8820  0.00  0.00     0.000 HD
ENDROOT
BRANCH 2 9
ATOM      9   O  IDS C   1     128.388  44.092  59.6150  0.00  0.00     0.000 O
ATOM     10   S  IDS C   1     127.465  42.795  59.7070  0.00  0.00     0.000 S
ATOM     11   O  IDS C   1     126.103  43.270  59.5990  0.00  0.00     0.000 OA
ATOM     12   O  IDS C   1     127.860  41.956  58.5940  0.00  0.00     0.000 OA
ATOM     13   O  IDS C   1     127.750  42.198  60.9930  0.00  0.00     0.000 OA
ENDBRANCH 2 9
BRANCH 5 14
ATOM     14   C  IDS C   1     133.801  45.487  59.8960  0.00  0.00     0.000 C
ATOM     15   O  IDS C   1     134.724  45.210  59.1700  0.00  0.00     0.000 OA
ATOM     16   O  IDS C   1     133.897  46.389  60.7110  0.00  0.00     0.000 OA
ENDBRANCH 5 14
BRANCH 1 17
ATOM     17  O4  SGN C   2     129.900  44.810  57.3400  0.00  0.00     0.000 O
BRANCH 17 21
ATOM     18  C1  SGN C   2     128.021  47.218  54.4770  0.00  0.00     0.000 C
ATOM     19  C2  SGN C   2     128.969  47.925  55.4540  0.00  0.00     0.000 C
ATOM     20  C3  SGN C   2     129.879  46.894  56.1330  0.00  0.00     0.000 C
ATOM     21  C4  SGN C   2     129.039  45.793  56.7710  0.00  0.00     0.000 C
ATOM     22  C5  SGN C   2     128.146  45.166  55.7040  0.00  0.00     0.000 C
ATOM     23  O5  SGN C   2     127.303  46.182  55.1130  0.00  0.00     0.000 O
ATOM     24   O  SGN C   2     130.695  47.534  57.0990  0.00  0.00     0.000 O
ATOM     26  HD  SGN C   2     130.509  46.987  56.4540  0.00  0.00     0.000 HD
BRANCH 19 28
ATOM     26   N  SGN C   2     129.247  49.177  54.7360  0.00  0.00     0.000 N
ATOM     28  HD  SGN C   2     128.435  48.984  54.5060  0.00  0.00     0.000 HD
ATOM     28   O  SGN C   2     130.403  51.387  54.6620  0.00  0.00     0.000 OA
ATOM     29   S  SGN C   2     129.331  50.597  55.4870  0.00  0.00     0.000 S
ATOM     30   O  SGN C   2     128.081  51.236  55.3310  0.00  0.00     0.000 OA
ATOM     31   O  SGN C   2     129.844  50.365  56.7930  0.00  0.00     0.000 OA
ENDBRANCH 19 28
BRANCH 22 32
ATOM     32   C  SGN C   2     127.228  44.098  56.2450  0.00  0.00     0.000 C
ATOM     33   S  SGN C   2     124.772  43.352  56.0080  0.00  0.00     0.000 S
ATOM     34   O  SGN C   2     124.295  44.421  56.8490  0.00  0.00     0.000 OA
ATOM     35   O  SGN C   2     123.909  43.068  54.8810  0.00  0.00     0.000 OA
ATOM     36   O  SGN C   2     125.179  42.170  56.7320  0.00  0.00     0.000 OA
ATOM     37   O  SGN C   2     126.113  43.929  55.3610  0.00  0.00     0.000 O
ENDBRANCH 22 32
BRANCH 18 38
ATOM     38  O4  IDS C   3     128.243  46.751  53.2470  0.00  0.00     0.000 O
BRANCH 38 42
ATOM     39  C1  IDS C   3     129.714  45.587  50.3120  0.00  0.00     0.000 C
ATOM     40  C2  IDS C   3     130.249  46.841  51.0230  0.00  0.00     0.000 C
ATOM     41  C3  IDS C   3     129.129  47.846  51.2890  0.00  0.00     0.000 C
ATOM     42  C4  IDS C   3     127.918  47.168  51.9160  0.00  0.00     0.000 C
ATOM     43  C5  IDS C   3     127.507  45.955  51.0730  0.00  0.00     0.000 C
ATOM     44  O5  IDS C   3     128.602  45.043  51.0020  0.00  0.00     0.000 O
ATOM     45   O  IDS C   3     128.751  48.468  50.0600  0.00  0.00     0.000 O
ATOM     47  HD  IDS C   3     128.485  48.184  49.2860  0.00  0.00     0.000 HD
BRANCH 40 47
ATOM     47   O  IDS C   3     130.845  46.482  52.3320  0.00  0.00     0.000 O
ATOM     48   S  IDS C   3     132.425  46.263  52.4540  0.00  0.00     0.000 S
ATOM     49   O  IDS C   3     132.689  44.955  51.8930  0.00  0.00     0.000 OA
ATOM     50   O  IDS C   3     132.709  46.324  53.8710  0.00  0.00     0.000 OA
ATOM     51   O  IDS C   3     133.042  47.326  51.7070  0.00  0.00     0.000 OA
ENDBRANCH 40 47
BRANCH 43 52
ATOM     52   C  IDS C   3     126.289  45.246  51.6220  0.00  0.00     0.000 C
ATOM     53   O  IDS C   3     126.400  44.141  52.1020  0.00  0.00     0.000 OA
ATOM     54   O  IDS C   3     125.213  45.786  51.5780  0.00  0.00     0.000 OA
ENDBRANCH 43 52
BRANCH 39 55
ATOM     55  O4  SGN C   4     129.644  45.464  48.9870  0.00  0.00     0.000 O
BRANCH 55 59
ATOM     56  C1  SGN C   4     131.565  46.049  45.3160  0.00  0.00     0.000 C
ATOM     57  C2  SGN C   4     132.423  46.237  46.5790  0.00  0.00     0.000 C
ATOM     58  C3  SGN C   4     131.737  45.622  47.7960  0.00  0.00     0.000 C
ATOM     59  C4  SGN C   4     130.302  46.122  47.9130  0.00  0.00     0.000 C
ATOM     60  C5  SGN C   4     129.574  45.836  46.6020  0.00  0.00     0.000 C
ATOM     61  O5  SGN C   4     130.254  46.539  45.5440  0.00  0.00     0.000 O
ATOM     62   O  SGN C   4     132.476  45.939  48.9690  0.00  0.00     0.000 O
ATOM     64  HD  SGN C   4     133.066  45.935  48.3360  0.00  0.00     0.000 HD
BRANCH 57 66
ATOM     64   N  SGN C   4     133.415  46.965  45.7720  0.00  0.00     0.000 N
ATOM     66  HD  SGN C   4     134.127  47.433  45.9280  0.00  0.00     0.000 HD
ATOM     66   S  SGN C   4     134.974  46.662  45.9340  0.00  0.00     0.000 S
ATOM     67   O  SGN C   4     135.671  47.552  45.0800  0.00  0.00     0.000 OA
ATOM     68   O  SGN C   4     135.255  46.667  47.3280  0.00  0.00     0.000 OA
ATOM     69   O  SGN C   4     135.126  45.202  45.3980  0.00  0.00     0.000 OA
ENDBRANCH 57 66
BRANCH 60 70
ATOM     70   C  SGN C   4     128.127  46.280  46.5970  0.00  0.00     0.000 C
ATOM     71   O  SGN C   4     126.762  49.536  47.8780  0.00  0.00     0.000 OA
ATOM     72   O  SGN C   4     127.189  48.919  45.5790  0.00  0.00     0.000 OA
ATOM     73   O  SGN C   4     127.969  47.493  47.3570  0.00  0.00     0.000 O
ATOM     74   S  SGN C   4     126.794  48.476  46.8970  0.00  0.00     0.000 S
ATOM     75   O  SGN C   4     125.601  47.653  46.8970  0.00  0.00     0.000 OA
ENDBRANCH 60 70
BRANCH 56 76
ATOM     76  O4  IDS C   5     131.493  45.136  44.3300  0.00  0.00     0.000 O
BRANCH 76 80
ATOM     77  C1  IDS C   5     130.681  43.304  40.7740  0.00  0.00     0.000 C
ATOM     78  C2  IDS C   5     129.512  44.096  41.3620  0.00  0.00     0.000 C
ATOM     79  C3  IDS C   5     130.024  45.068  42.4060  0.00  0.00     0.000 C
ATOM     80  C4  IDS C   5     130.599  44.293  43.5880  0.00  0.00     0.000 C
ATOM     81  C5  IDS C   5     131.338  43.051  43.0700  0.00  0.00     0.000 C
ATOM     82  O5  IDS C   5     131.753  43.243  41.7140  0.00  0.00     0.000 O
BRANCH 78 83
ATOM     83   O  IDS C   5     128.818  44.866  40.3040  0.00  0.00     0.000 O
ATOM     84   S  IDS C   5     127.312  44.506  39.9200  0.00  0.00     0.000 S
ATOM     85   O  IDS C   5     127.281  43.080  39.7350  0.00  0.00     0.000 OA
ATOM     86   O  IDS C   5     126.518  44.951  41.0410  0.00  0.00     0.000 OA
ATOM     87   O  IDS C   5     127.030  45.243  38.7120  0.00  0.00     0.000 OA
ENDBRANCH 78 83
BRANCH 81 88
ATOM     88   C  IDS C   5     132.570  42.686  43.8780  0.00  0.00     0.000 C
ATOM     89   O  IDS C   5     133.665  42.908  43.4340  0.00  0.00     0.000 OA
ATOM     90   O  IDS C   5     132.442  42.175  44.9670  0.00  0.00     0.000 OA
ENDBRANCH 81 88
ENDBRANCH 76 80
ENDBRANCH 56 76
ENDBRANCH 55 59
ENDBRANCH 39 55
ENDBRANCH 38 42
ENDBRANCH 18 38
ENDBRANCH 17 21
ENDBRANCH 1 17
TORSDOF 18
ENDMDL
MODEL 81
REMARK VINA RESULT:      -5.3     22.008     27.447
ROOT
ATOM      1  C1  IDS C   1     164.044  42.201  62.4770  0.00  0.00     0.000 C
ATOM      2  C2  IDS C   1     163.356  41.222  61.5210  0.00  0.00     0.000 C
ATOM      3  C3  IDS C   1     164.384  40.445  60.7120  0.00  0.00     0.000 C
ATOM      4  C4  IDS C   1     165.265  41.393  59.9100  0.00  0.00     0.000 C
ATOM      5  C5  IDS C   1     165.588  42.633  60.7380  0.00  0.00     0.000 C
ATOM      6  O5  IDS C   1     165.414  42.354  62.1280  0.00  0.00     0.000 O
ATOM      7   O  IDS C   1     163.716  39.532  59.8280  0.00  0.00     0.000 O
ATOM      9  HD  IDS C   1     163.017  39.223  60.2350  0.00  0.00     0.000 HD
ENDROOT
BRANCH 2 9
ATOM      9   O  IDS C   1     162.542  40.238  62.2710  0.00  0.00     0.000 O
ATOM     10   S  IDS C   1     160.989  40.092  61.9400  0.00  0.00     0.000 S
ATOM     11   O  IDS C   1     160.492  39.057  62.8190  0.00  0.00     0.000 OA
ATOM     12   O  IDS C   1     160.409  41.391  62.2140  0.00  0.00     0.000 OA
ATOM     13   O  IDS C   1     160.915  39.725  60.5430  0.00  0.00     0.000 OA
ENDBRANCH 2 9
BRANCH 5 14
ATOM     14   C  IDS C   1     167.012  43.115  60.5190  0.00  0.00     0.000 C
ATOM     15   O  IDS C   1     167.623  42.737  59.5490  0.00  0.00     0.000 OA
ATOM     16   O  IDS C   1     167.525  43.874  61.3230  0.00  0.00     0.000 OA
ENDBRANCH 5 14
BRANCH 1 17
ATOM     17  O4  SGN C   2     163.654  42.377  63.7430  0.00  0.00     0.000 O
BRANCH 17 21
ATOM     18  C1  SGN C   2     163.766  41.642  67.8620  0.00  0.00     0.000 C
ATOM     19  C2  SGN C   2     164.925  41.076  67.0320  0.00  0.00     0.000 C
ATOM     20  C3  SGN C   2     164.971  41.770  65.6650  0.00  0.00     0.000 C
ATOM     21  C4  SGN C   2     163.613  41.672  64.9800  0.00  0.00     0.000 C
ATOM     22  C5  SGN C   2     162.549  42.268  65.8980  0.00  0.00     0.000 C
ATOM     23  O5  SGN C   2     162.543  41.565  67.1610  0.00  0.00     0.000 O
ATOM     24   O  SGN C   2     165.986  41.188  64.8640  0.00  0.00     0.000 O
ATOM     26  HD  SGN C   2     165.513  41.829  65.2040  0.00  0.00     0.000 HD
BRANCH 19 28
ATOM     26   N  SGN C   2     165.945  40.855  68.0670  0.00  0.00     0.000 N
ATOM     28  HD  SGN C   2     165.197  40.725  68.4840  0.00  0.00     0.000 HD
ATOM     28   O  SGN C   2     168.229  40.063  68.6810  0.00  0.00     0.000 OA
ATOM     29   S  SGN C   2     166.875  39.544  68.0900  0.00  0.00     0.000 S
ATOM     30   O  SGN C   2     166.303  38.632  69.0040  0.00  0.00     0.000 OA
ATOM     31   O  SGN C   2     167.092  39.145  66.7420  0.00  0.00     0.000 OA
ENDBRANCH 19 28
BRANCH 22 32
ATOM     32   C  SGN C   2     161.152  42.170  65.3370  0.00  0.00     0.000 C
ATOM     33   S  SGN C   2     159.061  43.653  65.0680  0.00  0.00     0.000 S
ATOM     34   O  SGN C   2     158.694  43.505  66.4540  0.00  0.00     0.000 OA
ATOM     35   O  SGN C   2     158.829  44.983  64.5440  0.00  0.00     0.000 OA
ATOM     36   O  SGN C   2     158.564  42.603  64.2110  0.00  0.00     0.000 OA
ATOM     37   O  SGN C   2     160.649  43.482  65.0620  0.00  0.00     0.000 O
ENDBRANCH 22 32
BRANCH 18 38
ATOM     38  O4  IDS C   3     163.674  42.783  68.5490  0.00  0.00     0.000 O
BRANCH 38 42
ATOM     39  C1  IDS C   3     160.797  44.091  70.0110  0.00  0.00     0.000 C
ATOM     40  C2  IDS C   3     161.897  45.015  69.4640  0.00  0.00     0.000 C
ATOM     41  C3  IDS C   3     163.266  44.640  70.0320  0.00  0.00     0.000 C
ATOM     42  C4  IDS C   3     163.515  43.142  69.9260  0.00  0.00     0.000 C
ATOM     43  C5  IDS C   3     162.335  42.375  70.5330  0.00  0.00     0.000 C
ATOM     44  O5  IDS C   3     161.141  42.727  69.8370  0.00  0.00     0.000 O
ATOM     45   O  IDS C   3     163.337  45.046  71.4000  0.00  0.00     0.000 O
ATOM     47  HD  IDS C   3     162.861  44.897  72.1080  0.00  0.00     0.000 HD
BRANCH 40 47
ATOM     47   O  IDS C   3     161.983  44.905  67.9880  0.00  0.00     0.000 O
ATOM     48   S  IDS C   3     161.863  46.219  67.0840  0.00  0.00     0.000 S
ATOM     49   O  IDS C   3     160.455  46.551  67.0510  0.00  0.00     0.000 OA
ATOM     50   O  IDS C   3     162.371  45.835  65.7860  0.00  0.00     0.000 OA
ATOM     51   O  IDS C   3     162.659  47.229  67.7280  0.00  0.00     0.000 OA
ENDBRANCH 40 47
BRANCH 43 52
ATOM     52   C  IDS C   3     162.526  40.875  70.4880  0.00  0.00     0.000 C
ATOM     53   O  IDS C   3     163.545  40.384  70.9170  0.00  0.00     0.000 OA
ATOM     54   O  IDS C   3     161.660  40.176  70.0260  0.00  0.00     0.000 OA
ENDBRANCH 43 52
BRANCH 39 55
ATOM     55  O4  SGN C   4     160.111  44.340  71.1270  0.00  0.00     0.000 O
BRANCH 55 59
ATOM     56  C1  SGN C   4     157.242  41.612  72.4810  0.00  0.00     0.000 C
ATOM     57  C2  SGN C   4     156.920  42.357  71.1740  0.00  0.00     0.000 C
ATOM     58  C3  SGN C   4     158.176  43.000  70.5930  0.00  0.00     0.000 C
ATOM     59  C4  SGN C   4     158.891  43.834  71.6500  0.00  0.00     0.000 C
ATOM     60  C5  SGN C   4     159.171  42.952  72.8650  0.00  0.00     0.000 C
ATOM     61  O5  SGN C   4     157.911  42.480  73.3810  0.00  0.00     0.000 O
ATOM     62   O  SGN C   4     157.826  43.802  69.4730  0.00  0.00     0.000 O
ATOM     64  HD  SGN C   4     157.218  43.186  69.4970  0.00  0.00     0.000 HD
BRANCH 57 66
ATOM     64   N  SGN C   4     155.544  42.612  70.7180  0.00  0.00     0.000 N
ATOM     66  HD  SGN C   4     155.095  42.492  69.9870  0.00  0.00     0.000 HD
ATOM     66   S  SGN C   4     154.666  41.435  70.0920  0.00  0.00     0.000 S
ATOM     67   O  SGN C   4     153.425  41.995  69.6960  0.00  0.00     0.000 OA
ATOM     68   O  SGN C   4     155.477  40.780  69.1250  0.00  0.00     0.000 OA
ATOM     69   O  SGN C   4     154.436  40.464  71.2940  0.00  0.00     0.000 OA
ENDBRANCH 57 66
BRANCH 60 70
ATOM     70   C  SGN C   4     159.891  43.668  73.9870  0.00  0.00     0.000 C
ATOM     71   O  SGN C   4     163.591  44.244  74.2870  0.00  0.00     0.000 OA
ATOM     72   O  SGN C   4     161.906  45.826  73.5760  0.00  0.00     0.000 OA
ATOM     73   O  SGN C   4     161.317  43.507  73.8560  0.00  0.00     0.000 O
ATOM     74   S  SGN C   4     162.225  44.696  74.4190  0.00  0.00     0.000 S
ATOM     75   O  SGN C   4     161.802  44.866  75.7950  0.00  0.00     0.000 OA
ENDBRANCH 60 70
BRANCH 56 76
ATOM     76  O4  IDS C   5     157.571  40.350  72.8120  0.00  0.00     0.000 O
BRANCH 76 80
ATOM     77  C1  IDS C   5     157.961  36.381  73.6790  0.00  0.00     0.000 C
ATOM     78  C2  IDS C   5     156.555  36.941  73.8920  0.00  0.00     0.000 C
ATOM     79  C3  IDS C   5     156.406  38.253  73.1470  0.00  0.00     0.000 C
ATOM     80  C4  IDS C   5     157.336  39.297  73.7590  0.00  0.00     0.000 C
ATOM     81  C5  IDS C   5     158.660  38.628  74.1560  0.00  0.00     0.000 C
ATOM     82  O5  IDS C   5     158.873  37.440  73.3880  0.00  0.00     0.000 O
BRANCH 78 83
ATOM     83   O  IDS C   5     155.532  35.996  73.3860  0.00  0.00     0.000 O
ATOM     84   S  IDS C   5     154.663  35.143  74.4160  0.00  0.00     0.000 S
ATOM     85   O  IDS C   5     155.600  34.567  75.3430  0.00  0.00     0.000 OA
ATOM     86   O  IDS C   5     153.767  36.093  75.0320  0.00  0.00     0.000 OA
ATOM     87   O  IDS C   5     153.969  34.160  73.6210  0.00  0.00     0.000 OA
ENDBRANCH 78 83
BRANCH 81 88
ATOM     88   C  IDS C   5     159.878  39.515  73.9730  0.00  0.00     0.000 C
ATOM     89   O  IDS C   5     160.521  39.448  72.9600  0.00  0.00     0.000 OA
ATOM     90   O  IDS C   5     160.193  40.287  74.8500  0.00  0.00     0.000 OA
ENDBRANCH 81 88
ENDBRANCH 76 80
ENDBRANCH 56 76
ENDBRANCH 55 59
ENDBRANCH 39 55
ENDBRANCH 38 42
ENDBRANCH 18 38
ENDBRANCH 17 21
ENDBRANCH 1 17
TORSDOF 18
ENDMDL
MODEL 82
REMARK VINA RESULT:      -5.3     29.454     34.866
ROOT
ATOM      1  C1  IDS C   1     153.205  48.560  59.8160  0.00  0.00     0.000 C
ATOM      2  C2  IDS C   1     151.715  48.229  59.9370  0.00  0.00     0.000 C
ATOM      3  C3  IDS C   1     150.863  49.368  59.3960  0.00  0.00     0.000 C
ATOM      4  C4  IDS C   1     151.154  50.660  60.1470  0.00  0.00     0.000 C
ATOM      5  C5  IDS C   1     152.647  50.772  60.4380  0.00  0.00     0.000 C
ATOM      6  O5  IDS C   1     153.385  49.943  59.5400  0.00  0.00     0.000 O
ATOM      7   O  IDS C   1     149.473  49.033  59.5160  0.00  0.00     0.000 O
ATOM      9  HD  IDS C   1     149.384  48.185  59.3660  0.00  0.00     0.000 HD
ENDROOT
BRANCH 2 9
ATOM      9   O  IDS C   1     151.380  47.014  59.1620  0.00  0.00     0.000 O
ATOM     10   S  IDS C   1     150.727  45.764  59.9070  0.00  0.00     0.000 S
ATOM     11   O  IDS C   1     150.512  44.762  58.8860  0.00  0.00     0.000 OA
ATOM     12   O  IDS C   1     151.696  45.355  60.9030  0.00  0.00     0.000 OA
ATOM     13   O  IDS C   1     149.494  46.250  60.4850  0.00  0.00     0.000 OA
ENDBRANCH 2 9
BRANCH 5 14
ATOM     14   C  IDS C   1     153.152  52.199  60.3010  0.00  0.00     0.000 C
ATOM     15   O  IDS C   1     152.540  53.098  60.8240  0.00  0.00     0.000 OA
ATOM     16   O  IDS C   1     154.167  52.423  59.6640  0.00  0.00     0.000 OA
ENDBRANCH 5 14
BRANCH 1 17
ATOM     17  O4  SGN C   2     154.116  47.674  59.4040  0.00  0.00     0.000 O
BRANCH 17 21
ATOM     18  C1  SGN C   2     157.304  46.483  56.9650  0.00  0.00     0.000 C
ATOM     19  C2  SGN C   2     156.833  47.936  56.8200  0.00  0.00     0.000 C
ATOM     20  C3  SGN C   2     155.986  48.331  58.0350  0.00  0.00     0.000 C
ATOM     21  C4  SGN C   2     154.853  47.330  58.2340  0.00  0.00     0.000 C
ATOM     22  C5  SGN C   2     155.445  45.930  58.3690  0.00  0.00     0.000 C
ATOM     23  O5  SGN C   2     156.217  45.609  57.1890  0.00  0.00     0.000 O
ATOM     24   O  SGN C   2     155.478  49.644  57.8630  0.00  0.00     0.000 O
ATOM     26  HD  SGN C   2     155.833  48.980  58.2910  0.00  0.00     0.000 HD
BRANCH 19 28
ATOM     26   N  SGN C   2     157.999  48.557  56.1760  0.00  0.00     0.000 N
ATOM     28  HD  SGN C   2     158.000  47.748  55.8670  0.00  0.00     0.000 HD
ATOM     28   O  SGN C   2     159.079  50.591  55.2170  0.00  0.00     0.000 OA
ATOM     29   S  SGN C   2     157.852  49.643  54.9980  0.00  0.00     0.000 S
ATOM     30   O  SGN C   2     158.019  48.964  53.7710  0.00  0.00     0.000 OA
ATOM     31   O  SGN C   2     156.660  50.380  55.2370  0.00  0.00     0.000 OA
ENDBRANCH 19 28
BRANCH 22 32
ATOM     32   C  SGN C   2     154.400  44.850  58.5120  0.00  0.00     0.000 C
ATOM     33   S  SGN C   2     153.701  42.662  57.3440  0.00  0.00     0.000 S
ATOM     34   O  SGN C   2     153.063  43.365  56.2590  0.00  0.00     0.000 OA
ATOM     35   O  SGN C   2     154.410  41.470  56.9270  0.00  0.00     0.000 OA
ATOM     36   O  SGN C   2     152.849  42.453  58.4910  0.00  0.00     0.000 OA
ATOM     37   O  SGN C   2     154.840  43.662  57.8440  0.00  0.00     0.000 O
ENDBRANCH 22 32
BRANCH 18 38
ATOM     38  O4  IDS C   3     158.292  45.967  57.6980  0.00  0.00     0.000 O
BRANCH 38 42
ATOM     39  C1  IDS C   3     161.223  44.968  59.2910  0.00  0.00     0.000 C
ATOM     40  C2  IDS C   3     160.764  44.299  57.9860  0.00  0.00     0.000 C
ATOM     41  C3  IDS C   3     159.317  43.819  58.0900  0.00  0.00     0.000 C
ATOM     42  C4  IDS C   3     158.415  44.908  58.6540  0.00  0.00     0.000 C
ATOM     43  C5  IDS C   3     159.009  45.449  59.9600  0.00  0.00     0.000 C
ATOM     44  O5  IDS C   3     160.310  45.972  59.7000  0.00  0.00     0.000 O
ATOM     45   O  IDS C   3     159.261  42.664  58.9280  0.00  0.00     0.000 O
ATOM     47  HD  IDS C   3     159.513  42.481  59.7360  0.00  0.00     0.000 HD
BRANCH 40 47
ATOM     47   O  IDS C   3     160.835  45.257  56.8570  0.00  0.00     0.000 O
ATOM     48   S  IDS C   3     161.978  45.099  55.7500  0.00  0.00     0.000 S
ATOM     49   O  IDS C   3     163.190  45.609  56.3540  0.00  0.00     0.000 OA
ATOM     50   O  IDS C   3     161.538  45.903  54.6310  0.00  0.00     0.000 OA
ATOM     51   O  IDS C   3     162.056  43.696  55.4430  0.00  0.00     0.000 OA
ENDBRANCH 40 47
BRANCH 43 52
ATOM     52   C  IDS C   3     158.149  46.519  60.5960  0.00  0.00     0.000 C
ATOM     53   O  IDS C   3     157.190  46.205  61.2620  0.00  0.00     0.000 OA
ATOM     54   O  IDS C   3     158.425  47.681  60.4350  0.00  0.00     0.000 OA
ENDBRANCH 43 52
BRANCH 39 55
ATOM     55  O4  SGN C   4     161.790  44.306  60.3000  0.00  0.00     0.000 O
BRANCH 55 59
ATOM     56  C1  SGN C   4     164.632  41.491  61.5280  0.00  0.00     0.000 C
ATOM     57  C2  SGN C   4     164.778  42.036  60.0970  0.00  0.00     0.000 C
ATOM     58  C3  SGN C   4     163.953  43.308  59.9150  0.00  0.00     0.000 C
ATOM     59  C4  SGN C   4     162.517  43.088  60.3760  0.00  0.00     0.000 C
ATOM     60  C5  SGN C   4     162.537  42.582  61.8170  0.00  0.00     0.000 C
ATOM     61  O5  SGN C   4     163.259  41.335  61.8500  0.00  0.00     0.000 O
ATOM     62   O  SGN C   4     163.986  43.706  58.5510  0.00  0.00     0.000 O
ATOM     64  HD  SGN C   4     164.733  43.284  58.6720  0.00  0.00     0.000 HD
BRANCH 57 66
ATOM     64   N  SGN C   4     165.649  40.896  59.7670  0.00  0.00     0.000 N
ATOM     66  HD  SGN C   4     166.006  40.570  59.0490  0.00  0.00     0.000 HD
ATOM     66   S  SGN C   4     167.006  41.120  58.9590  0.00  0.00     0.000 S
ATOM     67   O  SGN C   4     167.587  39.845  58.7430  0.00  0.00     0.000 OA
ATOM     68   O  SGN C   4     166.695  41.945  57.8430  0.00  0.00     0.000 OA
ATOM     69   O  SGN C   4     167.898  41.934  59.9500  0.00  0.00     0.000 OA
ENDBRANCH 57 66
BRANCH 60 70
ATOM     70   C  SGN C   4     161.161  42.334  62.3960  0.00  0.00     0.000 C
ATOM     71   O  SGN C   4     158.992  39.317  61.8450  0.00  0.00     0.000 OA
ATOM     72   O  SGN C   4     160.354  39.821  63.7790  0.00  0.00     0.000 OA
ATOM     73   O  SGN C   4     160.562  41.170  61.7940  0.00  0.00     0.000 O
ATOM     74   S  SGN C   4     159.541  40.341  62.7030  0.00  0.00     0.000 S
ATOM     75   O  SGN C   4     158.560  41.315  63.1400  0.00  0.00     0.000 OA
ENDBRANCH 60 70
BRANCH 56 76
ATOM     76  O4  IDS C   5     165.308  41.630  62.6830  0.00  0.00     0.000 O
BRANCH 76 80
ATOM     77  C1  IDS C   5     165.983  41.004  66.6590  0.00  0.00     0.000 C
ATOM     78  C2  IDS C   5     164.590  41.540  66.3290  0.00  0.00     0.000 C
ATOM     79  C3  IDS C   5     164.290  41.322  64.8590  0.00  0.00     0.000 C
ATOM     80  C4  IDS C   5     165.240  42.165  64.0140  0.00  0.00     0.000 C
ATOM     81  C5  IDS C   5     166.632  42.168  64.6620  0.00  0.00     0.000 C
ATOM     82  O5  IDS C   5     166.803  41.014  65.4910  0.00  0.00     0.000 O
BRANCH 78 83
ATOM     83   O  IDS C   5     163.557  40.839  67.1270  0.00  0.00     0.000 O
ATOM     84   S  IDS C   5     162.677  41.657  68.1770  0.00  0.00     0.000 S
ATOM     85   O  IDS C   5     163.607  42.431  68.9550  0.00  0.00     0.000 OA
ATOM     86   O  IDS C   5     161.791  42.469  67.3770  0.00  0.00     0.000 OA
ATOM     87   O  IDS C   5     161.973  40.665  68.9530  0.00  0.00     0.000 OA
ENDBRANCH 78 83
BRANCH 81 88
ATOM     88   C  IDS C   5     167.776  42.188  63.6640  0.00  0.00     0.000 C
ATOM     89   O  IDS C   5     168.068  43.213  63.1100  0.00  0.00     0.000 OA
ATOM     90   O  IDS C   5     168.387  41.170  63.4340  0.00  0.00     0.000 OA
ENDBRANCH 81 88
ENDBRANCH 76 80
ENDBRANCH 56 76
ENDBRANCH 55 59
ENDBRANCH 39 55
ENDBRANCH 38 42
ENDBRANCH 18 38
ENDBRANCH 17 21
ENDBRANCH 1 17
TORSDOF 18
ENDMDL
MODEL 83
REMARK VINA RESULT:      -5.2     12.242     16.052
ROOT
ATOM      1  C1  IDS C   1     181.242  26.687  70.9070  0.00  0.00     0.000 C
ATOM      2  C2  IDS C   1     180.389  27.719  70.1650  0.00  0.00     0.000 C
ATOM      3  C3  IDS C   1     180.732  27.738  68.6820  0.00  0.00     0.000 C
ATOM      4  C4  IDS C   1     182.205  28.062  68.4750  0.00  0.00     0.000 C
ATOM      5  C5  IDS C   1     183.048  27.366  69.5400  0.00  0.00     0.000 C
ATOM      6  O5  IDS C   1     182.328  26.264  70.0930  0.00  0.00     0.000 O
ATOM      7   O  IDS C   1     179.918  28.708  68.0080  0.00  0.00     0.000 O
ATOM      9  HD  IDS C   1     179.131  28.703  68.3710  0.00  0.00     0.000 HD
ENDROOT
BRANCH 2 9
ATOM      9   O  IDS C   1     178.949  27.398  70.2860  0.00  0.00     0.000 O
ATOM     10   S  IDS C   1     177.958  28.472  70.9260  0.00  0.00     0.000 S
ATOM     11   O  IDS C   1     176.644  27.870  70.8880  0.00  0.00     0.000 OA
ATOM     12   O  IDS C   1     178.440  28.690  72.2750  0.00  0.00     0.000 OA
ATOM     13   O  IDS C   1     178.060  29.649  70.0930  0.00  0.00     0.000 OA
ENDBRANCH 2 9
BRANCH 5 14
ATOM     14   C  IDS C   1     184.364  26.851  68.9820  0.00  0.00     0.000 C
ATOM     15   O  IDS C   1     185.387  27.059  69.5870  0.00  0.00     0.000 OA
ATOM     16   O  IDS C   1     184.376  26.235  67.9300  0.00  0.00     0.000 OA
ENDBRANCH 5 14
BRANCH 1 17
ATOM     17  O4  SGN C   2     180.745  25.865  71.8360  0.00  0.00     0.000 O
BRANCH 17 21
ATOM     18  C1  SGN C   2     179.820  22.103  73.4230  0.00  0.00     0.000 C
ATOM     19  C2  SGN C   2     180.729  22.123  72.1880  0.00  0.00     0.000 C
ATOM     20  C3  SGN C   2     181.309  23.529  71.9920  0.00  0.00     0.000 C
ATOM     21  C4  SGN C   2     180.186  24.559  71.9510  0.00  0.00     0.000 C
ATOM     22  C5  SGN C   2     179.359  24.445  73.2280  0.00  0.00     0.000 C
ATOM     23  O5  SGN C   2     178.827  23.106  73.3480  0.00  0.00     0.000 O
ATOM     24   O  SGN C   2     182.080  23.571  70.8030  0.00  0.00     0.000 O
ATOM     26  HD  SGN C   2     181.891  23.735  71.6320  0.00  0.00     0.000 HD
BRANCH 19 28
ATOM     26   N  SGN C   2     181.394  20.816  72.2900  0.00  0.00     0.000 N
ATOM     28  HD  SGN C   2     180.641  20.697  72.7020  0.00  0.00     0.000 HD
ATOM     28   O  SGN C   2     182.909  19.106  71.2890  0.00  0.00     0.000 OA
ATOM     29   S  SGN C   2     181.544  19.829  71.0300  0.00  0.00     0.000 S
ATOM     30   O  SGN C   2     180.505  18.875  71.1100  0.00  0.00     0.000 OA
ATOM     31   O  SGN C   2     181.671  20.633  69.8640  0.00  0.00     0.000 OA
ENDBRANCH 19 28
BRANCH 22 32
ATOM     32   C  SGN C   2     178.180  25.387  73.2640  0.00  0.00     0.000 C
ATOM     33   S  SGN C   2     176.206  25.963  74.8170  0.00  0.00     0.000 S
ATOM     34   O  SGN C   2     175.467  24.788  74.4270  0.00  0.00     0.000 OA
ATOM     35   O  SGN C   2     176.090  26.281  76.2250  0.00  0.00     0.000 OA
ATOM     36   O  SGN C   2     176.003  27.101  73.9520  0.00  0.00     0.000 OA
ATOM     37   O  SGN C   2     177.735  25.550  74.6160  0.00  0.00     0.000 O
ENDBRANCH 22 32
BRANCH 18 38
ATOM     38  O4  IDS C   3     180.129  22.049  74.7200  0.00  0.00     0.000 O
BRANCH 38 42
ATOM     39  C1  IDS C   3     180.842  22.553  78.0910  0.00  0.00     0.000 C
ATOM     40  C2  IDS C   3     181.779  23.085  76.9950  0.00  0.00     0.000 C
ATOM     41  C3  IDS C   3     182.164  21.980  76.0120  0.00  0.00     0.000 C
ATOM     42  C4  IDS C   3     180.938  21.206  75.5470  0.00  0.00     0.000 C
ATOM     43  C5  IDS C   3     180.131  20.733  76.7620  0.00  0.00     0.000 C
ATOM     44  O5  IDS C   3     179.735  21.868  77.5290  0.00  0.00     0.000 O
ATOM     45   O  IDS C   3     183.088  21.089  76.6390  0.00  0.00     0.000 O
ATOM     47  HD  IDS C   3     183.087  20.618  77.3660  0.00  0.00     0.000 HD
BRANCH 40 47
ATOM     47   O  IDS C   3     181.115  24.160  76.2200  0.00  0.00     0.000 O
ATOM     48   S  IDS C   3     181.202  25.675  76.7240  0.00  0.00     0.000 S
ATOM     49   O  IDS C   3     180.261  25.784  77.8190  0.00  0.00     0.000 OA
ATOM     50   O  IDS C   3     180.818  26.478  75.5840  0.00  0.00     0.000 OA
ATOM     51   O  IDS C   3     182.563  25.890  77.1350  0.00  0.00     0.000 OA
ENDBRANCH 40 47
BRANCH 43 52
ATOM     52   C  IDS C   3     178.909  19.929  76.3760  0.00  0.00     0.000 C
ATOM     53   O  IDS C   3     177.810  20.300  76.7200  0.00  0.00     0.000 OA
ATOM     54   O  IDS C   3     179.037  18.923  75.7270  0.00  0.00     0.000 OA
ENDBRANCH 43 52
BRANCH 39 55
ATOM     55  O4  SGN C   4     181.271  22.037  79.2430  0.00  0.00     0.000 O
BRANCH 55 59
ATOM     56  C1  SGN C   4     178.809  22.341  82.6120  0.00  0.00     0.000 C
ATOM     57  C2  SGN C   4     179.511  23.632  82.1540  0.00  0.00     0.000 C
ATOM     58  C3  SGN C   4     180.040  23.484  80.7300  0.00  0.00     0.000 C
ATOM     59  C4  SGN C   4     180.874  22.216  80.5950  0.00  0.00     0.000 C
ATOM     60  C5  SGN C   4     180.034  21.025  81.0530  0.00  0.00     0.000 C
ATOM     61  O5  SGN C   4     179.672  21.230  82.4330  0.00  0.00     0.000 O
ATOM     62   O  SGN C   4     180.809  24.629  80.3880  0.00  0.00     0.000 O
ATOM     64  HD  SGN C   4     180.236  24.919  80.9690  0.00  0.00     0.000 HD
BRANCH 57 66
ATOM     64   N  SGN C   4     178.802  24.146  83.3380  0.00  0.00     0.000 N
ATOM     66  HD  SGN C   4     178.986  24.683  83.9920  0.00  0.00     0.000 HD
ATOM     66   S  SGN C   4     178.690  25.716  83.5970  0.00  0.00     0.000 S
ATOM     67   O  SGN C   4     178.015  25.896  84.8310  0.00  0.00     0.000 OA
ATOM     68   O  SGN C   4     179.994  26.260  83.4290  0.00  0.00     0.000 OA
ATOM     69   O  SGN C   4     177.783  26.221  82.4300  0.00  0.00     0.000 OA
ENDBRANCH 57 66
BRANCH 60 70
ATOM     70   C  SGN C   4     180.753  19.697  80.9570  0.00  0.00     0.000 C
ATOM     71   O  SGN C   4     180.621  17.262  78.1000  0.00  0.00     0.000 OA
ATOM     72   O  SGN C   4     182.381  18.840  78.6120  0.00  0.00     0.000 OA
ATOM     73   O  SGN C   4     180.294  18.956  79.8100  0.00  0.00     0.000 O
ATOM     74   S  SGN C   4     181.350  17.968  79.1280  0.00  0.00     0.000 S
ATOM     75   O  SGN C   4     181.805  17.112  80.2060  0.00  0.00     0.000 OA
ENDBRANCH 60 70
BRANCH 56 76
ATOM     76  O4  IDS C   5     177.545  21.880  82.6050  0.00  0.00     0.000 O
BRANCH 76 80
ATOM     77  C1  IDS C   5     174.637  19.994  80.4490  0.00  0.00     0.000 C
ATOM     78  C2  IDS C   5     175.094  21.330  79.8650  0.00  0.00     0.000 C
ATOM     79  C3  IDS C   5     176.433  21.720  80.4590  0.00  0.00     0.000 C
ATOM     80  C4  IDS C   5     176.270  21.987  81.9530  0.00  0.00     0.000 C
ATOM     81  C5  IDS C   5     175.278  20.976  82.5450  0.00  0.00     0.000 C
ATOM     82  O5  IDS C   5     175.220  19.796  81.7370  0.00  0.00     0.000 O
BRANCH 78 83
ATOM     83   O  IDS C   5     175.245  21.234  78.3940  0.00  0.00     0.000 O
ATOM     84   S  IDS C   5     174.866  22.482  77.4750  0.00  0.00     0.000 S
ATOM     85   O  IDS C   5     173.567  22.917  77.9130  0.00  0.00     0.000 OA
ATOM     86   O  IDS C   5     175.903  23.458  77.7160  0.00  0.00     0.000 OA
ATOM     87   O  IDS C   5     174.874  21.986  76.1200  0.00  0.00     0.000 OA
ENDBRANCH 78 83
BRANCH 81 88
ATOM     88   C  IDS C   5     175.611  20.544  83.9610  0.00  0.00     0.000 C
ATOM     89   O  IDS C   5     175.361  21.273  84.8840  0.00  0.00     0.000 OA
ATOM     90   O  IDS C   5     176.125  19.466  84.1540  0.00  0.00     0.000 OA
ENDBRANCH 81 88
ENDBRANCH 76 80
ENDBRANCH 56 76
ENDBRANCH 55 59
ENDBRANCH 39 55
ENDBRANCH 38 42
ENDBRANCH 18 38
ENDBRANCH 17 21
ENDBRANCH 1 17
TORSDOF 18
ENDMDL
MODEL 84
REMARK VINA RESULT:      -5.2     46.847     52.026
ROOT
ATOM      1  C1  IDS C   1     125.241  45.884  51.9500  0.00  0.00     0.000 C
ATOM      2  C2  IDS C   1     125.182  46.842  50.7570  0.00  0.00     0.000 C
ATOM      3  C3  IDS C   1     123.746  47.248  50.4600  0.00  0.00     0.000 C
ATOM      4  C4  IDS C   1     122.892  46.023  50.1630  0.00  0.00     0.000 C
ATOM      5  C5  IDS C   1     123.284  44.875  51.0880  0.00  0.00     0.000 C
ATOM      6  O5  IDS C   1     123.945  45.383  52.2480  0.00  0.00     0.000 O
ATOM      7   O  IDS C   1     123.717  48.148  49.3440  0.00  0.00     0.000 O
ATOM      9  HD  IDS C   1     124.414  48.659  49.3880  0.00  0.00     0.000 HD
ENDROOT
BRANCH 2 9
ATOM      9   O  IDS C   1     125.946  48.079  51.0360  0.00  0.00     0.000 O
ATOM     10   S  IDS C   1     127.083  48.544  50.0190  0.00  0.00     0.000 S
ATOM     11   O  IDS C   1     127.621  49.772  50.5610  0.00  0.00     0.000 OA
ATOM     12   O  IDS C   1     128.051  47.466  49.9970  0.00  0.00     0.000 OA
ATOM     13   O  IDS C   1     126.422  48.734  48.7480  0.00  0.00     0.000 OA
ENDBRANCH 2 9
BRANCH 5 14
ATOM     14   C  IDS C   1     122.080  44.064  51.5370  0.00  0.00     0.000 C
ATOM     15   O  IDS C   1     122.226  42.909  51.8520  0.00  0.00     0.000 OA
ATOM     16   O  IDS C   1     120.978  44.586  51.5720  0.00  0.00     0.000 OA
ENDBRANCH 5 14
BRANCH 1 17
ATOM     17  O4  SGN C   2     126.157  45.982  52.9180  0.00  0.00     0.000 O
BRANCH 17 21
ATOM     18  C1  SGN C   2     127.586  47.346  56.6090  0.00  0.00     0.000 C
ATOM     19  C2  SGN C   2     126.105  47.607  56.3060  0.00  0.00     0.000 C
ATOM     20  C3  SGN C   2     125.642  46.704  55.1570  0.00  0.00     0.000 C
ATOM     21  C4  SGN C   2     126.560  46.876  53.9520  0.00  0.00     0.000 C
ATOM     22  C5  SGN C   2     127.997  46.586  54.3760  0.00  0.00     0.000 C
ATOM     23  O5  SGN C   2     128.380  47.478  55.4480  0.00  0.00     0.000 O
ATOM     24   O  SGN C   2     124.299  47.004  54.8180  0.00  0.00     0.000 O
ATOM     26  HD  SGN C   2     124.982  46.497  54.9780  0.00  0.00     0.000 HD
BRANCH 19 28
ATOM     26   N  SGN C   2     125.578  47.894  57.6480  0.00  0.00     0.000 N
ATOM     28  HD  SGN C   2     126.369  48.248  57.6570  0.00  0.00     0.000 HD
ATOM     28   O  SGN C   2     123.625  48.407  59.1120  0.00  0.00     0.000 OA
ATOM     29   S  SGN C   2     124.432  48.992  57.9040  0.00  0.00     0.000 S
ATOM     30   O  SGN C   2     125.068  50.183  58.3200  0.00  0.00     0.000 OA
ATOM     31   O  SGN C   2     123.587  49.009  56.7600  0.00  0.00     0.000 OA
ENDBRANCH 19 28
BRANCH 22 32
ATOM     32   C  SGN C   2     129.000  46.785  53.2660  0.00  0.00     0.000 C
ATOM     33   S  SGN C   2     131.525  46.469  52.8540  0.00  0.00     0.000 S
ATOM     34   O  SGN C   2     131.864  47.657  53.5980  0.00  0.00     0.000 OA
ATOM     35   O  SGN C   2     132.450  45.374  53.0560  0.00  0.00     0.000 OA
ATOM     36   O  SGN C   2     131.215  46.712  51.4650  0.00  0.00     0.000 OA
ATOM     37   O  SGN C   2     130.155  45.974  53.5090  0.00  0.00     0.000 O
ENDBRANCH 22 32
BRANCH 18 38
ATOM     38  O4  IDS C   3     128.165  46.353  57.2870  0.00  0.00     0.000 O
BRANCH 38 42
ATOM     39  C1  IDS C   3     129.769  44.254  59.5550  0.00  0.00     0.000 C
ATOM     40  C2  IDS C   3     130.304  44.431  58.1260  0.00  0.00     0.000 C
ATOM     41  C3  IDS C   3     129.207  44.188  57.0900  0.00  0.00     0.000 C
ATOM     42  C4  IDS C   3     127.936  44.949  57.4450  0.00  0.00     0.000 C
ATOM     43  C5  IDS C   3     127.534  44.643  58.8930  0.00  0.00     0.000 C
ATOM     44  O5  IDS C   3     128.598  45.025  59.7630  0.00  0.00     0.000 O
ATOM     45   O  IDS C   3     128.926  42.788  57.0190  0.00  0.00     0.000 O
ATOM     47  HD  IDS C   3     128.698  42.180  57.5910  0.00  0.00     0.000 HD
BRANCH 40 47
ATOM     47   O  IDS C   3     130.806  45.811  57.9250  0.00  0.00     0.000 O
ATOM     48   S  IDS C   3     132.274  46.047  57.3350  0.00  0.00     0.000 S
ATOM     49   O  IDS C   3     133.187  45.795  58.4300  0.00  0.00     0.000 OA
ATOM     50   O  IDS C   3     132.294  47.427  56.9040  0.00  0.00     0.000 OA
ATOM     51   O  IDS C   3     132.431  45.113  56.2520  0.00  0.00     0.000 OA
ENDBRANCH 40 47
BRANCH 43 52
ATOM     52   C  IDS C   3     126.261  45.346  59.3080  0.00  0.00     0.000 C
ATOM     53   O  IDS C   3     126.294  46.198  60.1650  0.00  0.00     0.000 OA
ATOM     54   O  IDS C   3     125.218  45.052  58.7810  0.00  0.00     0.000 OA
ENDBRANCH 43 52
BRANCH 39 55
ATOM     55  O4  SGN C   4     129.775  43.091  60.2070  0.00  0.00     0.000 O
BRANCH 55 59
ATOM     56  C1  SGN C   4     131.765  42.892  63.8820  0.00  0.00     0.000 C
ATOM     57  C2  SGN C   4     132.648  42.924  62.6230  0.00  0.00     0.000 C
ATOM     58  C3  SGN C   4     131.846  43.388  61.4100  0.00  0.00     0.000 C
ATOM     59  C4  SGN C   4     130.560  42.580  61.2750  0.00  0.00     0.000 C
ATOM     60  C5  SGN C   4     129.782  42.673  62.5850  0.00  0.00     0.000 C
ATOM     61  O5  SGN C   4     130.599  42.123  63.6370  0.00  0.00     0.000 O
ATOM     62   O  SGN C   4     132.641  43.266  60.2380  0.00  0.00     0.000 O
ATOM     64  HD  SGN C   4     133.213  43.393  60.8760  0.00  0.00     0.000 HD
BRANCH 57 66
ATOM     64   N  SGN C   4     134.023  42.427  62.4550  0.00  0.00     0.000 N
ATOM     66  HD  SGN C   4     134.794  42.772  62.2630  0.00  0.00     0.000 HD
ATOM     66   S  SGN C   4     135.226  43.074  63.2800  0.00  0.00     0.000 S
ATOM     67   O  SGN C   4     136.420  42.434  62.8620  0.00  0.00     0.000 OA
ATOM     68   O  SGN C   4     135.108  44.485  63.1510  0.00  0.00     0.000 OA
ATOM     69   O  SGN C   4     134.917  42.679  64.7590  0.00  0.00     0.000 OA
ENDBRANCH 57 66
BRANCH 60 70
ATOM     70   C  SGN C   4     128.472  41.914  62.5730  0.00  0.00     0.000 C
ATOM     71   O  SGN C   4     125.087  43.269  61.6730  0.00  0.00     0.000 OA
ATOM     72   O  SGN C   4     126.551  41.925  60.2950  0.00  0.00     0.000 OA
ATOM     73   O  SGN C   4     127.367  42.817  62.3790  0.00  0.00     0.000 O
ATOM     74   S  SGN C   4     126.085  42.225  61.6300  0.00  0.00     0.000 S
ATOM     75   O  SGN C   4     125.721  41.047  62.3920  0.00  0.00     0.000 OA
ENDBRANCH 60 70
BRANCH 56 76
ATOM     76  O4  IDS C   5     131.485  43.748  64.8820  0.00  0.00     0.000 O
BRANCH 76 80
ATOM     77  C1  IDS C   5     128.383  46.361  64.4310  0.00  0.00     0.000 C
ATOM     78  C2  IDS C   5     129.760  46.955  64.1350  0.00  0.00     0.000 C
ATOM     79  C3  IDS C   5     130.760  45.840  63.9010  0.00  0.00     0.000 C
ATOM     80  C4  IDS C   5     130.950  45.045  65.1890  0.00  0.00     0.000 C
ATOM     81  C5  IDS C   5     129.600  44.911  65.9070  0.00  0.00     0.000 C
ATOM     82  O5  IDS C   5     128.520  45.050  64.9790  0.00  0.00     0.000 O
BRANCH 78 83
ATOM     83   O  IDS C   5     129.714  47.806  62.9240  0.00  0.00     0.000 O
ATOM     84   S  IDS C   5     129.894  49.386  63.0580  0.00  0.00     0.000 S
ATOM     85   O  IDS C   5     129.003  49.798  64.1090  0.00  0.00     0.000 OA
ATOM     86   O  IDS C   5     131.287  49.582  63.3840  0.00  0.00     0.000 OA
ATOM     87   O  IDS C   5     129.543  49.929  61.7680  0.00  0.00     0.000 OA
ENDBRANCH 78 83
BRANCH 81 88
ATOM     88   C  IDS C   5     129.415  43.589  66.6290  0.00  0.00     0.000 C
ATOM     89   O  IDS C   5     130.008  43.377  67.6530  0.00  0.00     0.000 OA
ATOM     90   O  IDS C   5     128.668  42.755  66.1690  0.00  0.00     0.000 OA
ENDBRANCH 81 88
ENDBRANCH 76 80
ENDBRANCH 56 76
ENDBRANCH 55 59
ENDBRANCH 39 55
ENDBRANCH 38 42
ENDBRANCH 18 38
ENDBRANCH 17 21
ENDBRANCH 1 17
TORSDOF 18
ENDMDL
MODEL 85
REMARK VINA RESULT:      -5.1     24.098     30.022
ROOT
ATOM      1  C1  IDS C   1     185.574  25.382  60.8420  0.00  0.00     0.000 C
ATOM      2  C2  IDS C   1     184.466  25.664  61.8600  0.00  0.00     0.000 C
ATOM      3  C3  IDS C   1     184.067  27.132  61.8320  0.00  0.00     0.000 C
ATOM      4  C4  IDS C   1     185.266  28.020  62.1360  0.00  0.00     0.000 C
ATOM      5  C5  IDS C   1     186.516  27.459  61.4640  0.00  0.00     0.000 C
ATOM      6  O5  IDS C   1     186.149  26.599  60.3860  0.00  0.00     0.000 O
ATOM      7   O  IDS C   1     183.026  27.371  62.7900  0.00  0.00     0.000 O
ATOM      9  HD  IDS C   1     182.504  26.680  62.8030  0.00  0.00     0.000 HD
ENDROOT
BRANCH 2 9
ATOM      9   O  IDS C   1     183.255  24.867  61.5560  0.00  0.00     0.000 O
ATOM     10   S  IDS C   1     182.615  23.950  62.6920  0.00  0.00     0.000 S
ATOM     11   O  IDS C   1     181.458  23.325  62.0920  0.00  0.00     0.000 OA
ATOM     12   O  IDS C   1     183.647  22.999  63.0520  0.00  0.00     0.000 OA
ATOM     13   O  IDS C   1     182.271  24.845  63.7750  0.00  0.00     0.000 OA
ENDBRANCH 2 9
BRANCH 5 14
ATOM     14   C  IDS C   1     187.416  28.557  60.9210  0.00  0.00     0.000 C
ATOM     15   O  IDS C   1     186.921  29.542  60.4320  0.00  0.00     0.000 OA
ATOM     16   O  IDS C   1     188.627  28.431  60.9820  0.00  0.00     0.000 OA
ENDBRANCH 5 14
BRANCH 1 17
ATOM     17  O4  SGN C   2     185.579  24.304  60.0520  0.00  0.00     0.000 O
BRANCH 17 21
ATOM     18  C1  SGN C   2     185.173  22.227  56.4400  0.00  0.00     0.000 C
ATOM     19  C2  SGN C   2     185.365  23.746  56.3410  0.00  0.00     0.000 C
ATOM     20  C3  SGN C   2     185.913  24.287  57.6670  0.00  0.00     0.000 C
ATOM     21  C4  SGN C   2     185.020  23.849  58.8220  0.00  0.00     0.000 C
ATOM     22  C5  SGN C   2     184.911  22.327  58.8180  0.00  0.00     0.000 C
ATOM     23  O5  SGN C   2     184.375  21.879  57.5520  0.00  0.00     0.000 O
ATOM     24   O  SGN C   2     186.009  25.701  57.6080  0.00  0.00     0.000 O
ATOM     26  HD  SGN C   2     186.264  24.895  57.8000  0.00  0.00     0.000 HD
BRANCH 19 28
ATOM     26   N  SGN C   2     185.804  23.895  54.9470  0.00  0.00     0.000 N
ATOM     28  HD  SGN C   2     185.263  23.218  54.9220  0.00  0.00     0.000 HD
ATOM     28   O  SGN C   2     186.522  25.385  53.0800  0.00  0.00     0.000 OA
ATOM     29   S  SGN C   2     185.295  25.098  54.0100  0.00  0.00     0.000 S
ATOM     30   O  SGN C   2     184.234  24.604  53.2190  0.00  0.00     0.000 OA
ATOM     31   O  SGN C   2     185.082  26.232  54.8420  0.00  0.00     0.000 OA
ENDBRANCH 19 28
BRANCH 22 32
ATOM     32   C  SGN C   2     183.998  21.790  59.8920  0.00  0.00     0.000 C
ATOM     33   S  SGN C   2     183.141  19.515  60.7480  0.00  0.00     0.000 S
ATOM     34   O  SGN C   2     182.209  19.378  59.6570  0.00  0.00     0.000 OA
ATOM     35   O  SGN C   2     183.782  18.272  61.1240  0.00  0.00     0.000 OA
ATOM     36   O  SGN C   2     182.625  20.258  61.8730  0.00  0.00     0.000 OA
ATOM     37   O  SGN C   2     184.315  20.417  60.1520  0.00  0.00     0.000 O
ENDBRANCH 22 32
BRANCH 18 38
ATOM     38  O4  IDS C   3     186.066  21.239  56.3600  0.00  0.00     0.000 O
BRANCH 38 42
ATOM     39  C1  IDS C   3     186.868  17.859  56.1090  0.00  0.00     0.000 C
ATOM     40  C2  IDS C   3     187.821  18.850  56.7950  0.00  0.00     0.000 C
ATOM     41  C3  IDS C   3     188.113  20.050  55.8960  0.00  0.00     0.000 C
ATOM     42  C4  IDS C   3     186.829  20.628  55.3140  0.00  0.00     0.000 C
ATOM     43  C5  IDS C   3     186.011  19.512  54.6530  0.00  0.00     0.000 C
ATOM     44  O5  IDS C   3     185.707  18.516  55.6280  0.00  0.00     0.000 O
ATOM     45   O  IDS C   3     188.983  19.648  54.8370  0.00  0.00     0.000 O
ATOM     47  HD  IDS C   3     188.961  19.034  54.2260  0.00  0.00     0.000 HD
BRANCH 40 47
ATOM     47   O  IDS C   3     187.220  19.368  58.0470  0.00  0.00     0.000 O
ATOM     48   S  IDS C   3     187.863  18.979  59.4590  0.00  0.00     0.000 S
ATOM     49   O  IDS C   3     187.436  17.622  59.7290  0.00  0.00     0.000 OA
ATOM     50   O  IDS C   3     187.315  19.929  60.4020  0.00  0.00     0.000 OA
ATOM     51   O  IDS C   3     189.288  19.094  59.3030  0.00  0.00     0.000 OA
ENDBRANCH 40 47
BRANCH 43 52
ATOM     52   C  IDS C   3     184.730  20.017  54.0270  0.00  0.00     0.000 C
ATOM     53   O  IDS C   3     183.662  19.622  54.4350  0.00  0.00     0.000 OA
ATOM     54   O  IDS C   3     184.780  20.812  53.1230  0.00  0.00     0.000 OA
ENDBRANCH 43 52
BRANCH 39 55
ATOM     55  O4  SGN C   4     187.279  16.851  55.3400  0.00  0.00     0.000 O
BRANCH 55 59
ATOM     56  C1  SGN C   4     187.856  13.286  57.4520  0.00  0.00     0.000 C
ATOM     57  C2  SGN C   4     189.101  13.904  56.7930  0.00  0.00     0.000 C
ATOM     58  C3  SGN C   4     188.845  15.359  56.4090  0.00  0.00     0.000 C
ATOM     59  C4  SGN C   4     187.560  15.483  55.5990  0.00  0.00     0.000 C
ATOM     60  C5  SGN C   4     186.416  14.858  56.3950  0.00  0.00     0.000 C
ATOM     61  O5  SGN C   4     186.725  13.468  56.6160  0.00  0.00     0.000 O
ATOM     62   O  SGN C   4     189.953  15.859  55.6720  0.00  0.00     0.000 O
ATOM     64  HD  SGN C   4     190.291  15.246  56.1830  0.00  0.00     0.000 HD
BRANCH 57 66
ATOM     64   N  SGN C   4     190.054  13.474  57.8290  0.00  0.00     0.000 N
ATOM     66  HD  SGN C   4     190.373  12.720  58.1110  0.00  0.00     0.000 HD
ATOM     66   S  SGN C   4     191.295  12.543  57.4550  0.00  0.00     0.000 S
ATOM     67   O  SGN C   4     191.986  12.252  58.6580  0.00  0.00     0.000 OA
ATOM     68   O  SGN C   4     190.790  11.475  56.6630  0.00  0.00     0.000 OA
ATOM     69   O  SGN C   4     192.186  13.457  56.5530  0.00  0.00     0.000 OA
ENDBRANCH 57 66
BRANCH 60 70
ATOM     70   C  SGN C   4     185.076  14.928  55.6950  0.00  0.00     0.000 C
ATOM     71   O  SGN C   4     183.519  12.281  53.5330  0.00  0.00     0.000 OA
ATOM     72   O  SGN C   4     182.998  12.796  55.8370  0.00  0.00     0.000 OA
ATOM     73   O  SGN C   4     184.917  13.814  54.7950  0.00  0.00     0.000 O
ATOM     74   S  SGN C   4     183.423  13.301  54.5510  0.00  0.00     0.000 S
ATOM     75   O  SGN C   4     182.692  14.477  54.1240  0.00  0.00     0.000 OA
ENDBRANCH 60 70
BRANCH 56 76
ATOM     76  O4  IDS C   5     187.411  13.134  58.7120  0.00  0.00     0.000 O
BRANCH 76 80
ATOM     77  C1  IDS C   5     186.634  12.446  62.6600  0.00  0.00     0.000 C
ATOM     78  C2  IDS C   5     187.685  11.520  62.0500  0.00  0.00     0.000 C
ATOM     79  C3  IDS C   5     188.212  12.119  60.7600  0.00  0.00     0.000 C
ATOM     80  C4  IDS C   5     187.092  12.168  59.7250  0.00  0.00     0.000 C
ATOM     81  C5  IDS C   5     185.773  12.534  60.4200  0.00  0.00     0.000 C
ATOM     82  O5  IDS C   5     186.026  13.238  61.6400  0.00  0.00     0.000 O
BRANCH 78 83
ATOM     83   O  IDS C   5     188.824  11.336  62.9800  0.00  0.00     0.000 O
ATOM     84   S  IDS C   5     189.136   9.889  63.5750  0.00  0.00     0.000 S
ATOM     85   O  IDS C   5     187.881   9.383  64.0620  0.00  0.00     0.000 OA
ATOM     86   O  IDS C   5     189.663   9.129  62.4650  0.00  0.00     0.000 OA
ATOM     87   O  IDS C   5     190.110  10.097  64.6180  0.00  0.00     0.000 OA
ENDBRANCH 78 83
BRANCH 81 88
ATOM     88   C  IDS C   5     184.852  13.397  59.5770  0.00  0.00     0.000 C
ATOM     89   O  IDS C   5     184.161  12.889  58.7350  0.00  0.00     0.000 OA
ATOM     90   O  IDS C   5     184.818  14.593  59.7590  0.00  0.00     0.000 OA
ENDBRANCH 81 88
ENDBRANCH 76 80
ENDBRANCH 56 76
ENDBRANCH 55 59
ENDBRANCH 39 55
ENDBRANCH 38 42
ENDBRANCH 18 38
ENDBRANCH 17 21
ENDBRANCH 1 17
TORSDOF 18
ENDMDL
MODEL 86
REMARK VINA RESULT:      -5.0     46.742     52.420
ROOT
ATOM      1  C1  IDS C   1     128.250  45.005  63.5550  0.00  0.00     0.000 C
ATOM      2  C2  IDS C   1     128.860  44.471  64.8540  0.00  0.00     0.000 C
ATOM      3  C3  IDS C   1     127.881  43.556  65.5750  0.00  0.00     0.000 C
ATOM      4  C4  IDS C   1     126.590  44.297  65.8940  0.00  0.00     0.000 C
ATOM      5  C5  IDS C   1     126.210  45.211  64.7330  0.00  0.00     0.000 C
ATOM      6  O5  IDS C   1     126.848  44.772  63.5340  0.00  0.00     0.000 O
ATOM      7   O  IDS C   1     128.476  43.066  66.7850  0.00  0.00     0.000 O
ATOM      9  HD  IDS C   1     129.319  42.931  66.6380  0.00  0.00     0.000 HD
ENDROOT
BRANCH 2 9
ATOM      9   O  IDS C   1     130.084  43.686  64.5770  0.00  0.00     0.000 O
ATOM     10   S  IDS C   1     131.459  44.109  65.2650  0.00  0.00     0.000 S
ATOM     11   O  IDS C   1     132.442  43.151  64.8100  0.00  0.00     0.000 OA
ATOM     12   O  IDS C   1     131.728  45.455  64.8010  0.00  0.00     0.000 OA
ATOM     13   O  IDS C   1     131.226  44.040  66.6910  0.00  0.00     0.000 OA
ENDBRANCH 2 9
BRANCH 5 14
ATOM     14   C  IDS C   1     124.710  45.245  64.4970  0.00  0.00     0.000 C
ATOM     15   O  IDS C   1     124.287  45.563  63.4120  0.00  0.00     0.000 OA
ATOM     16   O  IDS C   1     123.948  44.954  65.4030  0.00  0.00     0.000 OA
ENDBRANCH 5 14
BRANCH 1 17
ATOM     17  O4  SGN C   2     128.931  45.080  62.4080  0.00  0.00     0.000 O
BRANCH 17 21
ATOM     18  C1  SGN C   2     129.691  44.126  58.4030  0.00  0.00     0.000 C
ATOM     19  C2  SGN C   2     128.330  43.695  58.9660  0.00  0.00     0.000 C
ATOM     20  C3  SGN C   2     128.035  44.465  60.2590  0.00  0.00     0.000 C
ATOM     21  C4  SGN C   2     129.191  44.306  61.2400  0.00  0.00     0.000 C
ATOM     22  C5  SGN C   2     130.481  44.769  60.5700  0.00  0.00     0.000 C
ATOM     23  O5  SGN C   2     130.713  43.997  59.3690  0.00  0.00     0.000 O
ATOM     24   O  SGN C   2     126.820  44.007  60.8270  0.00  0.00     0.000 O
ATOM     26  HD  SGN C   2     127.411  44.591  60.5810  0.00  0.00     0.000 HD
BRANCH 19 28
ATOM     26   N  SGN C   2     127.413  43.748  57.8190  0.00  0.00     0.000 N
ATOM     28  HD  SGN C   2     128.175  43.988  57.4840  0.00  0.00     0.000 HD
ATOM     28   O  SGN C   2     125.410  42.841  56.6420  0.00  0.00     0.000 OA
ATOM     29   S  SGN C   2     126.843  42.421  57.1130  0.00  0.00     0.000 S
ATOM     30   O  SGN C   2     127.638  42.170  55.9730  0.00  0.00     0.000 OA
ATOM     31   O  SGN C   2     126.716  41.420  58.1150  0.00  0.00     0.000 OA
ENDBRANCH 19 28
BRANCH 22 32
ATOM     32   C  SGN C   2     131.702  44.598  61.4400  0.00  0.00     0.000 C
ATOM     33   S  SGN C   2     133.928  43.299  61.4220  0.00  0.00     0.000 S
ATOM     34   O  SGN C   2     133.288  42.061  61.7920  0.00  0.00     0.000 OA
ATOM     35   O  SGN C   2     134.993  43.136  60.4550  0.00  0.00     0.000 OA
ATOM     36   O  SGN C   2     134.294  44.131  62.5440  0.00  0.00     0.000 OA
ATOM     37   O  SGN C   2     132.793  44.113  60.6490  0.00  0.00     0.000 O
ENDBRANCH 22 32
BRANCH 18 38
ATOM     38  O4  IDS C   3     130.032  45.218  57.7140  0.00  0.00     0.000 O
BRANCH 38 42
ATOM     39  C1  IDS C   3     130.140  48.299  56.0950  0.00  0.00     0.000 C
ATOM     40  C2  IDS C   3     129.002  47.303  55.8250  0.00  0.00     0.000 C
ATOM     41  C3  IDS C   3     129.550  45.924  55.4590  0.00  0.00     0.000 C
ATOM     42  C4  IDS C   3     130.627  45.481  56.4390  0.00  0.00     0.000 C
ATOM     43  C5  IDS C   3     131.689  46.579  56.5750  0.00  0.00     0.000 C
ATOM     44  O5  IDS C   3     131.065  47.777  57.0350  0.00  0.00     0.000 O
ATOM     45   O  IDS C   3     130.088  45.964  54.1360  0.00  0.00     0.000 O
ATOM     47  HD  IDS C   3     130.681  46.448  53.7320  0.00  0.00     0.000 HD
BRANCH 40 47
ATOM     47   O  IDS C   3     128.156  47.139  57.0310  0.00  0.00     0.000 O
ATOM     48   S  IDS C   3     126.895  48.097  57.2540  0.00  0.00     0.000 S
ATOM     49   O  IDS C   3     127.431  49.361  57.7120  0.00  0.00     0.000 OA
ATOM     50   O  IDS C   3     126.091  47.440  58.2620  0.00  0.00     0.000 OA
ATOM     51   O  IDS C   3     126.233  48.201  55.9810  0.00  0.00     0.000 OA
ENDBRANCH 40 47
BRANCH 43 52
ATOM     52   C  IDS C   3     132.811  46.197  57.5150  0.00  0.00     0.000 C
ATOM     53   O  IDS C   3     132.894  46.725  58.6000  0.00  0.00     0.000 OA
ATOM     54   O  IDS C   3     133.616  45.367  57.1770  0.00  0.00     0.000 OA
ENDBRANCH 43 52
BRANCH 39 55
ATOM     55  O4  SGN C   4     130.696  49.059  55.1520  0.00  0.00     0.000 O
BRANCH 55 59
ATOM     56  C1  SGN C   4     130.486  52.281  52.4910  0.00  0.00     0.000 C
ATOM     57  C2  SGN C   4     129.659  52.401  53.7820  0.00  0.00     0.000 C
ATOM     58  C3  SGN C   4     130.121  51.379  54.8180  0.00  0.00     0.000 C
ATOM     59  C4  SGN C   4     130.166  49.981  54.2100  0.00  0.00     0.000 C
ATOM     60  C5  SGN C   4     131.047  50.017  52.9630  0.00  0.00     0.000 C
ATOM     61  O5  SGN C   4     130.464  50.942  52.0240  0.00  0.00     0.000 O
ATOM     62   O  SGN C   4     129.248  51.410  55.9390  0.00  0.00     0.000 O
ATOM     64  HD  SGN C   4     129.211  52.211  55.6130  0.00  0.00     0.000 HD
BRANCH 57 66
ATOM     64   N  SGN C   4     128.628  53.269  54.3720  0.00  0.00     0.000 N
ATOM     66  HD  SGN C   4     128.613  54.025  54.7940  0.00  0.00     0.000 HD
ATOM     66   S  SGN C   4     128.530  54.808  53.9610  0.00  0.00     0.000 S
ATOM     67   O  SGN C   4     127.492  55.389  54.7330  0.00  0.00     0.000 OA
ATOM     68   O  SGN C   4     129.845  55.344  54.0420  0.00  0.00     0.000 OA
ATOM     69   O  SGN C   4     128.099  54.765  52.4600  0.00  0.00     0.000 OA
ENDBRANCH 57 66
BRANCH 60 70
ATOM     70   C  SGN C   4     131.180  48.677  52.2710  0.00  0.00     0.000 C
ATOM     71   O  SGN C   4     134.361  46.811  51.5590  0.00  0.00     0.000 OA
ATOM     72   O  SGN C   4     132.772  46.393  53.3330  0.00  0.00     0.000 OA
ATOM     73   O  SGN C   4     132.564  48.386  51.9960  0.00  0.00     0.000 O
ATOM     74   S  SGN C   4     132.977  46.842  51.9750  0.00  0.00     0.000 S
ATOM     75   O  SGN C   4     132.074  46.229  51.0220  0.00  0.00     0.000 OA
ENDBRANCH 60 70
BRANCH 56 76
ATOM     76  O4  IDS C   5     131.596  52.864  52.0020  0.00  0.00     0.000 O
BRANCH 76 80
ATOM     77  C1  IDS C   5     135.240  51.096  52.5080  0.00  0.00     0.000 C
ATOM     78  C2  IDS C   5     134.901  52.161  53.5510  0.00  0.00     0.000 C
ATOM     79  C3  IDS C   5     133.408  52.428  53.5480  0.00  0.00     0.000 C
ATOM     80  C4  IDS C   5     133.004  53.049  52.2140  0.00  0.00     0.000 C
ATOM     81  C5  IDS C   5     133.808  52.393  51.0830  0.00  0.00     0.000 C
ATOM     82  O5  IDS C   5     134.256  51.092  51.4740  0.00  0.00     0.000 O
BRANCH 78 83
ATOM     83   O  IDS C   5     135.293  51.710  54.9070  0.00  0.00     0.000 O
ATOM     84   S  IDS C   5     136.465  52.463  55.6850  0.00  0.00     0.000 S
ATOM     85   O  IDS C   5     137.555  52.566  54.7530  0.00  0.00     0.000 OA
ATOM     86   O  IDS C   5     135.911  53.744  56.0560  0.00  0.00     0.000 OA
ATOM     87   O  IDS C   5     136.768  51.637  56.8280  0.00  0.00     0.000 OA
ENDBRANCH 78 83
BRANCH 81 88
ATOM     88   C  IDS C   5     133.034  52.240  49.7860  0.00  0.00     0.000 C
ATOM     89   O  IDS C   5     132.855  53.195  49.0790  0.00  0.00     0.000 OA
ATOM     90   O  IDS C   5     132.601  51.155  49.4720  0.00  0.00     0.000 OA
ENDBRANCH 81 88
ENDBRANCH 76 80
ENDBRANCH 56 76
ENDBRANCH 55 59
ENDBRANCH 39 55
ENDBRANCH 38 42
ENDBRANCH 18 38
ENDBRANCH 17 21
ENDBRANCH 1 17
TORSDOF 18
ENDMDL
MODEL 87
REMARK VINA RESULT:      -5.0     11.655     15.173
ROOT
ATOM      1  C1  IDS C   1     179.745  25.178  72.2010  0.00  0.00     0.000 C
ATOM      2  C2  IDS C   1     178.435  25.965  72.1010  0.00  0.00     0.000 C
ATOM      3  C3  IDS C   1     178.078  26.237  70.6470  0.00  0.00     0.000 C
ATOM      4  C4  IDS C   1     179.187  27.020  69.9590  0.00  0.00     0.000 C
ATOM      5  C5  IDS C   1     180.550  26.517  70.4260  0.00  0.00     0.000 C
ATOM      6  O5  IDS C   1     180.430  25.196  70.9560  0.00  0.00     0.000 O
ATOM      7   O  IDS C   1     176.846  26.970  70.5790  0.00  0.00     0.000 O
ATOM      9  HD  IDS C   1     176.325  26.685  71.2090  0.00  0.00     0.000 HD
ENDROOT
BRANCH 2 9
ATOM      9   O  IDS C   1     177.316  25.203  72.7000  0.00  0.00     0.000 O
ATOM     10   S  IDS C   1     176.481  25.847  73.8970  0.00  0.00     0.000 S
ATOM     11   O  IDS C   1     175.469  24.875  74.2430  0.00  0.00     0.000 OA
ATOM     12   O  IDS C   1     177.437  26.070  74.9620  0.00  0.00     0.000 OA
ATOM     13   O  IDS C   1     175.924  27.075  73.3730  0.00  0.00     0.000 OA
ENDBRANCH 2 9
BRANCH 5 14
ATOM     14   C  IDS C   1     181.569  26.493  69.2990  0.00  0.00     0.000 C
ATOM     15   O  IDS C   1     181.547  27.361  68.4600  0.00  0.00     0.000 OA
ATOM     16   O  IDS C   1     182.396  25.599  69.2500  0.00  0.00     0.000 OA
ENDBRANCH 5 14
BRANCH 1 17
ATOM     17  O4  SGN C   2     179.916  24.154  73.0420  0.00  0.00     0.000 O
BRANCH 17 21
ATOM     18  C1  SGN C   2     180.586  20.138  74.0160  0.00  0.00     0.000 C
ATOM     19  C2  SGN C   2     180.829  20.540  72.5560  0.00  0.00     0.000 C
ATOM     20  C3  SGN C   2     180.959  22.065  72.4520  0.00  0.00     0.000 C
ATOM     21  C4  SGN C   2     179.749  22.739  73.0880  0.00  0.00     0.000 C
ATOM     22  C5  SGN C   2     179.616  22.265  74.5320  0.00  0.00     0.000 C
ATOM     23  O5  SGN C   2     179.481  20.826  74.5640  0.00  0.00     0.000 O
ATOM     24   O  SGN C   2     181.097  22.446  71.0930  0.00  0.00     0.000 O
ATOM     26  HD  SGN C   2     181.265  22.461  71.9430  0.00  0.00     0.000 HD
BRANCH 19 28
ATOM     26   N  SGN C   2     181.672  19.433  72.0840  0.00  0.00     0.000 N
ATOM     28  HD  SGN C   2     181.148  19.060  72.6650  0.00  0.00     0.000 HD
ATOM     28   O  SGN C   2     182.955  18.363  70.2320  0.00  0.00     0.000 OA
ATOM     29   S  SGN C   2     181.498  18.783  70.6240  0.00  0.00     0.000 S
ATOM     30   O  SGN C   2     180.714  17.617  70.7670  0.00  0.00     0.000 OA
ATOM     31   O  SGN C   2     181.071  19.813  69.7410  0.00  0.00     0.000 OA
ENDBRANCH 19 28
BRANCH 22 32
ATOM     32   C  SGN C   2     178.409  22.832  75.2390  0.00  0.00     0.000 C
ATOM     33   S  SGN C   2     176.341  21.986  76.5240  0.00  0.00     0.000 S
ATOM     34   O  SGN C   2     175.659  21.605  75.3130  0.00  0.00     0.000 OA
ATOM     35   O  SGN C   2     176.144  21.058  77.6180  0.00  0.00     0.000 OA
ATOM     36   O  SGN C   2     176.149  23.367  76.8990  0.00  0.00     0.000 OA
ATOM     37   O  SGN C   2     177.890  21.863  76.1580  0.00  0.00     0.000 O
ENDBRANCH 22 32
BRANCH 18 38
ATOM     38  O4  IDS C   3     181.442  20.035  75.0350  0.00  0.00     0.000 O
BRANCH 38 42
ATOM     39  C1  IDS C   3     181.542  19.465  78.4690  0.00  0.00     0.000 C
ATOM     40  C2  IDS C   3     182.632  20.295  77.7720  0.00  0.00     0.000 C
ATOM     41  C3  IDS C   3     183.224  19.540  76.5820  0.00  0.00     0.000 C
ATOM     42  C4  IDS C   3     182.129  18.966  75.6940  0.00  0.00     0.000 C
ATOM     43  C5  IDS C   3     181.143  18.155  76.5430  0.00  0.00     0.000 C
ATOM     44  O5  IDS C   3     180.576  19.005  77.5390  0.00  0.00     0.000 O
ATOM     45   O  IDS C   3     184.061  18.485  77.0590  0.00  0.00     0.000 O
ATOM     47  HD  IDS C   3     183.953  17.813  77.5950  0.00  0.00     0.000 HD
BRANCH 40 47
ATOM     47   O  IDS C   3     182.070  21.566  77.2580  0.00  0.00     0.000 O
ATOM     48   S  IDS C   3     182.684  22.961  77.7420  0.00  0.00     0.000 S
ATOM     49   O  IDS C   3     182.163  23.184  79.0730  0.00  0.00     0.000 OA
ATOM     50   O  IDS C   3     182.205  23.938  76.7890  0.00  0.00     0.000 OA
ATOM     51   O  IDS C   3     184.114  22.804  77.7210  0.00  0.00     0.000 OA
ENDBRANCH 40 47
BRANCH 43 52
ATOM     52   C  IDS C   3     180.039  17.528  75.7210  0.00  0.00     0.000 C
ATOM     53   O  IDS C   3     178.884  17.805  75.9530  0.00  0.00     0.000 OA
ATOM     54   O  IDS C   3     180.316  16.756  74.8390  0.00  0.00     0.000 OA
ENDBRANCH 43 52
BRANCH 39 55
ATOM     55  O4  SGN C   4     181.786  18.613  79.4650  0.00  0.00     0.000 O
BRANCH 55 59
ATOM     56  C1  SGN C   4     180.182  19.824  83.1340  0.00  0.00     0.000 C
ATOM     57  C2  SGN C   4     181.694  20.034  82.9420  0.00  0.00     0.000 C
ATOM     58  C3  SGN C   4     182.072  19.930  81.4670  0.00  0.00     0.000 C
ATOM     59  C4  SGN C   4     181.517  18.646  80.8600  0.00  0.00     0.000 C
ATOM     60  C5  SGN C   4     180.010  18.599  81.1010  0.00  0.00     0.000 C
ATOM     61  O5  SGN C   4     179.779  18.609  82.5240  0.00  0.00     0.000 O
ATOM     62   O  SGN C   4     183.486  19.978  81.3340  0.00  0.00     0.000 O
ATOM     64  HD  SGN C   4     183.321  20.428  82.0550  0.00  0.00     0.000 HD
BRANCH 57 66
ATOM     64   N  SGN C   4     182.577  20.037  84.1190  0.00  0.00     0.000 N
ATOM     66  HD  SGN C   4     183.238  20.519  84.4040  0.00  0.00     0.000 HD
ATOM     66   S  SGN C   4     182.736  21.350  85.0120  0.00  0.00     0.000 S
ATOM     67   O  SGN C   4     183.688  21.065  86.0220  0.00  0.00     0.000 OA
ATOM     68   O  SGN C   4     182.966  22.434  84.1200  0.00  0.00     0.000 OA
ATOM     69   O  SGN C   4     181.327  21.528  85.6630  0.00  0.00     0.000 OA
ENDBRANCH 57 66
BRANCH 60 70
ATOM     70   C  SGN C   4     179.338  17.368  80.5320  0.00  0.00     0.000 C
ATOM     71   O  SGN C   4     175.664  16.590  80.5550  0.00  0.00     0.000 OA
ATOM     72   O  SGN C   4     176.980  17.437  78.7120  0.00  0.00     0.000 OA
ATOM     73   O  SGN C   4     177.950  17.329  80.9140  0.00  0.00     0.000 O
ATOM     74   S  SGN C   4     176.950  16.609  79.8960  0.00  0.00     0.000 S
ATOM     75   O  SGN C   4     177.514  15.290  79.6920  0.00  0.00     0.000 OA
ENDBRANCH 60 70
BRANCH 56 76
ATOM     76  O4  IDS C   5     179.101  20.623  83.2020  0.00  0.00     0.000 O
BRANCH 76 80
ATOM     77  C1  IDS C   5     175.589  22.692  83.4200  0.00  0.00     0.000 C
ATOM     78  C2  IDS C   5     175.436  21.221  83.0330  0.00  0.00     0.000 C
ATOM     79  C3  IDS C   5     176.693  20.458  83.4030  0.00  0.00     0.000 C
ATOM     80  C4  IDS C   5     177.862  20.961  82.5600  0.00  0.00     0.000 C
ATOM     81  C5  IDS C   5     177.746  22.482  82.3850  0.00  0.00     0.000 C
ATOM     82  O5  IDS C   5     176.970  23.052  83.4440  0.00  0.00     0.000 O
BRANCH 78 83
ATOM     83   O  IDS C   5     174.290  20.608  83.7450  0.00  0.00     0.000 O
ATOM     84   S  IDS C   5     172.836  20.650  83.0900  0.00  0.00     0.000 S
ATOM     85   O  IDS C   5     172.625  22.013  82.6820  0.00  0.00     0.000 OA
ATOM     86   O  IDS C   5     172.894  19.728  81.9800  0.00  0.00     0.000 OA
ATOM     87   O  IDS C   5     171.929  20.218  84.1250  0.00  0.00     0.000 OA
ENDBRANCH 78 83
BRANCH 81 88
ATOM     88   C  IDS C   5     179.081  23.202  82.3570  0.00  0.00     0.000 C
ATOM     89   O  IDS C   5     179.512  23.703  83.3600  0.00  0.00     0.000 OA
ATOM     90   O  IDS C   5     179.705  23.267  81.3220  0.00  0.00     0.000 OA
ENDBRANCH 81 88
ENDBRANCH 76 80
ENDBRANCH 56 76
ENDBRANCH 55 59
ENDBRANCH 39 55
ENDBRANCH 38 42
ENDBRANCH 18 38
ENDBRANCH 17 21
ENDBRANCH 1 17
TORSDOF 18
ENDMDL
MODEL 88
REMARK VINA RESULT:      -4.9     45.992     51.256
ROOT
ATOM      1  C1  IDS C   1     125.316  46.824  52.9260  0.00  0.00     0.000 C
ATOM      2  C2  IDS C   1     125.078  47.791  51.7620  0.00  0.00     0.000 C
ATOM      3  C3  IDS C   1     123.677  48.382  51.8280  0.00  0.00     0.000 C
ATOM      4  C4  IDS C   1     122.627  47.280  51.7880  0.00  0.00     0.000 C
ATOM      5  C5  IDS C   1     123.091  46.085  52.6150  0.00  0.00     0.000 C
ATOM      6  O5  IDS C   1     124.084  46.494  53.5550  0.00  0.00     0.000 O
ATOM      7   O  IDS C   1     123.481  49.286  50.7310  0.00  0.00     0.000 O
ATOM      9  HD  IDS C   1     124.226  49.702  50.5840  0.00  0.00     0.000 HD
ENDROOT
BRANCH 2 9
ATOM      9   O  IDS C   1     126.040  48.915  51.8060  0.00  0.00     0.000 O
ATOM     10   S  IDS C   1     127.001  49.173  50.5600  0.00  0.00     0.000 S
ATOM     11   O  IDS C   1     127.795  50.332  50.9050  0.00  0.00     0.000 OA
ATOM     12   O  IDS C   1     127.793  47.968  50.4240  0.00  0.00     0.000 OA
ATOM     13   O  IDS C   1     126.130  49.406  49.4300  0.00  0.00     0.000 OA
ENDBRANCH 2 9
BRANCH 5 14
ATOM     14   C  IDS C   1     121.948  45.435  53.3750  0.00  0.00     0.000 C
ATOM     15   O  IDS C   1     120.821  45.832  53.2050  0.00  0.00     0.000 OA
ATOM     16   O  IDS C   1     122.177  44.522  54.1490  0.00  0.00     0.000 OA
ENDBRANCH 5 14
BRANCH 1 17
ATOM     17  O4  SGN C   2     126.452  46.796  53.6280  0.00  0.00     0.000 O
BRANCH 17 21
ATOM     18  C1  SGN C   2     128.990  48.136  56.6760  0.00  0.00     0.000 C
ATOM     19  C2  SGN C   2     127.577  48.732  56.6470  0.00  0.00     0.000 C
ATOM     20  C3  SGN C   2     126.663  47.860  55.7780  0.00  0.00     0.000 C
ATOM     21  C4  SGN C   2     127.281  47.662  54.3990  0.00  0.00     0.000 C
ATOM     22  C5  SGN C   2     128.675  47.063  54.5590  0.00  0.00     0.000 C
ATOM     23  O5  SGN C   2     129.492  47.936  55.3710  0.00  0.00     0.000 O
ATOM     24   O  SGN C   2     125.380  48.455  55.6790  0.00  0.00     0.000 O
ATOM     26  HD  SGN C   2     125.950  47.810  55.7750  0.00  0.00     0.000 HD
BRANCH 19 28
ATOM     26   N  SGN C   2     127.421  49.193  58.0330  0.00  0.00     0.000 N
ATOM     28  HD  SGN C   2     128.278  49.199  57.9090  0.00  0.00     0.000 HD
ATOM     28   O  SGN C   2     126.084  50.433  59.7360  0.00  0.00     0.000 OA
ATOM     29   S  SGN C   2     126.861  50.656  58.3950  0.00  0.00     0.000 S
ATOM     30   O  SGN C   2     127.975  51.487  58.6510  0.00  0.00     0.000 OA
ATOM     31   O  SGN C   2     125.928  51.022  57.3860  0.00  0.00     0.000 OA
ENDBRANCH 19 28
BRANCH 22 32
ATOM     32   C  SGN C   2     129.401  46.880  53.2490  0.00  0.00     0.000 C
ATOM     33   S  SGN C   2     131.749  46.228  52.4090  0.00  0.00     0.000 S
ATOM     34   O  SGN C   2     132.296  47.525  52.7210  0.00  0.00     0.000 OA
ATOM     35   O  SGN C   2     132.654  45.133  52.6920  0.00  0.00     0.000 OA
ATOM     36   O  SGN C   2     131.137  46.145  51.1040  0.00  0.00     0.000 OA
ATOM     37   O  SGN C   2     130.550  46.047  53.4470  0.00  0.00     0.000 O
ENDBRANCH 22 32
BRANCH 18 38
ATOM     38  O4  IDS C   3     129.477  47.106  57.3720  0.00  0.00     0.000 O
BRANCH 38 42
ATOM     39  C1  IDS C   3     130.707  44.829  59.7010  0.00  0.00     0.000 C
ATOM     40  C2  IDS C   3     131.569  45.293  58.5160  0.00  0.00     0.000 C
ATOM     41  C3  IDS C   3     130.827  45.117  57.1910  0.00  0.00     0.000 C
ATOM     42  C4  IDS C   3     129.415  45.680  57.2720  0.00  0.00     0.000 C
ATOM     43  C5  IDS C   3     128.693  45.100  58.4940  0.00  0.00     0.000 C
ATOM     44  O5  IDS C   3     129.426  45.436  59.6710  0.00  0.00     0.000 O
ATOM     45   O  IDS C   3     130.775  43.728  56.8590  0.00  0.00     0.000 O
ATOM     47  HD  IDS C   3     130.492  43.013  57.2590  0.00  0.00     0.000 HD
BRANCH 40 47
ATOM     47   O  IDS C   3     131.906  46.730  58.6490  0.00  0.00     0.000 O
ATOM     48   S  IDS C   3     133.116  47.178  59.5940  0.00  0.00     0.000 S
ATOM     49   O  IDS C   3     132.614  47.096  60.9490  0.00  0.00     0.000 OA
ATOM     50   O  IDS C   3     133.423  48.536  59.2000  0.00  0.00     0.000 OA
ATOM     51   O  IDS C   3     134.193  46.258  59.3410  0.00  0.00     0.000 OA
ENDBRANCH 40 47
BRANCH 43 52
ATOM     52   C  IDS C   3     127.270  45.594  58.6240  0.00  0.00     0.000 C
ATOM     53   O  IDS C   3     127.006  46.474  59.4120  0.00  0.00     0.000 OA
ATOM     54   O  IDS C   3     126.405  45.110  57.9400  0.00  0.00     0.000 OA
ENDBRANCH 43 52
BRANCH 39 55
ATOM     55  O4  SGN C   4     130.705  43.580  60.1690  0.00  0.00     0.000 O
BRANCH 55 59
ATOM     56  C1  SGN C   4     132.304  42.993  63.9900  0.00  0.00     0.000 C
ATOM     57  C2  SGN C   4     133.311  43.097  62.8320  0.00  0.00     0.000 C
ATOM     58  C3  SGN C   4     132.651  43.693  61.5910  0.00  0.00     0.000 C
ATOM     59  C4  SGN C   4     131.362  42.950  61.2590  0.00  0.00     0.000 C
ATOM     60  C5  SGN C   4     130.457  42.962  62.4900  0.00  0.00     0.000 C
ATOM     61  O5  SGN C   4     131.146  42.293  63.5650  0.00  0.00     0.000 O
ATOM     62   O  SGN C   4     133.556  43.640  60.4980  0.00  0.00     0.000 O
ATOM     64  HD  SGN C   4     134.064  43.689  61.1970  0.00  0.00     0.000 HD
BRANCH 57 66
ATOM     64   N  SGN C   4     134.540  43.842  63.1500  0.00  0.00     0.000 N
ATOM     66  HD  SGN C   4     135.050  43.940  63.8420  0.00  0.00     0.000 HD
ATOM     66   S  SGN C   4     135.812  43.090  63.7500  0.00  0.00     0.000 S
ATOM     67   O  SGN C   4     136.804  44.070  64.0070  0.00  0.00     0.000 OA
ATOM     68   O  SGN C   4     135.347  42.271  64.8160  0.00  0.00     0.000 OA
ATOM     69   O  SGN C   4     136.285  42.168  62.5810  0.00  0.00     0.000 OA
ENDBRANCH 57 66
BRANCH 60 70
ATOM     70   C  SGN C   4     129.133  42.259  62.2810  0.00  0.00     0.000 C
ATOM     71   O  SGN C   4     125.948  43.780  60.9980  0.00  0.00     0.000 OA
ATOM     72   O  SGN C   4     127.528  42.418  59.7750  0.00  0.00     0.000 OA
ATOM     73   O  SGN C   4     128.097  43.212  61.9770  0.00  0.00     0.000 O
ATOM     74   S  SGN C   4     126.902  42.696  61.0480  0.00  0.00     0.000 S
ATOM     75   O  SGN C   4     126.399  41.513  61.7150  0.00  0.00     0.000 OA
ENDBRANCH 60 70
BRANCH 56 76
ATOM     76  O4  IDS C   5     131.950  43.772  65.0290  0.00  0.00     0.000 O
BRANCH 76 80
ATOM     77  C1  IDS C   5     131.914  47.254  67.1580  0.00  0.00     0.000 C
ATOM     78  C2  IDS C   5     133.310  46.727  66.8280  0.00  0.00     0.000 C
ATOM     79  C3  IDS C   5     133.226  45.719  65.6990  0.00  0.00     0.000 C
ATOM     80  C4  IDS C   5     132.449  44.492  66.1670  0.00  0.00     0.000 C
ATOM     81  C5  IDS C   5     131.290  44.937  67.0700  0.00  0.00     0.000 C
ATOM     82  O5  IDS C   5     130.926  46.292  66.7880  0.00  0.00     0.000 O
BRANCH 78 83
ATOM     83   O  IDS C   5     134.201  47.832  66.4040  0.00  0.00     0.000 O
ATOM     84   S  IDS C   5     135.650  47.977  67.0550  0.00  0.00     0.000 S
ATOM     85   O  IDS C   5     135.455  47.881  68.4770  0.00  0.00     0.000 OA
ATOM     86   O  IDS C   5     136.420  46.883  66.5120  0.00  0.00     0.000 OA
ATOM     87   O  IDS C   5     136.141  49.266  66.6330  0.00  0.00     0.000 OA
ENDBRANCH 78 83
BRANCH 81 88
ATOM     88   C  IDS C   5     130.039  44.089  66.9290  0.00  0.00     0.000 C
ATOM     89   O  IDS C   5     130.003  42.990  67.4140  0.00  0.00     0.000 OA
ATOM     90   O  IDS C   5     129.083  44.527  66.3290  0.00  0.00     0.000 OA
ENDBRANCH 81 88
ENDBRANCH 76 80
ENDBRANCH 56 76
ENDBRANCH 55 59
ENDBRANCH 39 55
ENDBRANCH 38 42
ENDBRANCH 18 38
ENDBRANCH 17 21
ENDBRANCH 1 17
TORSDOF 18
ENDMDL
MODEL 89
REMARK VINA RESULT:      -4.7     26.038     31.148
ROOT
ATOM      1  C1  IDS C   1     177.267  38.882  65.6960  0.00  0.00     0.000 C
ATOM      2  C2  IDS C   1     177.808  39.641  66.9110  0.00  0.00     0.000 C
ATOM      3  C3  IDS C   1     179.287  39.348  67.1170  0.00  0.00     0.000 C
ATOM      4  C4  IDS C   1     179.516  37.856  67.3150  0.00  0.00     0.000 C
ATOM      5  C5  IDS C   1     178.607  37.059  66.3840  0.00  0.00     0.000 C
ATOM      6  O5  IDS C   1     178.187  37.876  65.2910  0.00  0.00     0.000 O
ATOM      7   O  IDS C   1     179.771  40.073  68.2570  0.00  0.00     0.000 O
ATOM      9  HD  IDS C   1     179.375  40.843  68.2780  0.00  0.00     0.000 HD
ENDROOT
BRANCH 2 9
ATOM      9   O  IDS C   1     177.665  41.103  66.7250  0.00  0.00     0.000 O
ATOM     10   S  IDS C   1     176.890  41.960  67.8250  0.00  0.00     0.000 S
ATOM     11   O  IDS C   1     176.936  43.330  67.3640  0.00  0.00     0.000 OA
ATOM     12   O  IDS C   1     175.545  41.422  67.8620  0.00  0.00     0.000 OA
ATOM     13   O  IDS C   1     177.611  41.760  69.0620  0.00  0.00     0.000 OA
ENDBRANCH 2 9
BRANCH 5 14
ATOM     14   C  IDS C   1     179.298  35.826  65.8260  0.00  0.00     0.000 C
ATOM     15   O  IDS C   1     178.632  34.906  65.4190  0.00  0.00     0.000 OA
ATOM     16   O  IDS C   1     180.516  35.777  65.7950  0.00  0.00     0.000 OA
ENDBRANCH 5 14
BRANCH 1 17
ATOM     17  O4  SGN C   2     176.446  39.435  64.7990  0.00  0.00     0.000 O
BRANCH 17 21
ATOM     18  C1  SGN C   2     175.476  41.112  61.0880  0.00  0.00     0.000 C
ATOM     19  C2  SGN C   2     176.824  40.385  61.1830  0.00  0.00     0.000 C
ATOM     20  C3  SGN C   2     176.843  39.486  62.4250  0.00  0.00     0.000 C
ATOM     21  C4  SGN C   2     176.488  40.297  63.6660  0.00  0.00     0.000 C
ATOM     22  C5  SGN C   2     175.132  40.965  63.4530  0.00  0.00     0.000 C
ATOM     23  O5  SGN C   2     175.182  41.810  62.2810  0.00  0.00     0.000 O
ATOM     24   O  SGN C   2     178.117  38.880  62.5620  0.00  0.00     0.000 O
ATOM     26  HD  SGN C   2     177.252  38.919  62.5690  0.00  0.00     0.000 HD
BRANCH 19 28
ATOM     26   N  SGN C   2     177.089  40.069  59.7730  0.00  0.00     0.000 N
ATOM     28  HD  SGN C   2     176.571  40.762  59.7340  0.00  0.00     0.000 HD
ATOM     28   O  SGN C   2     178.653  39.195  58.0370  0.00  0.00     0.000 OA
ATOM     29   S  SGN C   2     178.514  40.352  59.0820  0.00  0.00     0.000 S
ATOM     30   O  SGN C   2     178.414  41.578  58.3880  0.00  0.00     0.000 OA
ATOM     31   O  SGN C   2     179.516  40.187  60.0770  0.00  0.00     0.000 OA
ENDBRANCH 19 28
BRANCH 22 32
ATOM     32   C  SGN C   2     174.711  41.843  64.6060  0.00  0.00     0.000 C
ATOM     33   S  SGN C   2     172.872  43.561  65.1610  0.00  0.00     0.000 S
ATOM     34   O  SGN C   2     173.511  44.598  64.3890  0.00  0.00     0.000 OA
ATOM     35   O  SGN C   2     171.428  43.564  65.0540  0.00  0.00     0.000 OA
ATOM     36   O  SGN C   2     173.347  43.463  66.5210  0.00  0.00     0.000 OA
ATOM     37   O  SGN C   2     173.333  42.205  64.4570  0.00  0.00     0.000 O
ENDBRANCH 22 32
BRANCH 18 38
ATOM     38  O4  IDS C   3     174.288  40.673  60.6670  0.00  0.00     0.000 O
BRANCH 38 42
ATOM     39  C1  IDS C   3     171.110  40.075  59.3750  0.00  0.00     0.000 C
ATOM     40  C2  IDS C   3     171.309  40.425  60.8580  0.00  0.00     0.000 C
ATOM     41  C3  IDS C   3     172.349  39.512  61.5070  0.00  0.00     0.000 C
ATOM     42  C4  IDS C   3     173.606  39.415  60.6530  0.00  0.00     0.000 C
ATOM     43  C5  IDS C   3     173.229  39.040  59.2150  0.00  0.00     0.000 C
ATOM     44  O5  IDS C   3     172.350  40.033  58.6890  0.00  0.00     0.000 O
ATOM     45   O  IDS C   3     171.788  38.210  61.6890  0.00  0.00     0.000 O
ATOM     47  HD  IDS C   3     171.413  37.627  61.1700  0.00  0.00     0.000 HD
BRANCH 40 47
ATOM     47   O  IDS C   3     171.788  41.820  61.0040  0.00  0.00     0.000 O
ATOM     48   S  IDS C   3     170.739  42.999  61.2590  0.00  0.00     0.000 S
ATOM     49   O  IDS C   3     170.124  43.267  59.9760  0.00  0.00     0.000 OA
ATOM     50   O  IDS C   3     171.527  44.113  61.7380  0.00  0.00     0.000 OA
ATOM     51   O  IDS C   3     169.803  42.507  62.2340  0.00  0.00     0.000 OA
ENDBRANCH 40 47
BRANCH 43 52
ATOM     52   C  IDS C   3     174.434  38.898  58.3120  0.00  0.00     0.000 C
ATOM     53   O  IDS C   3     174.723  39.790  57.5470  0.00  0.00     0.000 OA
ATOM     54   O  IDS C   3     175.101  37.895  58.3590  0.00  0.00     0.000 OA
ENDBRANCH 43 52
BRANCH 39 55
ATOM     55  O4  SGN C   4     170.219  39.185  58.9380  0.00  0.00     0.000 O
BRANCH 55 59
ATOM     56  C1  SGN C   4     166.671  40.699  57.3170  0.00  0.00     0.000 C
ATOM     57  C2  SGN C   4     166.753  40.634  58.8520  0.00  0.00     0.000 C
ATOM     58  C3  SGN C   4     168.198  40.450  59.3100  0.00  0.00     0.000 C
ATOM     59  C4  SGN C   4     168.847  39.279  58.5810  0.00  0.00     0.000 C
ATOM     60  C5  SGN C   4     168.715  39.503  57.0760  0.00  0.00     0.000 C
ATOM     61  O5  SGN C   4     167.313  39.568  56.7500  0.00  0.00     0.000 O
ATOM     62   O  SGN C   4     168.229  40.245  60.7160  0.00  0.00     0.000 O
ATOM     64  HD  SGN C   4     167.520  40.724  60.5820  0.00  0.00     0.000 HD
BRANCH 57 66
ATOM     64   N  SGN C   4     165.367  40.510  59.3300  0.00  0.00     0.000 N
ATOM     66  HD  SGN C   4     164.942  40.675  60.0670  0.00  0.00     0.000 HD
ATOM     66   S  SGN C   4     164.610  41.766  59.9610  0.00  0.00     0.000 S
ATOM     67   O  SGN C   4     163.330  41.324  60.3800  0.00  0.00     0.000 OA
ATOM     68   O  SGN C   4     165.494  42.350  60.9100  0.00  0.00     0.000 OA
ATOM     69   O  SGN C   4     164.451  42.747  58.7560  0.00  0.00     0.000 OA
ENDBRANCH 57 66
BRANCH 60 70
ATOM     70   C  SGN C   4     169.335  38.406  56.2380  0.00  0.00     0.000 C
ATOM     71   O  SGN C   4     172.935  38.111  55.2120  0.00  0.00     0.000 OA
ATOM     72   O  SGN C   4     171.806  36.919  56.9880  0.00  0.00     0.000 OA
ATOM     73   O  SGN C   4     170.689  38.745  55.8830  0.00  0.00     0.000 O
ATOM     74   S  SGN C   4     171.701  37.524  55.6790  0.00  0.00     0.000 S
ATOM     75   O  SGN C   4     171.059  36.670  54.6990  0.00  0.00     0.000 OA
ENDBRANCH 60 70
BRANCH 56 76
ATOM     76  O4  IDS C   5     166.680  41.678  56.3940  0.00  0.00     0.000 O
BRANCH 76 80
ATOM     77  C1  IDS C   5     170.272  42.846  54.8460  0.00  0.00     0.000 C
ATOM     78  C2  IDS C   5     169.729  43.757  55.9460  0.00  0.00     0.000 C
ATOM     79  C3  IDS C   5     168.661  43.027  56.7380  0.00  0.00     0.000 C
ATOM     80  C4  IDS C   5     167.460  42.748  55.8390  0.00  0.00     0.000 C
ATOM     81  C5  IDS C   5     167.953  42.380  54.4320  0.00  0.00     0.000 C
ATOM     82  O5  IDS C   5     169.290  41.874  54.4840  0.00  0.00     0.000 O
BRANCH 78 83
ATOM     83   O  IDS C   5     170.811  44.157  56.8770  0.00  0.00     0.000 O
ATOM     84   S  IDS C   5     171.051  45.701  57.1960  0.00  0.00     0.000 S
ATOM     85   O  IDS C   5     171.084  46.368  55.9220  0.00  0.00     0.000 OA
ATOM     86   O  IDS C   5     169.930  46.097  58.0150  0.00  0.00     0.000 OA
ATOM     87   O  IDS C   5     172.306  45.763  57.9040  0.00  0.00     0.000 OA
ENDBRANCH 78 83
BRANCH 81 88
ATOM     88   C  IDS C   5     167.097  41.339  53.7330  0.00  0.00     0.000 C
ATOM     89   O  IDS C   5     167.518  40.224  53.5800  0.00  0.00     0.000 OA
ATOM     90   O  IDS C   5     165.995  41.639  53.3360  0.00  0.00     0.000 OA
ENDBRANCH 81 88
ENDBRANCH 76 80
ENDBRANCH 56 76
ENDBRANCH 55 59
ENDBRANCH 39 55
ENDBRANCH 38 42
ENDBRANCH 18 38
ENDBRANCH 17 21
ENDBRANCH 1 17
TORSDOF 18
ENDMDL
MODEL 90
REMARK VINA RESULT:      -4.7     24.102     28.272
ROOT
ATOM      1  C1  IDS C   1     164.275  42.127  62.6100  0.00  0.00     0.000 C
ATOM      2  C2  IDS C   1     163.514  41.211  61.6470  0.00  0.00     0.000 C
ATOM      3  C3  IDS C   1     164.479  40.421  60.7760  0.00  0.00     0.000 C
ATOM      4  C4  IDS C   1     165.372  41.359  59.9760  0.00  0.00     0.000 C
ATOM      5  C5  IDS C   1     165.776  42.555  60.8330  0.00  0.00     0.000 C
ATOM      6  O5  IDS C   1     165.637  42.235  62.2180  0.00  0.00     0.000 O
ATOM      7   O  IDS C   1     163.743  39.568  59.8870  0.00  0.00     0.000 O
ATOM      9  HD  IDS C   1     163.045  39.275  60.3070  0.00  0.00     0.000 HD
ENDROOT
BRANCH 2 9
ATOM      9   O  IDS C   1     162.684  40.237  62.3920  0.00  0.00     0.000 O
ATOM     10   S  IDS C   1     161.136  40.091  62.0350  0.00  0.00     0.000 S
ATOM     11   O  IDS C   1     160.622  39.066  62.9150  0.00  0.00     0.000 OA
ATOM     12   O  IDS C   1     160.555  41.394  62.2850  0.00  0.00     0.000 OA
ATOM     13   O  IDS C   1     161.087  39.710  60.6410  0.00  0.00     0.000 OA
ENDBRANCH 2 9
BRANCH 5 14
ATOM     14   C  IDS C   1     167.211  42.983  60.5790  0.00  0.00     0.000 C
ATOM     15   O  IDS C   1     167.772  42.615  59.5760  0.00  0.00     0.000 OA
ATOM     16   O  IDS C   1     167.783  43.692  61.3890  0.00  0.00     0.000 OA
ENDBRANCH 5 14
BRANCH 1 17
ATOM     17  O4  SGN C   2     163.936  42.275  63.8940  0.00  0.00     0.000 O
BRANCH 17 21
ATOM     18  C1  SGN C   2     163.995  41.337  67.9730  0.00  0.00     0.000 C
ATOM     19  C2  SGN C   2     165.125  40.751  67.1170  0.00  0.00     0.000 C
ATOM     20  C3  SGN C   2     165.213  41.506  65.7850  0.00  0.00     0.000 C
ATOM     21  C4  SGN C   2     163.853  41.514  65.0960  0.00  0.00     0.000 C
ATOM     22  C5  SGN C   2     162.820  42.121  66.0400  0.00  0.00     0.000 C
ATOM     23  O5  SGN C   2     162.772  41.358  67.2680  0.00  0.00     0.000 O
ATOM     24   O  SGN C   2     166.198  40.911  64.9580  0.00  0.00     0.000 O
ATOM     26  HD  SGN C   2     165.759  41.559  65.3280  0.00  0.00     0.000 HD
BRANCH 19 28
ATOM     26   N  SGN C   2     166.120  40.407  68.1430  0.00  0.00     0.000 N
ATOM     28  HD  SGN C   2     165.361  40.267  68.5370  0.00  0.00     0.000 HD
ATOM     28   O  SGN C   2     168.366  39.486  68.7180  0.00  0.00     0.000 OA
ATOM     29   S  SGN C   2     167.005  39.067  68.0650  0.00  0.00     0.000 S
ATOM     30   O  SGN C   2     166.387  38.100  68.8900  0.00  0.00     0.000 OA
ATOM     31   O  SGN C   2     167.231  38.778  66.6920  0.00  0.00     0.000 OA
ENDBRANCH 19 28
BRANCH 22 32
ATOM     32   C  SGN C   2     161.421  42.123  65.4740  0.00  0.00     0.000 C
ATOM     33   S  SGN C   2     159.383  43.696  65.3500  0.00  0.00     0.000 S
ATOM     34   O  SGN C   2     159.007  43.429  66.7150  0.00  0.00     0.000 OA
ATOM     35   O  SGN C   2     159.197  45.077  64.9550  0.00  0.00     0.000 OA
ATOM     36   O  SGN C   2     158.852  42.750  64.3970  0.00  0.00     0.000 OA
ATOM     37   O  SGN C   2     160.963  43.473  65.3260  0.00  0.00     0.000 O
ENDBRANCH 22 32
BRANCH 18 38
ATOM     38  O4  IDS C   3     163.961  42.447  68.7140  0.00  0.00     0.000 O
BRANCH 38 42
ATOM     39  C1  IDS C   3     161.729  44.396  70.5420  0.00  0.00     0.000 C
ATOM     40  C2  IDS C   3     162.978  45.017  69.8970  0.00  0.00     0.000 C
ATOM     41  C3  IDS C   3     164.241  44.252  70.2880  0.00  0.00     0.000 C
ATOM     42  C4  IDS C   3     164.054  42.751  70.1100  0.00  0.00     0.000 C
ATOM     43  C5  IDS C   3     162.778  42.298  70.8300  0.00  0.00     0.000 C
ATOM     44  O5  IDS C   3     161.662  43.002  70.2890  0.00  0.00     0.000 O
ATOM     45   O  IDS C   3     164.565  44.539  71.6500  0.00  0.00     0.000 O
ATOM     47  HD  IDS C   3     164.144  44.482  72.4040  0.00  0.00     0.000 HD
BRANCH 40 47
ATOM     47   O  IDS C   3     162.873  44.978  68.4190  0.00  0.00     0.000 O
ATOM     48   S  IDS C   3     162.248  46.221  67.6320  0.00  0.00     0.000 S
ATOM     49   O  IDS C   3     160.815  46.123  67.8080  0.00  0.00     0.000 OA
ATOM     50   O  IDS C   3     162.649  46.040  66.2540  0.00  0.00     0.000 OA
ATOM     51   O  IDS C   3     162.804  47.404  68.2320  0.00  0.00     0.000 OA
ENDBRANCH 40 47
BRANCH 43 52
ATOM     52   C  IDS C   3     162.541  40.808  70.7190  0.00  0.00     0.000 C
ATOM     53   O  IDS C   3     161.501  40.396  70.2590  0.00  0.00     0.000 OA
ATOM     54   O  IDS C   3     163.391  40.039  71.0890  0.00  0.00     0.000 OA
ENDBRANCH 43 52
BRANCH 39 55
ATOM     55  O4  SGN C   4     161.260  44.753  71.7380  0.00  0.00     0.000 O
BRANCH 55 59
ATOM     56  C1  SGN C   4     157.187  44.200  72.5170  0.00  0.00     0.000 C
ATOM     57  C2  SGN C   4     157.557  45.373  71.5930  0.00  0.00     0.000 C
ATOM     58  C3  SGN C   4     158.987  45.227  71.0800  0.00  0.00     0.000 C
ATOM     59  C4  SGN C   4     159.951  44.991  72.2370  0.00  0.00     0.000 C
ATOM     60  C5  SGN C   4     159.471  43.782  73.0370  0.00  0.00     0.000 C
ATOM     61  O5  SGN C   4     158.154  44.070  73.5460  0.00  0.00     0.000 O
ATOM     62   O  SGN C   4     159.353  46.393  70.3530  0.00  0.00     0.000 O
ATOM     64  HD  SGN C   4     158.493  46.340  70.2600  0.00  0.00     0.000 HD
BRANCH 57 66
ATOM     64   N  SGN C   4     156.846  46.601  71.2020  0.00  0.00     0.000 N
ATOM     66  HD  SGN C   4     156.446  46.893  70.4910  0.00  0.00     0.000 HD
ATOM     66   S  SGN C   4     155.367  46.528  70.6080  0.00  0.00     0.000 S
ATOM     67   O  SGN C   4     154.978  47.849  70.2720  0.00  0.00     0.000 OA
ATOM     68   O  SGN C   4     155.371  45.523  69.6010  0.00  0.00     0.000 OA
ATOM     69   O  SGN C   4     154.508  46.025  71.8130  0.00  0.00     0.000 OA
ENDBRANCH 57 66
BRANCH 60 70
ATOM     70   C  SGN C   4     160.357  43.438  74.2140  0.00  0.00     0.000 C
ATOM     71   O  SGN C   4     163.117  40.892  74.2930  0.00  0.00     0.000 OA
ATOM     72   O  SGN C   4     163.331  43.292  74.0870  0.00  0.00     0.000 OA
ATOM     73   O  SGN C   4     161.154  42.273  73.9240  0.00  0.00     0.000 O
ATOM     74   S  SGN C   4     162.581  42.187  74.6400  0.00  0.00     0.000 S
ATOM     75   O  SGN C   4     162.295  42.334  76.0540  0.00  0.00     0.000 OA
ENDBRANCH 60 70
BRANCH 56 76
ATOM     76  O4  IDS C   5     156.596  43.001  72.3610  0.00  0.00     0.000 O
BRANCH 76 80
ATOM     77  C1  IDS C   5     154.198  40.010  70.9610  0.00  0.00     0.000 C
ATOM     78  C2  IDS C   5     153.492  41.352  71.1520  0.00  0.00     0.000 C
ATOM     79  C3  IDS C   5     154.517  42.465  71.2390  0.00  0.00     0.000 C
ATOM     80  C4  IDS C   5     155.358  42.287  72.5000  0.00  0.00     0.000 C
ATOM     81  C5  IDS C   5     155.625  40.792  72.7270  0.00  0.00     0.000 C
ATOM     82  O5  IDS C   5     155.520  40.070  71.4960  0.00  0.00     0.000 O
BRANCH 78 83
ATOM     83   O  IDS C   5     152.588  41.635  70.0120  0.00  0.00     0.000 O
ATOM     84   S  IDS C   5     151.039  41.909  70.2770  0.00  0.00     0.000 S
ATOM     85   O  IDS C   5     150.593  40.851  71.1420  0.00  0.00     0.000 OA
ATOM     86   O  IDS C   5     150.986  43.212  70.8990  0.00  0.00     0.000 OA
ATOM     87   O  IDS C   5     150.411  41.888  68.9790  0.00  0.00     0.000 OA
ENDBRANCH 78 83
BRANCH 81 88
ATOM     88   C  IDS C   5     156.990  40.493  73.3180  0.00  0.00     0.000 C
ATOM     89   O  IDS C   5     157.870  40.076  72.6130  0.00  0.00     0.000 OA
ATOM     90   O  IDS C   5     157.185  40.677  74.4970  0.00  0.00     0.000 OA
ENDBRANCH 81 88
ENDBRANCH 76 80
ENDBRANCH 56 76
ENDBRANCH 55 59
ENDBRANCH 39 55
ENDBRANCH 38 42
ENDBRANCH 18 38
ENDBRANCH 17 21
ENDBRANCH 1 17
TORSDOF 18
ENDMDL
MODEL 91
REMARK VINA RESULT:      -4.5     22.070     26.433
ROOT
ATOM      1  C1  IDS C   1     190.041  29.593  69.1860  0.00  0.00     0.000 C
ATOM      2  C2  IDS C   1     191.348  28.925  69.6200  0.00  0.00     0.000 C
ATOM      3  C3  IDS C   1     191.319  28.596  71.1060  0.00  0.00     0.000 C
ATOM      4  C4  IDS C   1     191.100  29.856  71.9310  0.00  0.00     0.000 C
ATOM      5  C5  IDS C   1     190.093  30.768  71.2370  0.00  0.00     0.000 C
ATOM      6  O5  IDS C   1     189.297  30.014  70.3220  0.00  0.00     0.000 O
ATOM      7   O  IDS C   1     192.551  27.968  71.4880  0.00  0.00     0.000 O
ATOM      9  HD  IDS C   1     192.811  27.460  70.8360  0.00  0.00     0.000 HD
ENDROOT
BRANCH 2 9
ATOM      9   O  IDS C   1     191.562  27.658  68.8860  0.00  0.00     0.000 O
ATOM     10   S  IDS C   1     192.841  27.503  67.9450  0.00  0.00     0.000 S
ATOM     11   O  IDS C   1     192.768  26.169  67.3930  0.00  0.00     0.000 OA
ATOM     12   O  IDS C   1     192.710  28.538  66.9390  0.00  0.00     0.000 OA
ATOM     13   O  IDS C   1     193.989  27.694  68.8040  0.00  0.00     0.000 OA
ENDBRANCH 2 9
BRANCH 5 14
ATOM     14   C  IDS C   1     189.168  31.457  72.2250  0.00  0.00     0.000 C
ATOM     15   O  IDS C   1     188.271  30.831  72.7350  0.00  0.00     0.000 OA
ATOM     16   O  IDS C   1     189.336  32.635  72.4920  0.00  0.00     0.000 OA
ENDBRANCH 5 14
BRANCH 1 17
ATOM     17  O4  SGN C   2     189.406  29.281  68.0520  0.00  0.00     0.000 O
BRANCH 17 21
ATOM     18  C1  SGN C   2     186.704  26.914  65.9020  0.00  0.00     0.000 C
ATOM     19  C2  SGN C   2     186.921  26.543  67.3740  0.00  0.00     0.000 C
ATOM     20  C3  SGN C   2     187.577  27.716  68.1140  0.00  0.00     0.000 C
ATOM     21  C4  SGN C   2     188.846  28.149  67.3900  0.00  0.00     0.000 C
ATOM     22  C5  SGN C   2     188.502  28.494  65.9440  0.00  0.00     0.000 C
ATOM     23  O5  SGN C   2     187.904  27.348  65.2970  0.00  0.00     0.000 O
ATOM     24   O  SGN C   2     187.857  27.345  69.4530  0.00  0.00     0.000 O
ATOM     26  HD  SGN C   2     187.589  27.863  68.8130  0.00  0.00     0.000 HD
BRANCH 19 28
ATOM     26   N  SGN C   2     185.705  25.771  67.6650  0.00  0.00     0.000 N
ATOM     28  HD  SGN C   2     185.827  25.651  66.8160  0.00  0.00     0.000 HD
ATOM     28   O  SGN C   2     184.390  24.378  69.2620  0.00  0.00     0.000 OA
ATOM     29   S  SGN C   2     185.743  24.382  68.4740  0.00  0.00     0.000 S
ATOM     30   O  SGN C   2     185.716  23.336  67.5250  0.00  0.00     0.000 OA
ATOM     31   O  SGN C   2     186.812  24.455  69.4080  0.00  0.00     0.000 OA
ENDBRANCH 19 28
BRANCH 22 32
ATOM     32   C  SGN C   2     189.705  28.883  65.1190  0.00  0.00     0.000 C
ATOM     33   S  SGN C   2     191.175  27.890  63.2500  0.00  0.00     0.000 S
ATOM     34   O  SGN C   2     191.876  27.025  64.1660  0.00  0.00     0.000 OA
ATOM     35   O  SGN C   2     190.899  27.276  61.9680  0.00  0.00     0.000 OA
ATOM     36   O  SGN C   2     191.738  29.215  63.1430  0.00  0.00     0.000 OA
ATOM     37   O  SGN C   2     189.742  28.096  63.9220  0.00  0.00     0.000 O
ENDBRANCH 22 32
BRANCH 18 38
ATOM     38  O4  IDS C   3     185.763  27.670  65.3330  0.00  0.00     0.000 O
BRANCH 38 42
ATOM     39  C1  IDS C   3     182.709  29.331  65.1320  0.00  0.00     0.000 C
ATOM     40  C2  IDS C   3     182.831  27.984  65.8630  0.00  0.00     0.000 C
ATOM     41  C3  IDS C   3     183.495  26.932  64.9750  0.00  0.00     0.000 C
ATOM     42  C4  IDS C   3     184.761  27.477  64.3280  0.00  0.00     0.000 C
ATOM     43  C5  IDS C   3     184.457  28.809  63.6310  0.00  0.00     0.000 C
ATOM     44  O5  IDS C   3     183.956  29.735  64.5920  0.00  0.00     0.000 O
ATOM     45   O  IDS C   3     182.575  26.520  63.9620  0.00  0.00     0.000 O
ATOM     47  HD  IDS C   3     182.113  26.926  63.3530  0.00  0.00     0.000 HD
BRANCH 40 47
ATOM     47   O  IDS C   3     183.662  28.126  67.0810  0.00  0.00     0.000 O
ATOM     48   S  IDS C   3     182.999  27.934  68.5240  0.00  0.00     0.000 S
ATOM     49   O  IDS C   3     182.269  29.155  68.7910  0.00  0.00     0.000 OA
ATOM     50   O  IDS C   3     184.110  27.744  69.4310  0.00  0.00     0.000 OA
ATOM     51   O  IDS C   3     182.143  26.782  68.4280  0.00  0.00     0.000 OA
ENDBRANCH 40 47
BRANCH 43 52
ATOM     52   C  IDS C   3     185.667  29.398  62.9400  0.00  0.00     0.000 C
ATOM     53   O  IDS C   3     185.619  30.522  62.4960  0.00  0.00     0.000 OA
ATOM     54   O  IDS C   3     186.673  28.743  62.8350  0.00  0.00     0.000 OA
ENDBRANCH 43 52
BRANCH 39 55
ATOM     55  O4  SGN C   4     181.658  29.675  64.3880  0.00  0.00     0.000 O
BRANCH 55 59
ATOM     56  C1  SGN C   4     180.231  33.564  64.9720  0.00  0.00     0.000 C
ATOM     57  C2  SGN C   4     179.666  32.478  65.9030  0.00  0.00     0.000 C
ATOM     58  C3  SGN C   4     180.534  31.223  65.8590  0.00  0.00     0.000 C
ATOM     59  C4  SGN C   4     180.765  30.780  64.4190  0.00  0.00     0.000 C
ATOM     60  C5  SGN C   4     181.356  31.949  63.6340  0.00  0.00     0.000 C
ATOM     61  O5  SGN C   4     180.412  33.038  63.6670  0.00  0.00     0.000 O
ATOM     62   O  SGN C   4     179.912  30.188  66.6080  0.00  0.00     0.000 O
ATOM     64  HD  SGN C   4     179.637  30.920  66.9810  0.00  0.00     0.000 HD
BRANCH 57 66
ATOM     64   N  SGN C   4     178.551  33.374  66.2480  0.00  0.00     0.000 N
ATOM     66  HD  SGN C   4     177.807  33.307  66.6860  0.00  0.00     0.000 HD
ATOM     66   S  SGN C   4     178.094  33.554  67.7660  0.00  0.00     0.000 S
ATOM     67   O  SGN C   4     176.972  34.420  67.7730  0.00  0.00     0.000 OA
ATOM     68   O  SGN C   4     177.973  32.250  68.3210  0.00  0.00     0.000 OA
ATOM     69   O  SGN C   4     179.309  34.272  68.4370  0.00  0.00     0.000 OA
ENDBRANCH 57 66
BRANCH 60 70
ATOM     70   C  SGN C   4     181.641  31.629  62.1830  0.00  0.00     0.000 C
ATOM     71   O  SGN C   4     179.139  31.385  59.3920  0.00  0.00     0.000 OA
ATOM     72   O  SGN C   4     180.625  33.229  59.8830  0.00  0.00     0.000 OA
ATOM     73   O  SGN C   4     180.412  31.420  61.4610  0.00  0.00     0.000 O
ATOM     74   S  SGN C   4     180.424  31.798  59.9070  0.00  0.00     0.000 S
ATOM     75   O  SGN C   4     181.535  31.050  59.3530  0.00  0.00     0.000 OA
ENDBRANCH 60 70
BRANCH 56 76
ATOM     76  O4  IDS C   5     181.068  34.609  65.1090  0.00  0.00     0.000 O
BRANCH 76 80
ATOM     77  C1  IDS C   5     185.028  34.056  64.2900  0.00  0.00     0.000 C
ATOM     78  C2  IDS C   5     184.674  34.002  65.7760  0.00  0.00     0.000 C
ATOM     79  C3  IDS C   5     183.184  33.776  65.9420  0.00  0.00     0.000 C
ATOM     80  C4  IDS C   5     182.422  34.984  65.4060  0.00  0.00     0.000 C
ATOM     81  C5  IDS C   5     183.122  35.509  64.1440  0.00  0.00     0.000 C
ATOM     82  O5  IDS C   5     183.893  34.472  63.5300  0.00  0.00     0.000 O
BRANCH 78 83
ATOM     83   O  IDS C   5     185.394  32.894  66.4460  0.00  0.00     0.000 O
ATOM     84   S  IDS C   5     186.428  33.214  67.6170  0.00  0.00     0.000 S
ATOM     85   O  IDS C   5     187.279  34.261  67.1180  0.00  0.00     0.000 OA
ATOM     86   O  IDS C   5     185.616  33.627  68.7370  0.00  0.00     0.000 OA
ATOM     87   O  IDS C   5     187.131  31.978  67.8660  0.00  0.00     0.000 OA
ENDBRANCH 78 83
BRANCH 81 88
ATOM     88   C  IDS C   5     182.171  36.054  63.0940  0.00  0.00     0.000 C
ATOM     89   O  IDS C   5     181.640  37.119  63.2620  0.00  0.00     0.000 OA
ATOM     90   O  IDS C   5     181.954  35.412  62.0920  0.00  0.00     0.000 OA
ENDBRANCH 81 88
ENDBRANCH 76 80
ENDBRANCH 56 76
ENDBRANCH 55 59
ENDBRANCH 39 55
ENDBRANCH 38 42
ENDBRANCH 18 38
ENDBRANCH 17 21
ENDBRANCH 1 17
TORSDOF 18
ENDMDL
MODEL 92
REMARK VINA RESULT:      -4.5     14.950     20.890
ROOT
ATOM      1  C1  IDS C   1     157.324  28.862  85.5140  0.00  0.00     0.000 C
ATOM      2  C2  IDS C   1     158.149  28.046  86.5130  0.00  0.00     0.000 C
ATOM      3  C3  IDS C   1     157.827  26.563  86.3960  0.00  0.00     0.000 C
ATOM      4  C4  IDS C   1     156.346  26.315  86.6470  0.00  0.00     0.000 C
ATOM      5  C5  IDS C   1     155.514  27.424  86.0110  0.00  0.00     0.000 C
ATOM      6  O5  IDS C   1     156.265  28.075  84.9860  0.00  0.00     0.000 O
ATOM      7   O  IDS C   1     158.614  25.820  87.3370  0.00  0.00     0.000 O
ATOM      9  HD  IDS C   1     159.395  26.191  87.3920  0.00  0.00     0.000 HD
ENDROOT
BRANCH 2 9
ATOM      9   O  IDS C   1     159.598  28.209  86.2570  0.00  0.00     0.000 O
ATOM     10   S  IDS C   1     160.561  28.648  87.4510  0.00  0.00     0.000 S
ATOM     11   O  IDS C   1     161.891  28.703  86.8870  0.00  0.00     0.000 OA
ATOM     12   O  IDS C   1     160.077  29.943  87.8840  0.00  0.00     0.000 OA
ATOM     13   O  IDS C   1     160.423  27.626  88.4650  0.00  0.00     0.000 OA
ENDBRANCH 2 9
BRANCH 5 14
ATOM     14   C  IDS C   1     154.225  26.897  85.4030  0.00  0.00     0.000 C
ATOM     15   O  IDS C   1     153.269  27.627  85.3140  0.00  0.00     0.000 OA
ATOM     16   O  IDS C   1     154.168  25.743  85.0120  0.00  0.00     0.000 OA
ENDBRANCH 5 14
BRANCH 1 17
ATOM     17  O4  SGN C   2     157.838  29.861  84.7910  0.00  0.00     0.000 O
BRANCH 17 21
ATOM     18  C1  SGN C   2     159.989  31.612  81.6550  0.00  0.00     0.000 C
ATOM     19  C2  SGN C   2     159.463  30.191  81.4180  0.00  0.00     0.000 C
ATOM     20  C3  SGN C   2     158.369  29.864  82.4420  0.00  0.00     0.000 C
ATOM     21  C4  SGN C   2     158.885  30.106  83.8560  0.00  0.00     0.000 C
ATOM     22  C5  SGN C   2     159.373  31.547  83.9680  0.00  0.00     0.000 C
ATOM     23  O5  SGN C   2     160.412  31.789  82.9910  0.00  0.00     0.000 O
ATOM     24   O  SGN C   2     157.943  28.522  82.2810  0.00  0.00     0.000 O
ATOM     26  HD  SGN C   2     157.852  29.372  82.4140  0.00  0.00     0.000 HD
BRANCH 19 28
ATOM     26   N  SGN C   2     159.098  30.082  79.9990  0.00  0.00     0.000 N
ATOM     28  HD  SGN C   2     159.232  30.930  80.1120  0.00  0.00     0.000 HD
ATOM     28   O  SGN C   2     159.133  28.769  77.8780  0.00  0.00     0.000 OA
ATOM     29   S  SGN C   2     160.095  29.462  78.9000  0.00  0.00     0.000 S
ATOM     30   O  SGN C   2     160.740  30.541  78.2540  0.00  0.00     0.000 OA
ATOM     31   O  SGN C   2     160.874  28.460  79.5410  0.00  0.00     0.000 OA
ENDBRANCH 19 28
BRANCH 22 32
ATOM     32   C  SGN C   2     159.961  31.877  85.3180  0.00  0.00     0.000 C
ATOM     33   S  SGN C   2     162.096  32.939  86.2960  0.00  0.00     0.000 S
ATOM     34   O  SGN C   2     162.877  31.751  86.0620  0.00  0.00     0.000 OA
ATOM     35   O  SGN C   2     162.818  34.169  86.0420  0.00  0.00     0.000 OA
ATOM     36   O  SGN C   2     161.386  32.939  87.5530  0.00  0.00     0.000 OA
ATOM     37   O  SGN C   2     160.962  32.892  85.1740  0.00  0.00     0.000 O
ENDBRANCH 22 32
BRANCH 18 38
ATOM     38  O4  IDS C   3     159.462  32.792  81.3220  0.00  0.00     0.000 O
BRANCH 38 42
ATOM     39  C1  IDS C   3     157.728  35.794  80.9840  0.00  0.00     0.000 C
ATOM     40  C2  IDS C   3     157.022  34.444  80.7790  0.00  0.00     0.000 C
ATOM     41  C3  IDS C   3     157.780  33.570  79.7800  0.00  0.00     0.000 C
ATOM     42  C4  IDS C   3     159.266  33.522  80.1060  0.00  0.00     0.000 C
ATOM     43  C5  IDS C   3     159.811  34.947  80.2570  0.00  0.00     0.000 C
ATOM     44  O5  IDS C   3     159.099  35.612  81.2990  0.00  0.00     0.000 O
ATOM     45   O  IDS C   3     157.592  34.088  78.4610  0.00  0.00     0.000 O
ATOM     47  HD  IDS C   3     157.720  34.855  78.0810  0.00  0.00     0.000 HD
BRANCH 40 47
ATOM     47   O  IDS C   3     156.948  33.696  82.0570  0.00  0.00     0.000 O
ATOM     48   S  IDS C   3     155.618  33.763  82.9420  0.00  0.00     0.000 S
ATOM     49   O  IDS C   3     155.650  35.046  83.6100  0.00  0.00     0.000 OA
ATOM     50   O  IDS C   3     155.720  32.655  83.8660  0.00  0.00     0.000 OA
ATOM     51   O  IDS C   3     154.514  33.638  82.0280  0.00  0.00     0.000 OA
ENDBRANCH 40 47
BRANCH 43 52
ATOM     52   C  IDS C   3     161.294  34.979  80.5550  0.00  0.00     0.000 C
ATOM     53   O  IDS C   3     162.090  34.703  79.6870  0.00  0.00     0.000 OA
ATOM     54   O  IDS C   3     161.675  35.280  81.6570  0.00  0.00     0.000 OA
ENDBRANCH 43 52
BRANCH 39 55
ATOM     55  O4  SGN C   4     157.480  36.876  80.2470  0.00  0.00     0.000 O
BRANCH 55 59
ATOM     56  C1  SGN C   4     153.980  38.873  81.3760  0.00  0.00     0.000 C
ATOM     57  C2  SGN C   4     153.958  38.165  80.0100  0.00  0.00     0.000 C
ATOM     58  C3  SGN C   4     155.110  37.170  79.8970  0.00  0.00     0.000 C
ATOM     59  C4  SGN C   4     156.434  37.837  80.2550  0.00  0.00     0.000 C
ATOM     60  C5  SGN C   4     156.309  38.461  81.6430  0.00  0.00     0.000 C
ATOM     61  O5  SGN C   4     155.258  39.446  81.6040  0.00  0.00     0.000 O
ATOM     62   O  SGN C   4     155.155  36.642  78.5790  0.00  0.00     0.000 O
ATOM     64  HD  SGN C   4     154.322  36.843  78.7030  0.00  0.00     0.000 HD
BRANCH 57 66
ATOM     64   N  SGN C   4     152.773  38.962  79.6580  0.00  0.00     0.000 N
ATOM     66  HD  SGN C   4     152.315  39.118  78.9390  0.00  0.00     0.000 HD
ATOM     66   S  SGN C   4     151.528  38.285  78.9230  0.00  0.00     0.000 S
ATOM     67   O  SGN C   4     150.581  39.307  78.6630  0.00  0.00     0.000 OA
ATOM     68   O  SGN C   4     152.048  37.522  77.8410  0.00  0.00     0.000 OA
ATOM     69   O  SGN C   4     150.953  37.305  79.9960  0.00  0.00     0.000 OA
ENDBRANCH 57 66
BRANCH 60 70
ATOM     70   C  SGN C   4     157.570  39.150  82.1180  0.00  0.00     0.000 C
ATOM     71   O  SGN C   4     158.707  39.574  85.6730  0.00  0.00     0.000 OA
ATOM     72   O  SGN C   4     159.501  37.963  84.0540  0.00  0.00     0.000 OA
ATOM     73   O  SGN C   4     157.557  39.295  83.5520  0.00  0.00     0.000 O
ATOM     74   S  SGN C   4     158.979  39.291  84.2820  0.00  0.00     0.000 S
ATOM     75   O  SGN C   4     159.740  40.332  83.6190  0.00  0.00     0.000 OA
ENDBRANCH 60 70
BRANCH 56 76
ATOM     76  O4  IDS C   5     153.407  38.666  82.5760  0.00  0.00     0.000 O
BRANCH 76 80
ATOM     77  C1  IDS C   5     152.487  35.806  85.3390  0.00  0.00     0.000 C
ATOM     78  C2  IDS C   5     151.763  35.652  84.0020  0.00  0.00     0.000 C
ATOM     79  C3  IDS C   5     152.477  36.459  82.9350  0.00  0.00     0.000 C
ATOM     80  C4  IDS C   5     152.373  37.945  83.2630  0.00  0.00     0.000 C
ATOM     81  C5  IDS C   5     152.499  38.141  84.7800  0.00  0.00     0.000 C
ATOM     82  O5  IDS C   5     153.199  37.043  85.3720  0.00  0.00     0.000 O
BRANCH 78 83
ATOM     83   O  IDS C   5     151.740  34.232  83.5790  0.00  0.00     0.000 O
ATOM     84   S  IDS C   5     150.420  33.621  82.9250  0.00  0.00     0.000 S
ATOM     85   O  IDS C   5     149.336  34.002  83.7910  0.00  0.00     0.000 OA
ATOM     86   O  IDS C   5     150.335  34.219  81.6130  0.00  0.00     0.000 OA
ATOM     87   O  IDS C   5     150.633  32.195  82.8730  0.00  0.00     0.000 OA
ENDBRANCH 78 83
BRANCH 81 88
ATOM     88   C  IDS C   5     153.224  39.414  85.1780  0.00  0.00     0.000 C
ATOM     89   O  IDS C   5     152.643  40.465  85.1580  0.00  0.00     0.000 OA
ATOM     90   O  IDS C   5     154.385  39.361  85.5150  0.00  0.00     0.000 OA
ENDBRANCH 81 88
ENDBRANCH 76 80
ENDBRANCH 56 76
ENDBRANCH 55 59
ENDBRANCH 39 55
ENDBRANCH 38 42
ENDBRANCH 18 38
ENDBRANCH 17 21
ENDBRANCH 1 17
TORSDOF 18
ENDMDL
MODEL 93
REMARK VINA RESULT:      -4.5     16.100     23.999
ROOT
ATOM      1  C1  IDS C   1     150.049  35.858  87.8430  0.00  0.00     0.000 C
ATOM      2  C2  IDS C   1     148.582  35.552  87.5290  0.00  0.00     0.000 C
ATOM      3  C3  IDS C   1     147.661  36.541  88.2290  0.00  0.00     0.000 C
ATOM      4  C4  IDS C   1     147.872  36.496  89.7360  0.00  0.00     0.000 C
ATOM      5  C5  IDS C   1     149.355  36.336  90.0530  0.00  0.00     0.000 C
ATOM      6  O5  IDS C   1     150.143  36.758  88.9400  0.00  0.00     0.000 O
ATOM      7   O  IDS C   1     146.295  36.238  87.9160  0.00  0.00     0.000 O
ATOM      9  HD  IDS C   1     146.257  35.969  87.0930  0.00  0.00     0.000 HD
ENDROOT
BRANCH 2 9
ATOM      9   O  IDS C   1     148.322  35.654  86.0750  0.00  0.00     0.000 O
ATOM     10   S  IDS C   1     147.749  34.389  85.2910  0.00  0.00     0.000 S
ATOM     11   O  IDS C   1     147.596  34.811  83.9160  0.00  0.00     0.000 OA
ATOM     12   O  IDS C   1     148.742  33.347  85.4540  0.00  0.00     0.000 OA
ATOM     13   O  IDS C   1     146.489  34.070  85.9240  0.00  0.00     0.000 OA
ENDBRANCH 2 9
BRANCH 5 14
ATOM     14   C  IDS C   1     149.772  37.143  91.2710  0.00  0.00     0.000 C
ATOM     15   O  IDS C   1     149.837  38.345  91.1930  0.00  0.00     0.000 OA
ATOM     16   O  IDS C   1     150.038  36.570  92.3140  0.00  0.00     0.000 OA
ENDBRANCH 5 14
BRANCH 1 17
ATOM     17  O4  SGN C   2     151.012  35.830  86.9180  0.00  0.00     0.000 O
BRANCH 17 21
ATOM     18  C1  SGN C   2     154.092  37.502  84.6280  0.00  0.00     0.000 C
ATOM     19  C2  SGN C   2     153.597  38.329  85.8210  0.00  0.00     0.000 C
ATOM     20  C3  SGN C   2     152.804  37.433  86.7810  0.00  0.00     0.000 C
ATOM     21  C4  SGN C   2     151.696  36.707  86.0270  0.00  0.00     0.000 C
ATOM     22  C5  SGN C   2     152.311  35.921  84.8730  0.00  0.00     0.000 C
ATOM     23  O5  SGN C   2     153.029  36.819  83.9970  0.00  0.00     0.000 O
ATOM     24   O  SGN C   2     152.272  38.212  87.8390  0.00  0.00     0.000 O
ATOM     26  HD  SGN C   2     152.656  37.528  87.4730  0.00  0.00     0.000 HD
BRANCH 19 28
ATOM     26   N  SGN C   2     153.963  39.630  86.3990  0.00  0.00     0.000 N
ATOM     28  HD  SGN C   2     153.167  39.484  86.7070  0.00  0.00     0.000 HD
ATOM     28   O  SGN C   2     155.727  41.149  87.2940  0.00  0.00     0.000 OA
ATOM     29   S  SGN C   2     155.043  39.771  87.5820  0.00  0.00     0.000 S
ATOM     30   O  SGN C   2     154.332  39.864  88.7980  0.00  0.00     0.000 OA
ATOM     31   O  SGN C   2     156.008  38.741  87.4100  0.00  0.00     0.000 OA
ENDBRANCH 19 28
BRANCH 22 32
ATOM     32   C  SGN C   2     151.289  35.207  84.0230  0.00  0.00     0.000 C
ATOM     33   S  SGN C   2     151.172  33.956  81.7720  0.00  0.00     0.000 S
ATOM     34   O  SGN C   2     151.193  35.181  81.0120  0.00  0.00     0.000 OA
ATOM     35   O  SGN C   2     151.942  32.887  81.1720  0.00  0.00     0.000 OA
ATOM     36   O  SGN C   2     149.853  33.548  82.1950  0.00  0.00     0.000 OA
ATOM     37   O  SGN C   2     151.952  34.316  83.1190  0.00  0.00     0.000 O
ENDBRANCH 22 32
BRANCH 18 38
ATOM     38  O4  IDS C   3     155.122  36.658  84.5330  0.00  0.00     0.000 O
BRANCH 38 42
ATOM     39  C1  IDS C   3     157.631  34.268  84.8780  0.00  0.00     0.000 C
ATOM     40  C2  IDS C   3     157.643  35.555  85.7180  0.00  0.00     0.000 C
ATOM     41  C3  IDS C   3     157.511  36.794  84.8330  0.00  0.00     0.000 C
ATOM     42  C4  IDS C   3     156.372  36.640  83.8350  0.00  0.00     0.000 C
ATOM     43  C5  IDS C   3     156.525  35.318  83.0720  0.00  0.00     0.000 C
ATOM     44  O5  IDS C   3     156.515  34.238  84.0040  0.00  0.00     0.000 O
ATOM     45   O  IDS C   3     158.738  37.010  84.1350  0.00  0.00     0.000 O
ATOM     47  HD  IDS C   3     159.237  36.533  83.6110  0.00  0.00     0.000 HD
BRANCH 40 47
ATOM     47   O  IDS C   3     156.506  35.565  86.6700  0.00  0.00     0.000 O
ATOM     48   S  IDS C   3     156.768  35.294  88.2240  0.00  0.00     0.000 S
ATOM     49   O  IDS C   3     156.957  33.865  88.3510  0.00  0.00     0.000 OA
ATOM     50   O  IDS C   3     155.574  35.756  88.8970  0.00  0.00     0.000 OA
ATOM     51   O  IDS C   3     157.943  36.045  88.5760  0.00  0.00     0.000 OA
ENDBRANCH 40 47
BRANCH 43 52
ATOM     52   C  IDS C   3     155.441  35.108  82.0390  0.00  0.00     0.000 C
ATOM     53   O  IDS C   3     154.850  34.054  81.9900  0.00  0.00     0.000 OA
ATOM     54   O  IDS C   3     155.170  35.994  81.2690  0.00  0.00     0.000 OA
ENDBRANCH 43 52
BRANCH 39 55
ATOM     55  O4  SGN C   4     158.730  33.705  84.3750  0.00  0.00     0.000 O
BRANCH 55 59
ATOM     56  C1  SGN C   4     158.901  29.572  85.0010  0.00  0.00     0.000 C
ATOM     57  C2  SGN C   4     159.895  30.430  85.8020  0.00  0.00     0.000 C
ATOM     58  C3  SGN C   4     159.476  31.898  85.7890  0.00  0.00     0.000 C
ATOM     59  C4  SGN C   4     159.220  32.372  84.3630  0.00  0.00     0.000 C
ATOM     60  C5  SGN C   4     158.193  31.445  83.7150  0.00  0.00     0.000 C
ATOM     61  O5  SGN C   4     158.736  30.110  83.6990  0.00  0.00     0.000 O
ATOM     62   O  SGN C   4     160.484  32.686  86.4070  0.00  0.00     0.000 O
ATOM     64  HD  SGN C   4     160.555  31.910  86.7840  0.00  0.00     0.000 HD
BRANCH 57 66
ATOM     64   N  SGN C   4     159.901  29.366  86.8190  0.00  0.00     0.000 N
ATOM     66  HD  SGN C   4     160.326  28.623  86.9430  0.00  0.00     0.000 HD
ATOM     66   S  SGN C   4     161.261  28.930  87.5290  0.00  0.00     0.000 S
ATOM     67   O  SGN C   4     160.958  27.855  88.4030  0.00  0.00     0.000 OA
ATOM     68   O  SGN C   4     162.227  28.745  86.5020  0.00  0.00     0.000 OA
ATOM     69   O  SGN C   4     161.659  30.185  88.3700  0.00  0.00     0.000 OA
ENDBRANCH 57 66
BRANCH 60 70
ATOM     70   C  SGN C   4     157.846  31.820  82.2900  0.00  0.00     0.000 C
ATOM     71   O  SGN C   4     159.775  30.937  79.1910  0.00  0.00     0.000 OA
ATOM     72   O  SGN C   4     157.761  29.888  80.0230  0.00  0.00     0.000 OA
ATOM     73   O  SGN C   4     158.928  31.483  81.4010  0.00  0.00     0.000 O
ATOM     74   S  SGN C   4     158.528  31.107  79.9000  0.00  0.00     0.000 S
ATOM     75   O  SGN C   4     157.747  32.235  79.4320  0.00  0.00     0.000 OA
ENDBRANCH 60 70
BRANCH 56 76
ATOM     76  O4  IDS C   5     157.798  28.857  85.2890  0.00  0.00     0.000 O
BRANCH 76 80
ATOM     77  C1  IDS C   5     153.932  27.551  85.3880  0.00  0.00     0.000 C
ATOM     78  C2  IDS C   5     154.095  29.064  85.5290  0.00  0.00     0.000 C
ATOM     79  C3  IDS C   5     155.471  29.481  85.0480  0.00  0.00     0.000 C
ATOM     80  C4  IDS C   5     156.534  28.890  85.9690  0.00  0.00     0.000 C
ATOM     81  C5  IDS C   5     156.114  27.474  86.3890  0.00  0.00     0.000 C
ATOM     82  O5  IDS C   5     155.209  26.914  85.4320  0.00  0.00     0.000 O
BRANCH 78 83
ATOM     83   O  IDS C   5     153.079  29.777  84.7200  0.00  0.00     0.000 O
ATOM     84   S  IDS C   5     152.394  31.099  85.2930  0.00  0.00     0.000 S
ATOM     85   O  IDS C   5     151.971  30.777  86.6300  0.00  0.00     0.000 OA
ATOM     86   O  IDS C   5     153.425  32.109  85.2500  0.00  0.00     0.000 OA
ATOM     87   O  IDS C   5     151.296  31.387  84.4020  0.00  0.00     0.000 OA
ENDBRANCH 78 83
BRANCH 81 88
ATOM     88   C  IDS C   5     157.274  26.508  86.5430  0.00  0.00     0.000 C
ATOM     89   O  IDS C   5     157.327  25.522  85.8570  0.00  0.00     0.000 OA
ATOM     90   O  IDS C   5     158.140  26.736  87.3560  0.00  0.00     0.000 OA
ENDBRANCH 81 88
ENDBRANCH 76 80
ENDBRANCH 56 76
ENDBRANCH 55 59
ENDBRANCH 39 55
ENDBRANCH 38 42
ENDBRANCH 18 38
ENDBRANCH 17 21
ENDBRANCH 1 17
TORSDOF 18
ENDMDL
MODEL 94
REMARK VINA RESULT:      -4.4     24.640     28.689
ROOT
ATOM      1  C1  IDS C   1     164.572  41.929  62.5260  0.00  0.00     0.000 C
ATOM      2  C2  IDS C   1     163.975  40.914  61.5470  0.00  0.00     0.000 C
ATOM      3  C3  IDS C   1     165.059  40.011  60.9770  0.00  0.00     0.000 C
ATOM      4  C4  IDS C   1     166.122  40.833  60.2610  0.00  0.00     0.000 C
ATOM      5  C5  IDS C   1     166.398  42.118  61.0360  0.00  0.00     0.000 C
ATOM      6  O5  IDS C   1     165.987  41.971  62.3950  0.00  0.00     0.000 O
ATOM      7   O  IDS C   1     164.476  39.067  60.0670  0.00  0.00     0.000 O
ATOM      9  HD  IDS C   1     163.700  38.836  60.3760  0.00  0.00     0.000 HD
ENDROOT
BRANCH 2 9
ATOM      9   O  IDS C   1     162.984  40.048  62.2250  0.00  0.00     0.000 O
ATOM     10   S  IDS C   1     161.547  39.839  61.5670  0.00  0.00     0.000 S
ATOM     11   O  IDS C   1     160.832  38.945  62.4510  0.00  0.00     0.000 OA
ATOM     12   O  IDS C   1     160.953  41.158  61.4990  0.00  0.00     0.000 OA
ATOM     13   O  IDS C   1     161.789  39.263  60.2620  0.00  0.00     0.000 OA
ENDBRANCH 2 9
BRANCH 5 14
ATOM     14   C  IDS C   1     167.870  42.494  61.0160  0.00  0.00     0.000 C
ATOM     15   O  IDS C   1     168.207  43.552  60.5420  0.00  0.00     0.000 OA
ATOM     16   O  IDS C   1     168.698  41.725  61.4760  0.00  0.00     0.000 OA
ENDBRANCH 5 14
BRANCH 1 17
ATOM     17  O4  SGN C   2     164.001  42.236  63.6940  0.00  0.00     0.000 O
BRANCH 17 21
ATOM     18  C1  SGN C   2     163.395  41.985  67.8280  0.00  0.00     0.000 C
ATOM     19  C2  SGN C   2     164.735  41.462  67.2980  0.00  0.00     0.000 C
ATOM     20  C3  SGN C   2     164.978  41.998  65.8810  0.00  0.00     0.000 C
ATOM     21  C4  SGN C   2     163.788  41.674  64.9860  0.00  0.00     0.000 C
ATOM     22  C5  SGN C   2     162.522  42.248  65.6140  0.00  0.00     0.000 C
ATOM     23  O5  SGN C   2     162.338  41.694  66.9380  0.00  0.00     0.000 O
ATOM     24   O  SGN C   2     166.174  41.446  65.3560  0.00  0.00     0.000 O
ATOM     26  HD  SGN C   2     165.590  42.065  65.5200  0.00  0.00     0.000 HD
BRANCH 19 28
ATOM     26   N  SGN C   2     165.640  41.645  68.4410  0.00  0.00     0.000 N
ATOM     28  HD  SGN C   2     164.854  41.788  68.7750  0.00  0.00     0.000 HD
ATOM     28   O  SGN C   2     167.744  41.014  69.6230  0.00  0.00     0.000 OA
ATOM     29   S  SGN C   2     166.376  40.409  69.1600  0.00  0.00     0.000 S
ATOM     30   O  SGN C   2     165.620  40.071  70.3050  0.00  0.00     0.000 OA
ATOM     31   O  SGN C   2     166.629  39.421  68.1690  0.00  0.00     0.000 OA
ENDBRANCH 19 28
BRANCH 22 32
ATOM     32   C  SGN C   2     161.270  41.932  64.8330  0.00  0.00     0.000 C
ATOM     33   S  SGN C   2     159.120  43.120  64.0540  0.00  0.00     0.000 S
ATOM     34   O  SGN C   2     158.521  43.043  65.3620  0.00  0.00     0.000 OA
ATOM     35   O  SGN C   2     158.848  44.364  63.3630  0.00  0.00     0.000 OA
ATOM     36   O  SGN C   2     158.903  41.950  63.2360  0.00  0.00     0.000 OA
ATOM     37   O  SGN C   2     160.690  43.146  64.3410  0.00  0.00     0.000 O
ENDBRANCH 22 32
BRANCH 18 38
ATOM     38  O4  IDS C   3     163.075  43.179  68.3320  0.00  0.00     0.000 O
BRANCH 38 42
ATOM     39  C1  IDS C   3     160.036  44.682  69.1290  0.00  0.00     0.000 C
ATOM     40  C2  IDS C   3     161.246  45.524  68.6960  0.00  0.00     0.000 C
ATOM     41  C3  IDS C   3     162.482  45.187  69.5300  0.00  0.00     0.000 C
ATOM     42  C4  IDS C   3     162.692  43.681  69.6170  0.00  0.00     0.000 C
ATOM     43  C5  IDS C   3     161.398  43.002  70.0800  0.00  0.00     0.000 C
ATOM     44  O5  IDS C   3     160.356  43.301  69.1530  0.00  0.00     0.000 O
ATOM     45   O  IDS C   3     162.329  45.729  70.8430  0.00  0.00     0.000 O
ATOM     47  HD  IDS C   3     161.732  45.663  71.4670  0.00  0.00     0.000 HD
BRANCH 40 47
ATOM     47   O  IDS C   3     161.582  45.261  67.2760  0.00  0.00     0.000 O
ATOM     48   S  IDS C   3     161.187  46.330  66.1540  0.00  0.00     0.000 S
ATOM     49   O  IDS C   3     159.768  46.159  65.9250  0.00  0.00     0.000 OA
ATOM     50   O  IDS C   3     161.979  45.977  64.9970  0.00  0.00     0.000 OA
ATOM     51   O  IDS C   3     161.514  47.624  66.6910  0.00  0.00     0.000 OA
ENDBRANCH 40 47
BRANCH 43 52
ATOM     52   C  IDS C   3     161.540  41.502  70.2180  0.00  0.00     0.000 C
ATOM     53   O  IDS C   3     160.763  40.768  69.6530  0.00  0.00     0.000 OA
ATOM     54   O  IDS C   3     162.430  41.046  70.8900  0.00  0.00     0.000 OA
ENDBRANCH 43 52
BRANCH 39 55
ATOM     55  O4  SGN C   4     159.176  45.056  70.0770  0.00  0.00     0.000 O
BRANCH 55 59
ATOM     56  C1  SGN C   4     155.248  43.629  69.8850  0.00  0.00     0.000 C
ATOM     57  C2  SGN C   4     155.633  44.721  68.8720  0.00  0.00     0.000 C
ATOM     58  C3  SGN C   4     157.150  44.864  68.7800  0.00  0.00     0.000 C
ATOM     59  C4  SGN C   4     157.759  45.030  70.1680  0.00  0.00     0.000 C
ATOM     60  C5  SGN C   4     157.315  43.859  71.0420  0.00  0.00     0.000 C
ATOM     61  O5  SGN C   4     155.876  43.881  71.1310  0.00  0.00     0.000 O
ATOM     62   O  SGN C   4     157.474  45.975  67.9540  0.00  0.00     0.000 O
ATOM     64  HD  SGN C   4     156.708  45.700  67.6570  0.00  0.00     0.000 HD
BRANCH 57 66
ATOM     64   N  SGN C   4     155.064  45.529  67.7810  0.00  0.00     0.000 N
ATOM     66  HD  SGN C   4     154.756  45.378  66.9860  0.00  0.00     0.000 HD
ATOM     66   S  SGN C   4     153.645  45.159  67.1520  0.00  0.00     0.000 S
ATOM     67   O  SGN C   4     153.398  46.070  66.0950  0.00  0.00     0.000 OA
ATOM     68   O  SGN C   4     153.660  43.763  66.8830  0.00  0.00     0.000 OA
ATOM     69   O  SGN C   4     152.640  45.432  68.3180  0.00  0.00     0.000 OA
ENDBRANCH 57 66
BRANCH 60 70
ATOM     70   C  SGN C   4     157.866  43.905  72.4510  0.00  0.00     0.000 C
ATOM     71   O  SGN C   4     160.950  42.180  73.7240  0.00  0.00     0.000 OA
ATOM     72   O  SGN C   4     160.707  44.508  73.1190  0.00  0.00     0.000 OA
ATOM     73   O  SGN C   4     158.938  42.955  72.6050  0.00  0.00     0.000 O
ATOM     74   S  SGN C   4     160.075  43.328  73.6650  0.00  0.00     0.000 S
ATOM     75   O  SGN C   4     159.362  43.576  74.9020  0.00  0.00     0.000 OA
ENDBRANCH 60 70
BRANCH 56 76
ATOM     76  O4  IDS C   5     154.979  42.312  69.8230  0.00  0.00     0.000 O
BRANCH 76 80
ATOM     77  C1  IDS C   5     153.690  40.907  73.4320  0.00  0.00     0.000 C
ATOM     78  C2  IDS C   5     154.805  40.081  72.7910  0.00  0.00     0.000 C
ATOM     79  C3  IDS C   5     155.499  40.898  71.7190  0.00  0.00     0.000 C
ATOM     80  C4  IDS C   5     154.524  41.181  70.5800  0.00  0.00     0.000 C
ATOM     81  C5  IDS C   5     153.128  41.450  71.1610  0.00  0.00     0.000 C
ATOM     82  O5  IDS C   5     153.226  41.899  72.5160  0.00  0.00     0.000 O
BRANCH 78 83
ATOM     83   O  IDS C   5     155.811  39.685  73.8040  0.00  0.00     0.000 O
ATOM     84   S  IDS C   5     156.400  38.203  73.8000  0.00  0.00     0.000 S
ATOM     85   O  IDS C   5     155.262  37.326  73.7160  0.00  0.00     0.000 OA
ATOM     86   O  IDS C   5     157.254  38.138  72.6370  0.00  0.00     0.000 OA
ATOM     87   O  IDS C   5     157.132  38.070  75.0360  0.00  0.00     0.000 OA
ENDBRANCH 78 83
BRANCH 81 88
ATOM     88   C  IDS C   5     152.331  42.488  70.3920  0.00  0.00     0.000 C
ATOM     89   O  IDS C   5     151.987  42.262  69.2620  0.00  0.00     0.000 OA
ATOM     90   O  IDS C   5     152.046  43.537  70.9210  0.00  0.00     0.000 OA
ENDBRANCH 81 88
ENDBRANCH 76 80
ENDBRANCH 56 76
ENDBRANCH 55 59
ENDBRANCH 39 55
ENDBRANCH 38 42
ENDBRANCH 18 38
ENDBRANCH 17 21
ENDBRANCH 1 17
TORSDOF 18
ENDMDL
MODEL 95
REMARK VINA RESULT:      -4.4     30.718     37.067
ROOT
ATOM      1  C1  IDS C   1     159.326  53.378  64.0480  0.00  0.00     0.000 C
ATOM      2  C2  IDS C   1     159.629  54.775  63.5010  0.00  0.00     0.000 C
ATOM      3  C3  IDS C   1     161.054  54.851  62.9730  0.00  0.00     0.000 C
ATOM      4  C4  IDS C   1     162.053  54.515  64.0720  0.00  0.00     0.000 C
ATOM      5  C5  IDS C   1     161.519  53.374  64.9330  0.00  0.00     0.000 C
ATOM      6  O5  IDS C   1     160.529  52.638  64.2140  0.00  0.00     0.000 O
ATOM      7   O  IDS C   1     161.313  56.167  62.4620  0.00  0.00     0.000 O
ATOM      9  HD  IDS C   1     160.590  56.459  62.0840  0.00  0.00     0.000 HD
ENDROOT
BRANCH 2 9
ATOM      9   O  IDS C   1     158.720  55.112  62.3820  0.00  0.00     0.000 O
ATOM     10   S  IDS C   1     157.839  56.439  62.4600  0.00  0.00     0.000 S
ATOM     11   O  IDS C   1     157.084  56.486  61.2280  0.00  0.00     0.000 OA
ATOM     12   O  IDS C   1     157.001  56.282  63.6310  0.00  0.00     0.000 OA
ATOM     13   O  IDS C   1     158.780  57.530  62.5830  0.00  0.00     0.000 OA
ENDBRANCH 2 9
BRANCH 5 14
ATOM     14   C  IDS C   1     162.617  52.415  65.3580  0.00  0.00     0.000 C
ATOM     15   O  IDS C   1     162.472  51.230  65.1830  0.00  0.00     0.000 OA
ATOM     16   O  IDS C   1     163.634  52.849  65.8740  0.00  0.00     0.000 OA
ENDBRANCH 5 14
BRANCH 1 17
ATOM     17  O4  SGN C   2     158.177  52.738  63.8140  0.00  0.00     0.000 O
BRANCH 17 21
ATOM     18  C1  SGN C   2     155.781  49.770  62.0890  0.00  0.00     0.000 C
ATOM     19  C2  SGN C   2     157.297  49.552  62.0240  0.00  0.00     0.000 C
ATOM     20  C3  SGN C   2     157.997  50.465  63.0380  0.00  0.00     0.000 C
ATOM     21  C4  SGN C   2     157.570  51.912  62.8230  0.00  0.00     0.000 C
ATOM     22  C5  SGN C   2     156.049  52.001  62.9150  0.00  0.00     0.000 C
ATOM     23  O5  SGN C   2     155.448  51.133  61.9270  0.00  0.00     0.000 O
ATOM     24   O  SGN C   2     159.403  50.329  62.9190  0.00  0.00     0.000 O
ATOM     26  HD  SGN C   2     158.646  50.406  63.3310  0.00  0.00     0.000 HD
BRANCH 19 28
ATOM     26   N  SGN C   2     157.374  48.106  61.7700  0.00  0.00     0.000 N
ATOM     28  HD  SGN C   2     156.645  48.348  61.3690  0.00  0.00     0.000 HD
ATOM     28   O  SGN C   2     158.769  46.077  61.3740  0.00  0.00     0.000 OA
ATOM     29   S  SGN C   2     158.434  47.470  60.7420  0.00  0.00     0.000 S
ATOM     30   O  SGN C   2     157.765  47.260  59.5160  0.00  0.00     0.000 OA
ATOM     31   O  SGN C   2     159.605  48.277  60.7750  0.00  0.00     0.000 OA
ENDBRANCH 19 28
BRANCH 22 32
ATOM     32   C  SGN C   2     155.514  53.389  62.6590  0.00  0.00     0.000 C
ATOM     33   S  SGN C   2     153.748  54.542  61.1770  0.00  0.00     0.000 S
ATOM     34   O  SGN C   2     154.584  54.469  60.0050  0.00  0.00     0.000 OA
ATOM     35   O  SGN C   2     152.346  54.302  60.9070  0.00  0.00     0.000 OA
ATOM     36   O  SGN C   2     153.985  55.707  61.9970  0.00  0.00     0.000 OA
ATOM     37   O  SGN C   2     154.211  53.302  62.0690  0.00  0.00     0.000 O
ENDBRANCH 22 32
BRANCH 18 38
ATOM     38  O4  IDS C   3     154.882  49.319  62.9670  0.00  0.00     0.000 O
BRANCH 38 42
ATOM     39  C1  IDS C   3     153.460  47.447  65.5360  0.00  0.00     0.000 C
ATOM     40  C2  IDS C   3     154.404  46.797  64.5120  0.00  0.00     0.000 C
ATOM     41  C3  IDS C   3     153.956  47.095  63.0810  0.00  0.00     0.000 C
ATOM     42  C4  IDS C   3     153.660  48.577  62.8940  0.00  0.00     0.000 C
ATOM     43  C5  IDS C   3     152.692  49.054  63.9830  0.00  0.00     0.000 C
ATOM     44  O5  IDS C   3     153.280  48.826  65.2630  0.00  0.00     0.000 O
ATOM     45   O  IDS C   3     152.789  46.328  62.7810  0.00  0.00     0.000 O
ATOM     47  HD  IDS C   3     152.007  46.237  63.1420  0.00  0.00     0.000 HD
BRANCH 40 47
ATOM     47   O  IDS C   3     155.781  47.323  64.6660  0.00  0.00     0.000 O
ATOM     48   S  IDS C   3     156.991  46.316  64.9440  0.00  0.00     0.000 S
ATOM     49   O  IDS C   3     156.894  45.955  66.3420  0.00  0.00     0.000 OA
ATOM     50   O  IDS C   3     158.189  47.070  64.6490  0.00  0.00     0.000 OA
ATOM     51   O  IDS C   3     156.797  45.195  64.0640  0.00  0.00     0.000 OA
ENDBRANCH 40 47
BRANCH 43 52
ATOM     52   C  IDS C   3     152.328  50.516  63.8440  0.00  0.00     0.000 C
ATOM     53   O  IDS C   3     152.469  51.264  64.7840  0.00  0.00     0.000 OA
ATOM     54   O  IDS C   3     151.900  50.928  62.7960  0.00  0.00     0.000 OA
ENDBRANCH 43 52
BRANCH 39 55
ATOM     55  O4  SGN C   4     152.376  46.845  66.0280  0.00  0.00     0.000 O
BRANCH 55 59
ATOM     56  C1  SGN C   4     150.187  45.075  69.1220  0.00  0.00     0.000 C
ATOM     57  C2  SGN C   4     150.191  46.613  69.0750  0.00  0.00     0.000 C
ATOM     58  C3  SGN C   4     150.672  47.112  67.7150  0.00  0.00     0.000 C
ATOM     59  C4  SGN C   4     151.994  46.453  67.3380  0.00  0.00     0.000 C
ATOM     60  C5  SGN C   4     151.821  44.936  67.3980  0.00  0.00     0.000 C
ATOM     61  O5  SGN C   4     151.459  44.575  68.7460  0.00  0.00     0.000 O
ATOM     62   O  SGN C   4     150.808  48.526  67.7480  0.00  0.00     0.000 O
ATOM     64  HD  SGN C   4     150.189  48.354  68.3290  0.00  0.00     0.000 HD
BRANCH 57 66
ATOM     64   N  SGN C   4     149.080  46.412  70.0190  0.00  0.00     0.000 N
ATOM     66  HD  SGN C   4     148.946  46.545  70.8650  0.00  0.00     0.000 HD
ATOM     66   S  SGN C   4     148.553  47.619  70.9210  0.00  0.00     0.000 S
ATOM     67   O  SGN C   4     147.532  47.108  71.7610  0.00  0.00     0.000 OA
ATOM     68   O  SGN C   4     149.696  48.233  71.5030  0.00  0.00     0.000 OA
ATOM     69   O  SGN C   4     147.926  48.608  69.8870  0.00  0.00     0.000 OA
ENDBRANCH 57 66
BRANCH 60 70
ATOM     70   C  SGN C   4     153.071  44.165  67.0320  0.00  0.00     0.000 C
ATOM     71   O  SGN C   4     156.196  43.828  69.0870  0.00  0.00     0.000 OA
ATOM     72   O  SGN C   4     154.418  42.209  68.8320  0.00  0.00     0.000 OA
ATOM     73   O  SGN C   4     154.127  44.440  67.9720  0.00  0.00     0.000 O
ATOM     74   S  SGN C   4     155.187  43.268  68.2190  0.00  0.00     0.000 S
ATOM     75   O  SGN C   4     155.682  42.932  66.8990  0.00  0.00     0.000 OA
ENDBRANCH 60 70
BRANCH 56 76
ATOM     76  O4  IDS C   5     149.282  44.108  68.8820  0.00  0.00     0.000 O
BRANCH 76 80
ATOM     77  C1  IDS C   5     146.464  41.458  67.5790  0.00  0.00     0.000 C
ATOM     78  C2  IDS C   5     147.743  40.813  68.1140  0.00  0.00     0.000 C
ATOM     79  C3  IDS C   5     148.511  41.813  68.9550  0.00  0.00     0.000 C
ATOM     80  C4  IDS C   5     148.995  42.959  68.0710  0.00  0.00     0.000 C
ATOM     81  C5  IDS C   5     147.915  43.291  67.0320  0.00  0.00     0.000 C
ATOM     82  O5  IDS C   5     146.627  42.874  67.4940  0.00  0.00     0.000 O
BRANCH 78 83
ATOM     83   O  IDS C   5     147.423  39.638  68.9580  0.00  0.00     0.000 O
ATOM     84   S  IDS C   5     147.731  38.168  68.4210  0.00  0.00     0.000 S
ATOM     85   O  IDS C   5     147.187  38.111  67.0910  0.00  0.00     0.000 OA
ATOM     86   O  IDS C   5     149.170  38.048  68.4520  0.00  0.00     0.000 OA
ATOM     87   O  IDS C   5     147.078  37.271  69.3420  0.00  0.00     0.000 OA
ENDBRANCH 78 83
BRANCH 81 88
ATOM     88   C  IDS C   5     147.822  44.768  66.6910  0.00  0.00     0.000 C
ATOM     89   O  IDS C   5     146.974  45.448  67.2040  0.00  0.00     0.000 OA
ATOM     90   O  IDS C   5     148.604  45.251  65.9050  0.00  0.00     0.000 OA
ENDBRANCH 81 88
ENDBRANCH 76 80
ENDBRANCH 56 76
ENDBRANCH 55 59
ENDBRANCH 39 55
ENDBRANCH 38 42
ENDBRANCH 18 38
ENDBRANCH 17 21
ENDBRANCH 1 17
TORSDOF 18
ENDMDL
MODEL 96
REMARK VINA RESULT:      -4.4     15.607     21.872
ROOT
ATOM      1  C1  IDS C   1     157.789  29.699  85.0830  0.00  0.00     0.000 C
ATOM      2  C2  IDS C   1     158.697  29.218  86.2180  0.00  0.00     0.000 C
ATOM      3  C3  IDS C   1     158.870  27.706  86.1680  0.00  0.00     0.000 C
ATOM      4  C4  IDS C   1     157.521  27.009  86.2730  0.00  0.00     0.000 C
ATOM      5  C5  IDS C   1     156.470  27.777  85.4780  0.00  0.00     0.000 C
ATOM      6  O5  IDS C   1     157.102  28.601  84.4980  0.00  0.00     0.000 O
ATOM      7   O  IDS C   1     159.727  27.280  87.2360  0.00  0.00     0.000 O
ATOM      9  HD  IDS C   1     160.340  27.881  87.3490  0.00  0.00     0.000 HD
ENDROOT
BRANCH 2 9
ATOM      9   O  IDS C   1     160.044  29.824  86.1090  0.00  0.00     0.000 O
ATOM     10   S  IDS C   1     160.695  30.519  87.3880  0.00  0.00     0.000 S
ATOM     11   O  IDS C   1     161.994  30.992  86.9630  0.00  0.00     0.000 OA
ATOM     12   O  IDS C   1     159.794  31.595  87.7480  0.00  0.00     0.000 OA
ATOM     13   O  IDS C   1     160.776  29.489  88.3990  0.00  0.00     0.000 OA
ENDBRANCH 2 9
BRANCH 5 14
ATOM     14   C  IDS C   1     155.495  26.850  84.7710  0.00  0.00     0.000 C
ATOM     15   O  IDS C   1     154.340  26.828  85.1190  0.00  0.00     0.000 OA
ATOM     16   O  IDS C   1     155.888  26.138  83.8630  0.00  0.00     0.000 OA
ENDBRANCH 5 14
BRANCH 1 17
ATOM     17  O4  SGN C   2     158.052  30.787  84.3530  0.00  0.00     0.000 O
BRANCH 17 21
ATOM     18  C1  SGN C   2     159.587  32.973  81.1300  0.00  0.00     0.000 C
ATOM     19  C2  SGN C   2     159.282  31.492  80.8720  0.00  0.00     0.000 C
ATOM     20  C3  SGN C   2     158.356  30.954  81.9700  0.00  0.00     0.000 C
ATOM     21  C4  SGN C   2     158.954  31.234  83.3440  0.00  0.00     0.000 C
ATOM     22  C5  SGN C   2     159.207  32.732  83.4810  0.00  0.00     0.000 C
ATOM     23  O5  SGN C   2     160.097  33.176  82.4310  0.00  0.00     0.000 O
ATOM     24   O  SGN C   2     158.142  29.565  81.7830  0.00  0.00     0.000 O
ATOM     26  HD  SGN C   2     157.926  30.384  81.9630  0.00  0.00     0.000 HD
BRANCH 19 28
ATOM     26   N  SGN C   2     159.121  31.469  79.4120  0.00  0.00     0.000 N
ATOM     28  HD  SGN C   2     159.610  32.170  79.5540  0.00  0.00     0.000 HD
ATOM     28   O  SGN C   2     158.864  30.149  77.3110  0.00  0.00     0.000 OA
ATOM     29   S  SGN C   2     159.875  30.396  78.4810  0.00  0.00     0.000 S
ATOM     30   O  SGN C   2     161.028  31.022  77.9580  0.00  0.00     0.000 OA
ATOM     31   O  SGN C   2     160.006  29.193  79.2280  0.00  0.00     0.000 OA
ENDBRANCH 19 28
BRANCH 22 32
ATOM     32   C  SGN C   2     159.855  33.112  84.7900  0.00  0.00     0.000 C
ATOM     33   S  SGN C   2     161.751  34.635  85.6450  0.00  0.00     0.000 S
ATOM     34   O  SGN C   2     162.775  33.717  85.2140  0.00  0.00     0.000 OA
ATOM     35   O  SGN C   2     162.095  36.027  85.4420  0.00  0.00     0.000 OA
ATOM     36   O  SGN C   2     161.228  34.358  86.9620  0.00  0.00     0.000 OA
ATOM     37   O  SGN C   2     160.535  34.365  84.6460  0.00  0.00     0.000 O
ENDBRANCH 22 32
BRANCH 18 38
ATOM     38  O4  IDS C   3     158.846  34.058  80.8990  0.00  0.00     0.000 O
BRANCH 38 42
ATOM     39  C1  IDS C   3     157.156  36.819  79.6140  0.00  0.00     0.000 C
ATOM     40  C2  IDS C   3     158.688  36.722  79.5370  0.00  0.00     0.000 C
ATOM     41  C3  IDS C   3     159.293  36.428  80.9100  0.00  0.00     0.000 C
ATOM     42  C4  IDS C   3     158.568  35.278  81.5960  0.00  0.00     0.000 C
ATOM     43  C5  IDS C   3     157.058  35.545  81.6020  0.00  0.00     0.000 C
ATOM     44  O5  IDS C   3     156.603  35.683  80.2570  0.00  0.00     0.000 O
ATOM     45   O  IDS C   3     159.214  37.601  81.7220  0.00  0.00     0.000 O
ATOM     47  HD  IDS C   3     158.576  38.129  81.9750  0.00  0.00     0.000 HD
BRANCH 40 47
ATOM     47   O  IDS C   3     159.095  35.625  78.6270  0.00  0.00     0.000 O
ATOM     48   S  IDS C   3     158.824  35.752  77.0560  0.00  0.00     0.000 S
ATOM     49   O  IDS C   3     157.414  35.479  76.8740  0.00  0.00     0.000 OA
ATOM     50   O  IDS C   3     159.666  34.749  76.4420  0.00  0.00     0.000 OA
ATOM     51   O  IDS C   3     159.183  37.096  76.6890  0.00  0.00     0.000 OA
ENDBRANCH 40 47
BRANCH 43 52
ATOM     52   C  IDS C   3     156.273  34.454  82.2950  0.00  0.00     0.000 C
ATOM     53   O  IDS C   3     156.245  34.405  83.5030  0.00  0.00     0.000 OA
ATOM     54   O  IDS C   3     155.678  33.638  81.6380  0.00  0.00     0.000 OA
ENDBRANCH 43 52
BRANCH 39 55
ATOM     55  O4  SGN C   4     156.499  37.953  79.8560  0.00  0.00     0.000 O
BRANCH 55 59
ATOM     56  C1  SGN C   4     155.889  40.310  76.4530  0.00  0.00     0.000 C
ATOM     57  C2  SGN C   4     156.608  40.982  77.6360  0.00  0.00     0.000 C
ATOM     58  C3  SGN C   4     157.113  39.937  78.6280  0.00  0.00     0.000 C
ATOM     59  C4  SGN C   4     155.991  38.981  79.0170  0.00  0.00     0.000 C
ATOM     60  C5  SGN C   4     155.403  38.371  77.7460  0.00  0.00     0.000 C
ATOM     61  O5  SGN C   4     154.877  39.440  76.9330  0.00  0.00     0.000 O
ATOM     62   O  SGN C   4     157.639  40.587  79.7770  0.00  0.00     0.000 O
ATOM     64  HD  SGN C   4     157.754  41.156  79.1340  0.00  0.00     0.000 HD
BRANCH 57 66
ATOM     64   N  SGN C   4     156.344  42.262  76.9590  0.00  0.00     0.000 N
ATOM     66  HD  SGN C   4     156.357  43.100  77.1790  0.00  0.00     0.000 HD
ATOM     66   S  SGN C   4     157.435  43.427  76.9720  0.00  0.00     0.000 S
ATOM     67   O  SGN C   4     156.874  44.542  76.3010  0.00  0.00     0.000 OA
ATOM     68   O  SGN C   4     157.876  43.570  78.3170  0.00  0.00     0.000 OA
ATOM     69   O  SGN C   4     158.608  42.845  76.1200  0.00  0.00     0.000 OA
ENDBRANCH 57 66
BRANCH 60 70
ATOM     70   C  SGN C   4     154.280  37.390  78.0020  0.00  0.00     0.000 C
ATOM     71   O  SGN C   4     151.044  38.080  79.7810  0.00  0.00     0.000 OA
ATOM     72   O  SGN C   4     151.412  37.930  77.3950  0.00  0.00     0.000 OA
ATOM     73   O  SGN C   4     153.301  37.964  78.8910  0.00  0.00     0.000 O
ATOM     74   S  SGN C   4     151.793  37.464  78.7100  0.00  0.00     0.000 S
ATOM     75   O  SGN C   4     151.866  36.020  78.8110  0.00  0.00     0.000 OA
ENDBRANCH 60 70
BRANCH 56 76
ATOM     76  O4  IDS C   5     156.245  39.883  75.2280  0.00  0.00     0.000 O
BRANCH 76 80
ATOM     77  C1  IDS C   5     159.195  38.138  73.0120  0.00  0.00     0.000 C
ATOM     78  C2  IDS C   5     159.569  39.494  73.6100  0.00  0.00     0.000 C
ATOM     79  C3  IDS C   5     158.617  39.839  74.7380  0.00  0.00     0.000 C
ATOM     80  C4  IDS C   5     157.211  40.037  74.1770  0.00  0.00     0.000 C
ATOM     81  C5  IDS C   5     156.959  39.012  73.0620  0.00  0.00     0.000 C
ATOM     82  O5  IDS C   5     157.809  37.872  73.2260  0.00  0.00     0.000 O
BRANCH 78 83
ATOM     83   O  IDS C   5     160.947  39.465  74.1530  0.00  0.00     0.000 O
ATOM     84   S  IDS C   5     161.971  40.629  73.7780  0.00  0.00     0.000 S
ATOM     85   O  IDS C   5     161.897  40.777  72.3500  0.00  0.00     0.000 OA
ATOM     86   O  IDS C   5     161.501  41.792  74.4950  0.00  0.00     0.000 OA
ATOM     87   O  IDS C   5     163.262  40.177  74.2380  0.00  0.00     0.000 OA
ENDBRANCH 78 83
BRANCH 81 88
ATOM     88   C  IDS C   5     155.528  38.510  73.0000  0.00  0.00     0.000 C
ATOM     89   O  IDS C   5     155.254  37.426  73.4400  0.00  0.00     0.000 OA
ATOM     90   O  IDS C   5     154.671  39.206  72.5060  0.00  0.00     0.000 OA
ENDBRANCH 81 88
ENDBRANCH 76 80
ENDBRANCH 56 76
ENDBRANCH 55 59
ENDBRANCH 39 55
ENDBRANCH 38 42
ENDBRANCH 18 38
ENDBRANCH 17 21
ENDBRANCH 1 17
TORSDOF 18
ENDMDL
MODEL 97
REMARK VINA RESULT:      -4.4     52.513     56.911
ROOT
ATOM      1  C1  IDS C   1     122.839  46.442  52.0990  0.00  0.00     0.000 C
ATOM      2  C2  IDS C   1     122.098  46.054  53.3820  0.00  0.00     0.000 C
ATOM      3  C3  IDS C   1     120.853  45.241  53.0630  0.00  0.00     0.000 C
ATOM      4  C4  IDS C   1     119.914  46.028  52.1600  0.00  0.00     0.000 C
ATOM      5  C5  IDS C   1     120.716  46.807  51.1220  0.00  0.00     0.000 C
ATOM      6  O5  IDS C   1     122.010  46.225  50.9640  0.00  0.00     0.000 O
ATOM      7   O  IDS C   1     120.180  44.886  54.2790  0.00  0.00     0.000 O
ATOM      9  HD  IDS C   1     120.778  44.725  54.8840  0.00  0.00     0.000 HD
ENDROOT
BRANCH 2 9
ATOM      9   O  IDS C   1     122.959  45.228  54.2580  0.00  0.00     0.000 O
ATOM     10   S  IDS C   1     123.185  45.666  55.7750  0.00  0.00     0.000 S
ATOM     11   O  IDS C   1     124.047  44.660  56.3540  0.00  0.00     0.000 OA
ATOM     12   O  IDS C   1     123.805  46.973  55.7140  0.00  0.00     0.000 OA
ATOM     13   O  IDS C   1     121.870  45.693  56.3780  0.00  0.00     0.000 OA
ENDBRANCH 2 9
BRANCH 5 14
ATOM     14   C  IDS C   1     120.031  46.831  49.7670  0.00  0.00     0.000 C
ATOM     15   O  IDS C   1     120.426  47.589  48.9150  0.00  0.00     0.000 OA
ATOM     16   O  IDS C   1     119.087  46.089  49.5520  0.00  0.00     0.000 OA
ENDBRANCH 5 14
BRANCH 1 17
ATOM     17  O4  SGN C   2     124.167  46.376  51.9780  0.00  0.00     0.000 O
BRANCH 17 21
ATOM     18  C1  SGN C   2     127.790  44.780  50.6160  0.00  0.00     0.000 C
ATOM     19  C2  SGN C   2     126.525  44.355  49.8600  0.00  0.00     0.000 C
ATOM     20  C3  SGN C   2     125.378  45.320  50.1830  0.00  0.00     0.000 C
ATOM     21  C4  SGN C   2     125.192  45.427  51.6920  0.00  0.00     0.000 C
ATOM     22  C5  SGN C   2     126.510  45.859  52.3270  0.00  0.00     0.000 C
ATOM     23  O5  SGN C   2     127.546  44.904  52.0010  0.00  0.00     0.000 O
ATOM     24   O  SGN C   2     124.186  44.880  49.5550  0.00  0.00     0.000 O
ATOM     26  HD  SGN C   2     124.779  45.453  49.8180  0.00  0.00     0.000 HD
BRANCH 19 28
ATOM     26   N  SGN C   2     126.821  44.233  48.4250  0.00  0.00     0.000 N
ATOM     28  HD  SGN C   2     127.473  44.715  48.7300  0.00  0.00     0.000 HD
ATOM     28   O  SGN C   2     126.731  42.879  46.3320  0.00  0.00     0.000 OA
ATOM     29   S  SGN C   2     127.350  42.863  47.7710  0.00  0.00     0.000 S
ATOM     30   O  SGN C   2     128.755  42.959  47.6600  0.00  0.00     0.000 OA
ATOM     31   O  SGN C   2     126.774  41.787  48.5000  0.00  0.00     0.000 OA
ENDBRANCH 19 28
BRANCH 22 32
ATOM     32   C  SGN C   2     126.451  45.939  53.8330  0.00  0.00     0.000 C
ATOM     33   S  SGN C   2     128.047  45.756  55.8480  0.00  0.00     0.000 S
ATOM     34   O  SGN C   2     128.101  44.319  55.7620  0.00  0.00     0.000 OA
ATOM     35   O  SGN C   2     129.316  46.366  56.1890  0.00  0.00     0.000 OA
ATOM     36   O  SGN C   2     126.940  46.258  56.6280  0.00  0.00     0.000 OA
ATOM     37   O  SGN C   2     127.754  46.229  54.3520  0.00  0.00     0.000 O
ENDBRANCH 22 32
BRANCH 18 38
ATOM     38  O4  IDS C   3     128.666  45.753  50.3520  0.00  0.00     0.000 O
BRANCH 38 42
ATOM     39  C1  IDS C   3     131.326  47.845  49.5300  0.00  0.00     0.000 C
ATOM     40  C2  IDS C   3     130.933  47.602  50.9960  0.00  0.00     0.000 C
ATOM     41  C3  IDS C   3     129.444  47.864  51.2200  0.00  0.00     0.000 C
ATOM     42  C4  IDS C   3     128.597  47.170  50.1620  0.00  0.00     0.000 C
ATOM     43  C5  IDS C   3     129.112  47.535  48.7640  0.00  0.00     0.000 C
ATOM     44  O5  IDS C   3     130.475  47.132  48.6480  0.00  0.00     0.000 O
ATOM     45   O  IDS C   3     129.201  49.271  51.1860  0.00  0.00     0.000 O
ATOM     47  HD  IDS C   3     129.357  49.906  50.6180  0.00  0.00     0.000 HD
BRANCH 40 47
ATOM     47   O  IDS C   3     131.200  46.196  51.3810  0.00  0.00     0.000 O
ATOM     48   S  IDS C   3     132.504  45.839  52.2350  0.00  0.00     0.000 S
ATOM     49   O  IDS C   3     133.611  45.871  51.3030  0.00  0.00     0.000 OA
ATOM     50   O  IDS C   3     132.262  44.513  52.7610  0.00  0.00     0.000 OA
ATOM     51   O  IDS C   3     132.608  46.844  53.2590  0.00  0.00     0.000 OA
ENDBRANCH 40 47
BRANCH 43 52
ATOM     52   C  IDS C   3     128.299  46.902  47.6570  0.00  0.00     0.000 C
ATOM     53   O  IDS C   3     128.835  46.170  46.8580  0.00  0.00     0.000 OA
ATOM     54   O  IDS C   3     127.119  47.131  47.5760  0.00  0.00     0.000 OA
ENDBRANCH 43 52
BRANCH 39 55
ATOM     55  O4  SGN C   4     131.730  49.025  49.0590  0.00  0.00     0.000 O
BRANCH 55 59
ATOM     56  C1  SGN C   4     134.168  49.307  45.6710  0.00  0.00     0.000 C
ATOM     57  C2  SGN C   4     134.771  48.596  46.8950  0.00  0.00     0.000 C
ATOM     58  C3  SGN C   4     133.680  48.214  47.8910  0.00  0.00     0.000 C
ATOM     59  C4  SGN C   4     132.802  49.418  48.2140  0.00  0.00     0.000 C
ATOM     60  C5  SGN C   4     132.253  49.990  46.9090  0.00  0.00     0.000 C
ATOM     61  O5  SGN C   4     133.368  50.400  46.0920  0.00  0.00     0.000 O
ATOM     62   O  SGN C   4     134.275  47.696  49.0730  0.00  0.00     0.000 O
ATOM     64  HD  SGN C   4     134.842  47.510  48.4460  0.00  0.00     0.000 HD
BRANCH 57 66
ATOM     64   N  SGN C   4     136.003  48.646  46.0910  0.00  0.00     0.000 N
ATOM     66  HD  SGN C   4     136.854  48.669  46.2520  0.00  0.00     0.000 HD
ATOM     66   S  SGN C   4     137.158  47.566  46.3090  0.00  0.00     0.000 S
ATOM     67   O  SGN C   4     138.228  47.909  45.4440  0.00  0.00     0.000 OA
ATOM     68   O  SGN C   4     137.391  47.482  47.7090  0.00  0.00     0.000 OA
ATOM     69   O  SGN C   4     136.510  46.229  45.8280  0.00  0.00     0.000 OA
ENDBRANCH 57 66
BRANCH 60 70
ATOM     70   C  SGN C   4     131.353  51.192  47.0990  0.00  0.00     0.000 C
ATOM     71   O  SGN C   4     127.623  51.169  47.5380  0.00  0.00     0.000 OA
ATOM     72   O  SGN C   4     129.308  51.427  49.2540  0.00  0.00     0.000 OA
ATOM     73   O  SGN C   4     129.968  50.802  47.0230  0.00  0.00     0.000 O
ATOM     74   S  SGN C   4     128.934  51.671  47.8790  0.00  0.00     0.000 S
ATOM     75   O  SGN C   4     129.158  53.038  47.4530  0.00  0.00     0.000 OA
ENDBRANCH 60 70
BRANCH 56 76
ATOM     76  O4  IDS C   5     133.732  48.928  44.4560  0.00  0.00     0.000 O
BRANCH 76 80
ATOM     77  C1  IDS C   5     130.825  46.101  43.9930  0.00  0.00     0.000 C
ATOM     78  C2  IDS C   5     132.252  45.554  43.9590  0.00  0.00     0.000 C
ATOM     79  C3  IDS C   5     133.205  46.566  44.5650  0.00  0.00     0.000 C
ATOM     80  C4  IDS C   5     133.247  47.815  43.6890  0.00  0.00     0.000 C
ATOM     81  C5  IDS C   5     131.839  48.108  43.1510  0.00  0.00     0.000 C
ATOM     82  O5  IDS C   5     130.846  47.528  44.0020  0.00  0.00     0.000 O
BRANCH 78 83
ATOM     83   O  IDS C   5     132.350  44.296  44.7350  0.00  0.00     0.000 O
ATOM     84   S  IDS C   5     132.442  42.899  43.9720  0.00  0.00     0.000 S
ATOM     85   O  IDS C   5     131.390  42.913  42.9910  0.00  0.00     0.000 OA
ATOM     86   O  IDS C   5     133.762  42.873  43.3880  0.00  0.00     0.000 OA
ATOM     87   O  IDS C   5     132.262  41.887  44.9850  0.00  0.00     0.000 OA
ENDBRANCH 78 83
BRANCH 81 88
ATOM     88   C  IDS C   5     131.524  49.587  43.0230  0.00  0.00     0.000 C
ATOM     89   O  IDS C   5     132.054  50.239  42.1630  0.00  0.00     0.000 OA
ATOM     90   O  IDS C   5     130.740  50.101  43.7870  0.00  0.00     0.000 OA
ENDBRANCH 81 88
ENDBRANCH 76 80
ENDBRANCH 56 76
ENDBRANCH 55 59
ENDBRANCH 39 55
ENDBRANCH 38 42
ENDBRANCH 18 38
ENDBRANCH 17 21
ENDBRANCH 1 17
TORSDOF 18
ENDMDL
MODEL 98
REMARK VINA RESULT:      -4.3     23.509     29.156
ROOT
ATOM      1  C1  IDS C   1     189.713  30.679  64.9450  0.00  0.00     0.000 C
ATOM      2  C2  IDS C   1     190.707  31.217  65.9780  0.00  0.00     0.000 C
ATOM      3  C3  IDS C   1     191.513  32.372  65.4030  0.00  0.00     0.000 C
ATOM      4  C4  IDS C   1     192.272  31.930  64.1590  0.00  0.00     0.000 C
ATOM      5  C5  IDS C   1     191.407  30.990  63.3250  0.00  0.00     0.000 C
ATOM      6  O5  IDS C   1     190.029  31.173  63.6500  0.00  0.00     0.000 O
ATOM      7   O  IDS C   1     192.432  32.862  66.3890  0.00  0.00     0.000 O
ATOM      9  HD  IDS C   1     192.048  32.817  67.1650  0.00  0.00     0.000 HD
ENDROOT
BRANCH 2 9
ATOM      9   O  IDS C   1     189.999  31.721  67.1770  0.00  0.00     0.000 O
ATOM     10   S  IDS C   1     190.234  31.007  68.5840  0.00  0.00     0.000 S
ATOM     11   O  IDS C   1     189.424  31.733  69.5370  0.00  0.00     0.000 OA
ATOM     12   O  IDS C   1     189.799  29.637  68.4020  0.00  0.00     0.000 OA
ATOM     13   O  IDS C   1     191.650  31.118  68.8510  0.00  0.00     0.000 OA
ENDBRANCH 2 9
BRANCH 5 14
ATOM     14   C  IDS C   1     191.585  31.220  61.8340  0.00  0.00     0.000 C
ATOM     15   O  IDS C   1     190.846  30.668  61.0560  0.00  0.00     0.000 OA
ATOM     16   O  IDS C   1     192.472  31.956  61.4360  0.00  0.00     0.000 OA
ENDBRANCH 5 14
BRANCH 1 17
ATOM     17  O4  SGN C   2     188.452  30.357  65.2470  0.00  0.00     0.000 O
BRANCH 17 21
ATOM     18  C1  SGN C   2     184.483  31.623  65.6570  0.00  0.00     0.000 C
ATOM     19  C2  SGN C   2     185.544  32.722  65.5210  0.00  0.00     0.000 C
ATOM     20  C3  SGN C   2     186.842  32.125  64.9640  0.00  0.00     0.000 C
ATOM     21  C4  SGN C   2     187.283  30.940  65.8150  0.00  0.00     0.000 C
ATOM     22  C5  SGN C   2     186.151  29.918  65.8700  0.00  0.00     0.000 C
ATOM     23  O5  SGN C   2     184.962  30.534  66.4180  0.00  0.00     0.000 O
ATOM     24   O  SGN C   2     187.851  33.121  64.9200  0.00  0.00     0.000 O
ATOM     26  HD  SGN C   2     187.386  32.449  64.6330  0.00  0.00     0.000 HD
BRANCH 19 28
ATOM     26   N  SGN C   2     184.724  33.871  65.1130  0.00  0.00     0.000 N
ATOM     28  HD  SGN C   2     184.195  33.411  65.6220  0.00  0.00     0.000 HD
ATOM     28   O  SGN C   2     184.582  36.283  64.4940  0.00  0.00     0.000 OA
ATOM     29   S  SGN C   2     184.969  35.351  65.6910  0.00  0.00     0.000 S
ATOM     30   O  SGN C   2     184.046  35.556  66.7400  0.00  0.00     0.000 OA
ATOM     31   O  SGN C   2     186.361  35.490  65.9430  0.00  0.00     0.000 OA
ENDBRANCH 19 28
BRANCH 22 32
ATOM     32   C  SGN C   2     186.463  28.725  66.7400  0.00  0.00     0.000 C
ATOM     33   S  SGN C   2     185.796  26.244  66.9390  0.00  0.00     0.000 S
ATOM     34   O  SGN C   2     184.528  26.563  67.5470  0.00  0.00     0.000 OA
ATOM     35   O  SGN C   2     185.731  25.139  66.0060  0.00  0.00     0.000 OA
ATOM     36   O  SGN C   2     186.888  26.141  67.8780  0.00  0.00     0.000 OA
ATOM     37   O  SGN C   2     186.133  27.519  66.0410  0.00  0.00     0.000 O
ENDBRANCH 22 32
BRANCH 18 38
ATOM     38  O4  IDS C   3     183.708  31.055  64.7300  0.00  0.00     0.000 O
BRANCH 38 42
ATOM     39  C1  IDS C   3     182.085  30.434  61.7120  0.00  0.00     0.000 C
ATOM     40  C2  IDS C   3     182.234  31.865  62.2510  0.00  0.00     0.000 C
ATOM     41  C3  IDS C   3     181.733  31.969  63.6920  0.00  0.00     0.000 C
ATOM     42  C4  IDS C   3     182.302  30.850  64.5540  0.00  0.00     0.000 C
ATOM     43  C5  IDS C   3     182.050  29.496  63.8810  0.00  0.00     0.000 C
ATOM     44  O5  IDS C   3     182.669  29.491  62.5960  0.00  0.00     0.000 O
ATOM     45   O  IDS C   3     180.305  31.907  63.7010  0.00  0.00     0.000 O
ATOM     47  HD  IDS C   3     179.715  31.349  63.4010  0.00  0.00     0.000 HD
BRANCH 40 47
ATOM     47   O  IDS C   3     183.657  32.278  62.2450  0.00  0.00     0.000 O
ATOM     48   S  IDS C   3     184.091  33.629  61.5070  0.00  0.00     0.000 S
ATOM     49   O  IDS C   3     184.097  33.325  60.0930  0.00  0.00     0.000 OA
ATOM     50   O  IDS C   3     185.411  33.933  62.0140  0.00  0.00     0.000 OA
ATOM     51   O  IDS C   3     183.108  34.619  61.8610  0.00  0.00     0.000 OA
ENDBRANCH 40 47
BRANCH 43 52
ATOM     52   C  IDS C   3     182.565  28.331  64.6970  0.00  0.00     0.000 C
ATOM     53   O  IDS C   3     182.203  28.191  65.8430  0.00  0.00     0.000 OA
ATOM     54   O  IDS C   3     183.334  27.548  64.2010  0.00  0.00     0.000 OA
ENDBRANCH 43 52
BRANCH 39 55
ATOM     55  O4  SGN C   4     180.994  29.989  61.0880  0.00  0.00     0.000 O
BRANCH 55 59
ATOM     56  C1  SGN C   4     181.197  30.137  56.9120  0.00  0.00     0.000 C
ATOM     57  C2  SGN C   4     180.567  31.353  57.6130  0.00  0.00     0.000 C
ATOM     58  C3  SGN C   4     180.907  31.356  59.1010  0.00  0.00     0.000 C
ATOM     59  C4  SGN C   4     180.576  30.007  59.7310  0.00  0.00     0.000 C
ATOM     60  C5  SGN C   4     181.297  28.911  58.9490  0.00  0.00     0.000 C
ATOM     61  O5  SGN C   4     180.830  28.944  57.5860  0.00  0.00     0.000 O
ATOM     62   O  SGN C   4     180.194  32.400  59.7500  0.00  0.00     0.000 O
ATOM     64  HD  SGN C   4     180.297  32.681  58.9370  0.00  0.00     0.000 HD
BRANCH 57 66
ATOM     64   N  SGN C   4     179.773  32.537  57.2460  0.00  0.00     0.000 N
ATOM     66  HD  SGN C   4     179.941  33.349  56.9960  0.00  0.00     0.000 HD
ATOM     66   S  SGN C   4     180.021  33.280  55.8550  0.00  0.00     0.000 S
ATOM     67   O  SGN C   4     179.159  34.405  55.8160  0.00  0.00     0.000 OA
ATOM     68   O  SGN C   4     181.424  33.469  55.7280  0.00  0.00     0.000 OA
ATOM     69   O  SGN C   4     179.558  32.235  54.7890  0.00  0.00     0.000 OA
ENDBRANCH 57 66
BRANCH 60 70
ATOM     70   C  SGN C   4     181.054  27.517  59.4870  0.00  0.00     0.000 C
ATOM     71   O  SGN C   4     177.895  25.507  59.1980  0.00  0.00     0.000 OA
ATOM     72   O  SGN C   4     179.913  25.279  57.8840  0.00  0.00     0.000 OA
ATOM     73   O  SGN C   4     179.663  27.164  59.3640  0.00  0.00     0.000 O
ATOM     74   S  SGN C   4     179.336  25.611  59.1670  0.00  0.00     0.000 S
ATOM     75   O  SGN C   4     179.987  24.951  60.2810  0.00  0.00     0.000 OA
ENDBRANCH 60 70
BRANCH 56 76
ATOM     76  O4  IDS C   5     182.345  29.895  56.2530  0.00  0.00     0.000 O
BRANCH 76 80
ATOM     77  C1  IDS C   5     185.516  28.395  58.3400  0.00  0.00     0.000 C
ATOM     78  C2  IDS C   5     185.568  29.904  58.1060  0.00  0.00     0.000 C
ATOM     79  C3  IDS C   5     184.189  30.415  57.7350  0.00  0.00     0.000 C
ATOM     80  C4  IDS C   5     183.773  29.829  56.3890  0.00  0.00     0.000 C
ATOM     81  C5  IDS C   5     184.253  28.373  56.2980  0.00  0.00     0.000 C
ATOM     82  O5  IDS C   5     184.435  27.821  57.6050  0.00  0.00     0.000 O
BRANCH 78 83
ATOM     83   O  IDS C   5     186.014  30.609  59.3300  0.00  0.00     0.000 O
ATOM     84   S  IDS C   5     187.320  31.524  59.2870  0.00  0.00     0.000 S
ATOM     85   O  IDS C   5     188.338  30.731  58.6510  0.00  0.00     0.000 OA
ATOM     86   O  IDS C   5     186.942  32.686  58.5170  0.00  0.00     0.000 OA
ATOM     87   O  IDS C   5     187.621  31.842  60.6610  0.00  0.00     0.000 OA
ENDBRANCH 78 83
BRANCH 81 88
ATOM     88   C  IDS C   5     183.306  27.458  55.5430  0.00  0.00     0.000 C
ATOM     89   O  IDS C   5     182.686  26.617  56.1360  0.00  0.00     0.000 OA
ATOM     90   O  IDS C   5     183.180  27.583  54.3460  0.00  0.00     0.000 OA
ENDBRANCH 81 88
ENDBRANCH 76 80
ENDBRANCH 56 76
ENDBRANCH 55 59
ENDBRANCH 39 55
ENDBRANCH 38 42
ENDBRANCH 18 38
ENDBRANCH 17 21
ENDBRANCH 1 17
TORSDOF 18
ENDMDL
MODEL 99
REMARK VINA RESULT:      -4.2     33.220     39.556
ROOT
ATOM      1  C1  IDS C   1     154.309  50.980  61.7230  0.00  0.00     0.000 C
ATOM      2  C2  IDS C   1     153.343  51.134  62.9020  0.00  0.00     0.000 C
ATOM      3  C3  IDS C   1     153.213  52.595  63.3070  0.00  0.00     0.000 C
ATOM      4  C4  IDS C   1     154.570  53.168  63.6920  0.00  0.00     0.000 C
ATOM      5  C5  IDS C   1     155.649  52.632  62.7550  0.00  0.00     0.000 C
ATOM      6  O5  IDS C   1     155.059  52.173  61.5390  0.00  0.00     0.000 O
ATOM      7   O  IDS C   1     152.302  52.714  64.4090  0.00  0.00     0.000 O
ATOM      9  HD  IDS C   1     151.667  52.134  64.3000  0.00  0.00     0.000 HD
ENDROOT
BRANCH 2 9
ATOM      9   O  IDS C   1     151.991  50.649  62.5430  0.00  0.00     0.000 O
ATOM     10   S  IDS C   1     150.942  51.661  61.8960  0.00  0.00     0.000 S
ATOM     11   O  IDS C   1     149.744  50.887  61.6530  0.00  0.00     0.000 OA
ATOM     12   O  IDS C   1     150.749  52.704  62.8820  0.00  0.00     0.000 OA
ATOM     13   O  IDS C   1     151.556  52.142  60.6790  0.00  0.00     0.000 OA
ENDBRANCH 2 9
BRANCH 5 14
ATOM     14   C  IDS C   1     156.690  53.686  62.4180  0.00  0.00     0.000 C
ATOM     15   O  IDS C   1     157.407  53.527  61.4610  0.00  0.00     0.000 OA
ATOM     16   O  IDS C   1     156.794  54.680  63.1170  0.00  0.00     0.000 OA
ENDBRANCH 5 14
BRANCH 1 17
ATOM     17  O4  SGN C   2     154.065  50.178  60.6830  0.00  0.00     0.000 O
BRANCH 17 21
ATOM     18  C1  SGN C   2     152.589  49.016  56.9420  0.00  0.00     0.000 C
ATOM     19  C2  SGN C   2     153.060  50.469  57.0730  0.00  0.00     0.000 C
ATOM     20  C3  SGN C   2     153.942  50.619  58.3190  0.00  0.00     0.000 C
ATOM     21  C4  SGN C   2     153.209  50.092  59.5470  0.00  0.00     0.000 C
ATOM     22  C5  SGN C   2     152.797  48.644  59.2980  0.00  0.00     0.000 C
ATOM     23  O5  SGN C   2     151.957  48.570  58.1240  0.00  0.00     0.000 O
ATOM     24   O  SGN C   2     154.307  51.978  58.4910  0.00  0.00     0.000 O
ATOM     26  HD  SGN C   2     154.425  51.121  58.4760  0.00  0.00     0.000 HD
BRANCH 19 28
ATOM     26   N  SGN C   2     153.263  50.839  55.6660  0.00  0.00     0.000 N
ATOM     28  HD  SGN C   2     152.612  50.268  55.6370  0.00  0.00     0.000 HD
ATOM     28   O  SGN C   2     153.899  52.563  53.9790  0.00  0.00     0.000 OA
ATOM     29   S  SGN C   2     152.826  52.271  55.0810  0.00  0.00     0.000 S
ATOM     30   O  SGN C   2     151.569  52.110  54.4570  0.00  0.00     0.000 OA
ATOM     31   O  SGN C   2     152.975  53.226  56.1240  0.00  0.00     0.000 OA
ENDBRANCH 19 28
BRANCH 22 32
ATOM     32   C  SGN C   2     152.010  48.042  60.4360  0.00  0.00     0.000 C
ATOM     33   S  SGN C   2     150.305  46.148  60.8250  0.00  0.00     0.000 S
ATOM     34   O  SGN C   2     149.222  46.915  60.2620  0.00  0.00     0.000 OA
ATOM     35   O  SGN C   2     150.263  44.743  60.4780  0.00  0.00     0.000 OA
ATOM     36   O  SGN C   2     150.529  46.387  62.2310  0.00  0.00     0.000 OA
ATOM     37   O  SGN C   2     151.607  46.711  60.0920  0.00  0.00     0.000 O
ENDBRANCH 22 32
BRANCH 18 38
ATOM     38  O4  IDS C   3     153.235  47.937  56.4930  0.00  0.00     0.000 O
BRANCH 38 42
ATOM     39  C1  IDS C   3     154.354  44.828  55.3940  0.00  0.00     0.000 C
ATOM     40  C2  IDS C   3     153.983  45.061  56.8670  0.00  0.00     0.000 C
ATOM     41  C3  IDS C   3     154.710  46.279  57.4350  0.00  0.00     0.000 C
ATOM     42  C4  IDS C   3     154.591  47.476  56.5030  0.00  0.00     0.000 C
ATOM     43  C5  IDS C   3     155.017  47.076  55.0850  0.00  0.00     0.000 C
ATOM     44  O5  IDS C   3     154.183  46.011  54.6310  0.00  0.00     0.000 O
ATOM     45   O  IDS C   3     156.088  45.957  57.6320  0.00  0.00     0.000 O
ATOM     47  HD  IDS C   3     156.724  45.653  57.1290  0.00  0.00     0.000 HD
BRANCH 40 47
ATOM     47   O  IDS C   3     152.528  45.308  57.0040  0.00  0.00     0.000 O
ATOM     48   S  IDS C   3     151.501  44.085  56.9170  0.00  0.00     0.000 S
ATOM     49   O  IDS C   3     151.388  43.761  55.5110  0.00  0.00     0.000 OA
ATOM     50   O  IDS C   3     150.263  44.587  57.4700  0.00  0.00     0.000 OA
ATOM     51   O  IDS C   3     152.075  43.016  57.6900  0.00  0.00     0.000 OA
ENDBRANCH 40 47
BRANCH 43 52
ATOM     52   C  IDS C   3     154.950  48.227  54.1060  0.00  0.00     0.000 C
ATOM     53   O  IDS C   3     155.509  49.269  54.3610  0.00  0.00     0.000 OA
ATOM     54   O  IDS C   3     154.340  48.099  53.0750  0.00  0.00     0.000 OA
ENDBRANCH 43 52
BRANCH 39 55
ATOM     55  O4  SGN C   4     155.379  44.072  55.0010  0.00  0.00     0.000 O
BRANCH 55 59
ATOM     56  C1  SGN C   4     156.681  40.271  53.8330  0.00  0.00     0.000 C
ATOM     57  C2  SGN C   4     155.159  40.481  53.9170  0.00  0.00     0.000 C
ATOM     58  C3  SGN C   4     154.819  41.969  53.9590  0.00  0.00     0.000 C
ATOM     59  C4  SGN C   4     155.627  42.674  55.0420  0.00  0.00     0.000 C
ATOM     60  C5  SGN C   4     157.111  42.401  54.8050  0.00  0.00     0.000 C
ATOM     61  O5  SGN C   4     157.326  40.978  54.8800  0.00  0.00     0.000 O
ATOM     62   O  SGN C   4     153.426  42.132  54.1870  0.00  0.00     0.000 O
ATOM     64  HD  SGN C   4     153.491  41.369  53.7810  0.00  0.00     0.000 HD
BRANCH 57 66
ATOM     64   N  SGN C   4     153.907  39.713  53.8300  0.00  0.00     0.000 N
ATOM     66  HD  SGN C   4     153.423  39.376  53.1950  0.00  0.00     0.000 HD
ATOM     66   S  SGN C   4     153.858  38.329  53.0360  0.00  0.00     0.000 S
ATOM     67   O  SGN C   4     152.519  37.864  53.0760  0.00  0.00     0.000 OA
ATOM     68   O  SGN C   4     154.485  38.548  51.7790  0.00  0.00     0.000 OA
ATOM     69   O  SGN C   4     154.762  37.381  53.8880  0.00  0.00     0.000 OA
ENDBRANCH 57 66
BRANCH 60 70
ATOM     70   C  SGN C   4     158.023  43.060  55.8160  0.00  0.00     0.000 C
ATOM     71   O  SGN C   4     160.605  45.703  55.1390  0.00  0.00     0.000 OA
ATOM     72   O  SGN C   4     158.393  46.007  56.0680  0.00  0.00     0.000 OA
ATOM     73   O  SGN C   4     159.015  43.867  55.1510  0.00  0.00     0.000 O
ATOM     74   S  SGN C   4     159.548  45.145  55.9500  0.00  0.00     0.000 S
ATOM     75   O  SGN C   4     160.009  44.622  57.2210  0.00  0.00     0.000 OA
ENDBRANCH 60 70
BRANCH 56 76
ATOM     76  O4  IDS C   5     157.575  40.107  52.8410  0.00  0.00     0.000 O
BRANCH 76 80
ATOM     77  C1  IDS C   5     157.520  37.208  49.9680  0.00  0.00     0.000 C
ATOM     78  C2  IDS C   5     158.192  36.792  51.2760  0.00  0.00     0.000 C
ATOM     79  C3  IDS C   5     157.781  37.736  52.3890  0.00  0.00     0.000 C
ATOM     80  C4  IDS C   5     158.326  39.132  52.1000  0.00  0.00     0.000 C
ATOM     81  C5  IDS C   5     158.232  39.414  50.5940  0.00  0.00     0.000 C
ATOM     82  O5  IDS C   5     157.217  38.603  49.9940  0.00  0.00     0.000 O
BRANCH 78 83
ATOM     83   O  IDS C   5     157.791  35.417  51.6570  0.00  0.00     0.000 O
ATOM     84   S  IDS C   5     158.888  34.391  52.1920  0.00  0.00     0.000 S
ATOM     85   O  IDS C   5     159.979  34.455  51.2570  0.00  0.00     0.000 OA
ATOM     86   O  IDS C   5     159.241  34.865  53.5090  0.00  0.00     0.000 OA
ATOM     87   O  IDS C   5     158.238  33.103  52.2200  0.00  0.00     0.000 OA
ENDBRANCH 78 83
BRANCH 81 88
ATOM     88   C  IDS C   5     157.920  40.861  50.2560  0.00  0.00     0.000 C
ATOM     89   O  IDS C   5     158.792  41.686  50.2970  0.00  0.00     0.000 OA
ATOM     90   O  IDS C   5     156.793  41.174  49.9470  0.00  0.00     0.000 OA
ENDBRANCH 81 88
ENDBRANCH 76 80
ENDBRANCH 56 76
ENDBRANCH 55 59
ENDBRANCH 39 55
ENDBRANCH 38 42
ENDBRANCH 18 38
ENDBRANCH 17 21
ENDBRANCH 1 17
TORSDOF 18
ENDMDL
MODEL 100
REMARK VINA RESULT:      -4.1     26.528     31.339
ROOT
ATOM      1  C1  IDS C   1     165.593  41.892  61.1600  0.00  0.00     0.000 C
ATOM      2  C2  IDS C   1     164.529  40.946  60.5950  0.00  0.00     0.000 C
ATOM      3  C3  IDS C   1     165.173  39.827  59.7910  0.00  0.00     0.000 C
ATOM      4  C4  IDS C   1     165.999  40.395  58.6450  0.00  0.00     0.000 C
ATOM      5  C5  IDS C   1     166.733  41.652  59.1020  0.00  0.00     0.000 C
ATOM      6  O5  IDS C   1     166.845  41.665  60.5250  0.00  0.00     0.000 O
ATOM      7   O  IDS C   1     164.158  38.952  59.2780  0.00  0.00     0.000 O
ATOM      9  HD  IDS C   1     163.530  38.887  59.8700  0.00  0.00     0.000 HD
ENDROOT
BRANCH 2 9
ATOM      9   O  IDS C   1     163.748  40.320  61.6860  0.00  0.00     0.000 O
ATOM     10   S  IDS C   1     162.171  40.544  61.7490  0.00  0.00     0.000 S
ATOM     11   O  IDS C   1     161.711  39.803  62.9030  0.00  0.00     0.000 OA
ATOM     12   O  IDS C   1     161.985  41.974  61.8870  0.00  0.00     0.000 OA
ATOM     13   O  IDS C   1     161.648  40.025  60.5040  0.00  0.00     0.000 OA
ENDBRANCH 2 9
BRANCH 5 14
ATOM     14   C  IDS C   1     168.128  41.749  58.5080  0.00  0.00     0.000 C
ATOM     15   O  IDS C   1     169.006  42.283  59.1400  0.00  0.00     0.000 OA
ATOM     16   O  IDS C   1     168.347  41.289  57.4000  0.00  0.00     0.000 OA
ENDBRANCH 5 14
BRANCH 1 17
ATOM     17  O4  SGN C   2     165.554  42.370  62.4070  0.00  0.00     0.000 O
BRANCH 17 21
ATOM     18  C1  SGN C   2     166.833  42.290  66.3930  0.00  0.00     0.000 C
ATOM     19  C2  SGN C   2     167.419  41.222  65.4620  0.00  0.00     0.000 C
ATOM     20  C3  SGN C   2     167.202  41.631  64.0000  0.00  0.00     0.000 C
ATOM     21  C4  SGN C   2     165.728  41.928  63.7510  0.00  0.00     0.000 C
ATOM     22  C5  SGN C   2     165.265  43.003  64.7290  0.00  0.00     0.000 C
ATOM     23  O5  SGN C   2     165.479  42.554  66.0870  0.00  0.00     0.000 O
ATOM     24   O  SGN C   2     167.666  40.605  63.1380  0.00  0.00     0.000 O
ATOM     26  HD  SGN C   2     167.548  41.418  63.4120  0.00  0.00     0.000 HD
BRANCH 19 28
ATOM     26   N  SGN C   2     168.587  40.772  66.2310  0.00  0.00     0.000 N
ATOM     28  HD  SGN C   2     167.986  40.919  66.8370  0.00  0.00     0.000 HD
ATOM     28   O  SGN C   2     170.630  39.348  66.3780  0.00  0.00     0.000 OA
ATOM     29   S  SGN C   2     169.075  39.239  66.2360  0.00  0.00     0.000 S
ATOM     30   O  SGN C   2     168.556  38.631  67.4000  0.00  0.00     0.000 OA
ATOM     31   O  SGN C   2     168.773  38.687  64.9610  0.00  0.00     0.000 OA
ENDBRANCH 19 28
BRANCH 22 32
ATOM     32   C  SGN C   2     163.797  43.333  64.6060  0.00  0.00     0.000 C
ATOM     33   S  SGN C   2     162.287  45.412  64.4110  0.00  0.00     0.000 S
ATOM     34   O  SGN C   2     162.406  45.715  65.8150  0.00  0.00     0.000 OA
ATOM     35   O  SGN C   2     162.289  46.584  63.5610  0.00  0.00     0.000 OA
ATOM     36   O  SGN C   2     161.231  44.477  64.0980  0.00  0.00     0.000 OA
ATOM     37   O  SGN C   2     163.643  44.647  64.0570  0.00  0.00     0.000 O
ENDBRANCH 22 32
BRANCH 18 38
ATOM     38  O4  IDS C   3     167.321  43.479  66.7560  0.00  0.00     0.000 O
BRANCH 38 42
ATOM     39  C1  IDS C   3     169.701  45.988  67.1640  0.00  0.00     0.000 C
ATOM     40  C2  IDS C   3     170.078  44.506  67.3190  0.00  0.00     0.000 C
ATOM     41  C3  IDS C   3     169.144  43.798  68.3010  0.00  0.00     0.000 C
ATOM     42  C4  IDS C   3     167.685  44.103  67.9910  0.00  0.00     0.000 C
ATOM     43  C5  IDS C   3     167.482  45.620  67.8910  0.00  0.00     0.000 C
ATOM     44  O5  IDS C   3     168.324  46.136  66.8610  0.00  0.00     0.000 O
ATOM     45   O  IDS C   3     169.453  44.215  69.6320  0.00  0.00     0.000 O
ATOM     47  HD  IDS C   3     169.507  44.979  70.0370  0.00  0.00     0.000 HD
BRANCH 40 47
ATOM     47   O  IDS C   3     169.972  43.803  66.0190  0.00  0.00     0.000 O
ATOM     48   S  IDS C   3     171.267  43.122  65.3740  0.00  0.00     0.000 S
ATOM     49   O  IDS C   3     172.045  44.204  64.8090  0.00  0.00     0.000 OA
ATOM     50   O  IDS C   3     170.760  42.219  64.3640  0.00  0.00     0.000 OA
ATOM     51   O  IDS C   3     171.948  42.447  66.4460  0.00  0.00     0.000 OA
ENDBRANCH 40 47
BRANCH 43 52
ATOM     52   C  IDS C   3     166.046  46.002  67.6120  0.00  0.00     0.000 C
ATOM     53   O  IDS C   3     165.701  46.270  66.4840  0.00  0.00     0.000 OA
ATOM     54   O  IDS C   3     165.250  46.036  68.5160  0.00  0.00     0.000 OA
ENDBRANCH 43 52
BRANCH 39 55
ATOM     55  O4  SGN C   4     170.196  46.960  67.9310  0.00  0.00     0.000 O
BRANCH 55 59
ATOM     56  C1  SGN C   4     172.698  49.596  65.8580  0.00  0.00     0.000 C
ATOM     57  C2  SGN C   4     173.385  48.597  66.8050  0.00  0.00     0.000 C
ATOM     58  C3  SGN C   4     172.433  47.464  67.1800  0.00  0.00     0.000 C
ATOM     59  C4  SGN C   4     171.107  48.021  67.6850  0.00  0.00     0.000 C
ATOM     60  C5  SGN C   4     170.536  48.964  66.6280  0.00  0.00     0.000 C
ATOM     61  O5  SGN C   4     171.475  50.039  66.4260  0.00  0.00     0.000 O
ATOM     62   O  SGN C   4     173.040  46.640  68.1660  0.00  0.00     0.000 O
ATOM     64  HD  SGN C   4     173.705  46.969  67.7200  0.00  0.00     0.000 HD
BRANCH 57 66
ATOM     64   N  SGN C   4     174.588  48.566  65.9570  0.00  0.00     0.000 N
ATOM     66  HD  SGN C   4     175.265  49.087  65.8130  0.00  0.00     0.000 HD
ATOM     66   S  SGN C   4     176.036  48.769  66.5970  0.00  0.00     0.000 S
ATOM     67   O  SGN C   4     176.976  48.750  65.5350  0.00  0.00     0.000 OA
ATOM     68   O  SGN C   4     175.961  49.908  67.4450  0.00  0.00     0.000 OA
ATOM     69   O  SGN C   4     176.231  47.497  67.4840  0.00  0.00     0.000 OA
ENDBRANCH 57 66
BRANCH 60 70
ATOM     70   C  SGN C   4     169.207  49.578  67.0110  0.00  0.00     0.000 C
ATOM     71   O  SGN C   4     166.967  51.655  64.8260  0.00  0.00     0.000 OA
ATOM     72   O  SGN C   4     166.715  49.319  65.3980  0.00  0.00     0.000 OA
ATOM     73   O  SGN C   4     168.748  50.473  65.9800  0.00  0.00     0.000 O
ATOM     74   S  SGN C   4     167.164  50.626  65.8210  0.00  0.00     0.000 S
ATOM     75   O  SGN C   4     166.694  51.000  67.1400  0.00  0.00     0.000 OA
ENDBRANCH 60 70
BRANCH 56 76
ATOM     76  O4  IDS C   5     172.607  49.752  64.5250  0.00  0.00     0.000 O
BRANCH 76 80
ATOM     77  C1  IDS C   5     169.295  48.522  62.4820  0.00  0.00     0.000 C
ATOM     78  C2  IDS C   5     170.430  47.499  62.5250  0.00  0.00     0.000 C
ATOM     79  C3  IDS C   5     171.397  47.851  63.6380  0.00  0.00     0.000 C
ATOM     80  C4  IDS C   5     172.082  49.176  63.3190  0.00  0.00     0.000 C
ATOM     81  C5  IDS C   5     171.070  50.128  62.6670  0.00  0.00     0.000 C
ATOM     82  O5  IDS C   5     169.734  49.766  63.0280  0.00  0.00     0.000 O
BRANCH 78 83
ATOM     83   O  IDS C   5     169.899  46.139  62.7770  0.00  0.00     0.000 O
ATOM     84   S  IDS C   5     170.000  45.025  61.6400  0.00  0.00     0.000 S
ATOM     85   O  IDS C   5     169.509  45.642  60.4370  0.00  0.00     0.000 OA
ATOM     86   O  IDS C   5     171.401  44.681  61.5700  0.00  0.00     0.000 OA
ATOM     87   O  IDS C   5     169.180  43.928  62.0940  0.00  0.00     0.000 OA
ENDBRANCH 78 83
BRANCH 81 88
ATOM     88   C  IDS C   5     171.265  51.586  63.0410  0.00  0.00     0.000 C
ATOM     89   O  IDS C   5     172.164  52.215  62.5500  0.00  0.00     0.000 OA
ATOM     90   O  IDS C   5     170.513  52.107  63.8330  0.00  0.00     0.000 OA
ENDBRANCH 81 88
ENDBRANCH 76 80
ENDBRANCH 56 76
ENDBRANCH 55 59
ENDBRANCH 39 55
ENDBRANCH 38 42
ENDBRANCH 18 38
ENDBRANCH 17 21
ENDBRANCH 1 17
TORSDOF 18
ENDMDL
