MODEL 1
REMARK VINA RESULT:      -9.0      0.000      0.000
ROOT
ATOM      1  C1  BDP B   1       9.025   4.374  37.4910  0.00  0.00     0.000 C
ATOM      2  C2  BDP B   1       7.648   4.052  38.0440  0.00  0.00     0.000 C
ATOM      3  C3  BDP B   1       6.964   5.274  38.6190  0.00  0.00     0.000 C
ATOM      4  C4  BDP B   1       7.612   6.595  38.2190  0.00  0.00     0.000 C
ATOM      5  C5  BDP B   1       9.130   6.577  38.3700  0.00  0.00     0.000 C
ATOM      6  O5  BDP B   1       9.654   5.240  38.4250  0.00  0.00     0.000 O
ATOM      7   O  BDP B   1       6.831   3.484  37.0150  0.00  0.00     0.000 O
ATOM      9  HD  BDP B   1       6.716   2.944  36.3470  0.00  0.00     0.000 HD
ATOM      9   O  BDP B   1       6.965   5.206  40.0540  0.00  0.00     0.000 O
ATOM     11  HD  BDP B   1       6.850   4.666  39.3870  0.00  0.00     0.000 HD
ATOM     11   O  BDP B   1       7.264   6.933  36.8700  0.00  0.00     0.000 O
ATOM     13  HD  BDP B   1       7.149   6.393  36.2030  0.00  0.00     0.000 HD
ENDROOT
BRANCH 5 13
ATOM     13   C  BDP B   1       9.455   7.296  39.6320  0.00  0.00     0.000 C
ATOM     14   O  BDP B   1       9.650   8.528  39.5750  0.00  0.00     0.000 OA
ATOM     15   O  BDP B   1       9.497   6.655  40.7040  0.00  0.00     0.000 OA
ENDBRANCH 5 13
BRANCH 1 16
ATOM     16  O3  NAG B   2       9.558   4.211  36.1790  0.00  0.00     0.000 O
BRANCH 16 19
ATOM     17  C1  NAG B   2      11.920   6.066  34.1220  0.00  0.00     0.000 C
ATOM     18  C2  NAG B   2      11.550   5.411  35.4530  0.00  0.00     0.000 C
ATOM     19  C3  NAG B   2      10.623   4.227  35.2260  0.00  0.00     0.000 C
ATOM     20  C4  NAG B   2      10.046   4.220  33.8080  0.00  0.00     0.000 C
ATOM     21  C5  NAG B   2       9.753   5.607  33.2170  0.00  0.00     0.000 C
ATOM     22  O5  NAG B   2      10.697   6.607  33.6170  0.00  0.00     0.000 O
ATOM     23   O  NAG B   2      10.949   3.511  32.9530  0.00  0.00     0.000 O
ATOM     25  HD  NAG B   2      11.662   3.849  33.3090  0.00  0.00     0.000 HD
ATOM     25   C  NAG B   2       8.345   6.076  33.6120  0.00  0.00     0.000 C
ATOM     26   O  NAG B   2       7.346   5.570  32.7160  0.00  0.00     0.000 O
ATOM     28  HD  NAG B   2       8.059   5.909  33.0720  0.00  0.00     0.000 HD
BRANCH 18 30
ATOM     28   N  NAG B   2      12.945   5.144  35.1050  0.00  0.00     0.000 N
ATOM     30  HD  NAG B   2      13.439   4.765  34.5030  0.00  0.00     0.000 HD
ATOM     30   C  NAG B   2      13.755   4.309  35.7710  0.00  0.00     0.000 C
ATOM     31   C  NAG B   2      15.151   4.212  35.2240  0.00  0.00     0.000 C
ATOM     32   O  NAG B   2      13.406   3.669  36.7360  0.00  0.00     0.000 OA
ENDBRANCH 18 30
BRANCH 17 33
ATOM     33  O4  BDP B   3      12.376   7.187  33.3330  0.00  0.00     0.000 O
BRANCH 33 37
ATOM     34  C1  BDP B   3      16.120   8.996  32.3550  0.00  0.00     0.000 C
ATOM     35  C2  BDP B   3      15.604   9.186  33.7770  0.00  0.00     0.000 C
ATOM     36  C3  BDP B   3      14.518   8.191  34.1710  0.00  0.00     0.000 C
ATOM     37  C4  BDP B   3      13.484   8.088  33.0390  0.00  0.00     0.000 C
ATOM     38  C5  BDP B   3      14.244   7.694  31.7590  0.00  0.00     0.000 C
ATOM     39  O5  BDP B   3      15.046   8.827  31.4220  0.00  0.00     0.000 O
ATOM     40   O  BDP B   3      16.747   9.105  34.6310  0.00  0.00     0.000 O
ATOM     42  HD  BDP B   3      16.815   9.924  34.3600  0.00  0.00     0.000 HD
ATOM     42   O  BDP B   3      13.936   8.677  35.3790  0.00  0.00     0.000 O
ATOM     44  HD  BDP B   3      14.003   9.497  35.1080  0.00  0.00     0.000 HD
BRANCH 38 44
ATOM     44   C  BDP B   3      13.365   7.335  30.6020  0.00  0.00     0.000 C
ATOM     45   O  BDP B   3      13.301   8.136  29.6440  0.00  0.00     0.000 OA
ATOM     46   O  BDP B   3      12.725   6.261  30.6230  0.00  0.00     0.000 OA
ENDBRANCH 38 44
BRANCH 34 47
ATOM     47  O3  NAG B   4      16.396  10.242  31.7170  0.00  0.00     0.000 O
BRANCH 47 50
ATOM     48  C1  NAG B   4      18.821  10.335  28.8440  0.00  0.00     0.000 C
ATOM     49  C2  NAG B   4      18.367  10.211  30.2870  0.00  0.00     0.000 C
ATOM     50  C3  NAG B   4      16.845  10.290  30.3480  0.00  0.00     0.000 C
ATOM     51  C4  NAG B   4      16.325  11.557  29.6870  0.00  0.00     0.000 C
ATOM     52  C5  NAG B   4      16.872  11.663  28.2630  0.00  0.00     0.000 C
ATOM     53  O5  NAG B   4      18.300  11.548  28.2670  0.00  0.00     0.000 O
ATOM     54   O  NAG B   4      14.895  11.524  29.6780  0.00  0.00     0.000 O
ATOM     56  HD  NAG B   4      15.212  12.309  29.4970  0.00  0.00     0.000 HD
ATOM     56   C  NAG B   4      16.472  12.982  27.6140  0.00  0.00     0.000 C
ATOM     57   O  NAG B   4      16.999  14.065  28.3920  0.00  0.00     0.000 O
ATOM     59  HD  NAG B   4      17.316  14.851  28.2100  0.00  0.00     0.000 HD
BRANCH 49 61
ATOM     59   N  NAG B   4      19.265   9.114  30.6500  0.00  0.00     0.000 N
ATOM     61  HD  NAG B   4      19.244   9.978  30.6930  0.00  0.00     0.000 HD
ATOM     61   O  NAG B   4      19.888   9.926  32.6630  0.00  0.00     0.000 OA
ATOM     62   C  NAG B   4      19.888   9.030  31.8310  0.00  0.00     0.000 C
ATOM     63   C  NAG B   4      20.590   7.738  32.1020  0.00  0.00     0.000 C
ENDBRANCH 49 61
BRANCH 48 64
ATOM     64  O4  BDP B   5      19.951   9.831  28.1360  0.00  0.00     0.000 O
BRANCH 64 68
ATOM     65  C1  BDP B   5      20.341   9.852  23.9860  0.00  0.00     0.000 C
ATOM     66  C2  BDP B   5      20.380   8.483  24.6530  0.00  0.00     0.000 C
ATOM     67  C3  BDP B   5      19.808   8.582  26.0610  0.00  0.00     0.000 C
ATOM     68  C4  BDP B   5      20.561   9.640  26.8600  0.00  0.00     0.000 C
ATOM     69  C5  BDP B   5      20.608  10.981  26.1390  0.00  0.00     0.000 C
ATOM     70  O5  BDP B   5      21.056  10.809  24.7820  0.00  0.00     0.000 O
ATOM     71   O  BDP B   5      19.658   7.535  23.8520  0.00  0.00     0.000 O
ATOM     73  HD  BDP B   5      19.194   7.011  23.3430  0.00  0.00     0.000 HD
ATOM     73   O  BDP B   5      19.907   7.322  26.7350  0.00  0.00     0.000 O
ATOM     75  HD  BDP B   5      19.444   6.797  26.2250  0.00  0.00     0.000 HD
BRANCH 69 75
ATOM     75   C  BDP B   5      21.566  11.882  26.8750  0.00  0.00     0.000 C
ATOM     76   O  BDP B   5      22.760  11.534  26.9760  0.00  0.00     0.000 OA
ATOM     77   O  BDP B   5      21.141  12.948  27.3580  0.00  0.00     0.000 OA
ENDBRANCH 69 75
BRANCH 65 78
ATOM     78  O3  NAG B   6      21.247  10.339  22.9930  0.00  0.00     0.000 O
BRANCH 78 81
ATOM     79  C1  NAG B   6      21.165  11.855  19.5250  0.00  0.00     0.000 C
ATOM     80  C2  NAG B   6      21.157  10.750  20.5930  0.00  0.00     0.000 C
ATOM     81  C3  NAG B   6      21.101  11.361  21.9840  0.00  0.00     0.000 C
ATOM     82  C4  NAG B   6      22.189  12.426  22.1560  0.00  0.00     0.000 C
ATOM     83  C5  NAG B   6      22.069  13.458  21.0410  0.00  0.00     0.000 C
ATOM     84  O5  NAG B   6      22.238  12.774  19.7990  0.00  0.00     0.000 O
BRANCH 80 87
ATOM     85   N  NAG B   6      20.035   9.859  20.3090  0.00  0.00     0.000 N
ATOM     87  HD  NAG B   6      19.673   9.244  19.8180  0.00  0.00     0.000 HD
ATOM     87   C  NAG B   6      20.101   8.524  20.3850  0.00  0.00     0.000 C
ATOM     88   C  NAG B   6      18.830   7.794  20.0890  0.00  0.00     0.000 C
ATOM     89   O  NAG B   6      21.123   7.921  20.6900  0.00  0.00     0.000 OA
ENDBRANCH 80 87
ATOM     90   O  NAG B   6      22.431  15.813  21.4540  0.00  0.00     0.000 O
ATOM     92  HD  NAG B   6      22.009  15.226  20.9780  0.00  0.00     0.000 HD
ATOM     92   O  NAG B   6      22.431  15.813  21.4540  0.00  0.00     0.000 O
ATOM     94  HD  NAG B   6      22.009  15.226  20.9780  0.00  0.00     0.000 HD
ENDBRANCH 78 81
ENDBRANCH 65 78
ENDBRANCH 64 68
ENDBRANCH 48 64
ENDBRANCH 47 50
ENDBRANCH 34 47
ENDBRANCH 33 37
ENDBRANCH 17 33
ENDBRANCH 16 19
ENDBRANCH 1 16
TORSDOF 16
ENDMDL
MODEL 2
REMARK VINA RESULT:      -8.9      1.577      2.599
ROOT
ATOM      1  C1  BDP B   1       8.337   6.685  37.1530  0.00  0.00     0.000 C
ATOM      2  C2  BDP B   1       9.017   6.283  38.4490  0.00  0.00     0.000 C
ATOM      3  C3  BDP B   1       8.684   4.862  38.8510  0.00  0.00     0.000 C
ATOM      4  C4  BDP B   1       8.054   4.032  37.7370  0.00  0.00     0.000 C
ATOM      5  C5  BDP B   1       6.936   4.773  37.0100  0.00  0.00     0.000 C
ATOM      6  O5  BDP B   1       7.006   6.194  37.2130  0.00  0.00     0.000 O
ATOM      7   O  BDP B   1      10.436   6.426  38.3200  0.00  0.00     0.000 O
ATOM      9  HD  BDP B   1      11.134   6.868  38.0620  0.00  0.00     0.000 HD
ATOM      9   O  BDP B   1       7.770   4.867  39.9590  0.00  0.00     0.000 O
ATOM     11  HD  BDP B   1       8.469   5.309  39.7020  0.00  0.00     0.000 HD
ATOM     11   O  BDP B   1       9.053   3.620  36.7960  0.00  0.00     0.000 O
ATOM     13  HD  BDP B   1       9.752   4.063  36.5380  0.00  0.00     0.000 HD
ENDROOT
BRANCH 5 13
ATOM     13   C  BDP B   1       5.646   4.252  37.5390  0.00  0.00     0.000 C
ATOM     14   O  BDP B   1       5.135   3.262  36.9760  0.00  0.00     0.000 OA
ATOM     15   O  BDP B   1       5.132   4.801  38.5370  0.00  0.00     0.000 OA
ENDBRANCH 5 13
BRANCH 1 16
ATOM     16  O3  NAG B   2       8.889   7.134  35.9170  0.00  0.00     0.000 O
BRANCH 16 19
ATOM     17  C1  NAG B   2      11.905   6.780  33.9080  0.00  0.00     0.000 C
ATOM     18  C2  NAG B   2      10.824   6.165  34.7980  0.00  0.00     0.000 C
ATOM     19  C3  NAG B   2       9.513   6.923  34.6500  0.00  0.00     0.000 C
ATOM     20  C4  NAG B   2       9.712   8.266  33.9410  0.00  0.00     0.000 C
ATOM     21  C5  NAG B   2      11.032   8.981  34.2580  0.00  0.00     0.000 C
ATOM     22  O5  NAG B   2      12.134   8.085  34.4440  0.00  0.00     0.000 O
ATOM     23   O  NAG B   2       9.600   8.056  32.5300  0.00  0.00     0.000 O
ATOM     25  HD  NAG B   2      10.040   7.311  32.5350  0.00  0.00     0.000 HD
ATOM     25   C  NAG B   2      10.889   9.850  35.5150  0.00  0.00     0.000 C
ATOM     26   O  NAG B   2      10.353  11.145  35.2080  0.00  0.00     0.000 O
ATOM     28  HD  NAG B   2      10.794  10.400  35.2130  0.00  0.00     0.000 HD
BRANCH 18 30
ATOM     28   N  NAG B   2      11.125   5.298  33.6590  0.00  0.00     0.000 N
ATOM     30  HD  NAG B   2      11.098   5.273  32.7940  0.00  0.00     0.000 HD
ATOM     30   C  NAG B   2      10.458   4.177  33.3510  0.00  0.00     0.000 C
ATOM     31   C  NAG B   2      10.966   3.454  32.1360  0.00  0.00     0.000 C
ATOM     32   O  NAG B   2       9.513   3.768  33.9850  0.00  0.00     0.000 OA
ENDBRANCH 18 30
BRANCH 17 33
ATOM     33  O4  BDP B   3      13.284   7.024  33.5570  0.00  0.00     0.000 O
BRANCH 33 37
ATOM     34  C1  BDP B   3      16.551   9.116  31.7700  0.00  0.00     0.000 C
ATOM     35  C2  BDP B   3      16.532   9.023  33.2910  0.00  0.00     0.000 C
ATOM     36  C3  BDP B   3      15.607   7.934  33.8250  0.00  0.00     0.000 C
ATOM     37  C4  BDP B   3      14.259   8.003  33.0920  0.00  0.00     0.000 C
ATOM     38  C5  BDP B   3      14.551   7.878  31.5840  0.00  0.00     0.000 C
ATOM     39  O5  BDP B   3      15.229   9.081  31.2220  0.00  0.00     0.000 O
ATOM     40   O  BDP B   3      17.888   8.828  33.6970  0.00  0.00     0.000 O
ATOM     42  HD  BDP B   3      17.885   9.686  33.5750  0.00  0.00     0.000 HD
ATOM     42   O  BDP B   3      15.463   8.169  35.2250  0.00  0.00     0.000 O
ATOM     44  HD  BDP B   3      15.460   9.027  35.1030  0.00  0.00     0.000 HD
BRANCH 38 44
ATOM     44   C  BDP B   3      13.334   7.705  30.7300  0.00  0.00     0.000 C
ATOM     45   O  BDP B   3      12.295   8.318  31.0610  0.00  0.00     0.000 OA
ATOM     46   O  BDP B   3      13.384   6.963  29.7250  0.00  0.00     0.000 OA
ENDBRANCH 38 44
BRANCH 34 47
ATOM     47  O3  NAG B   4      16.638  10.466  31.3190  0.00  0.00     0.000 O
BRANCH 47 50
ATOM     48  C1  NAG B   4      18.885  11.185  28.3890  0.00  0.00     0.000 C
ATOM     49  C2  NAG B   4      18.521  10.792  29.8100  0.00  0.00     0.000 C
ATOM     50  C3  NAG B   4      17.004  10.771  29.9570  0.00  0.00     0.000 C
ATOM     51  C4  NAG B   4      16.384  12.099  29.5510  0.00  0.00     0.000 C
ATOM     52  C5  NAG B   4      16.841  12.475  28.1410  0.00  0.00     0.000 C
ATOM     53  O5  NAG B   4      18.271  12.445  28.0550  0.00  0.00     0.000 O
ATOM     54   O  NAG B   4      14.960  11.984  29.6060  0.00  0.00     0.000 O
ATOM     56  HD  NAG B   4      15.226  12.806  29.5470  0.00  0.00     0.000 HD
ATOM     56   C  NAG B   4      16.340  13.860  27.7480  0.00  0.00     0.000 C
ATOM     57   O  NAG B   4      16.857  14.825  28.6740  0.00  0.00     0.000 O
ATOM     59  HD  NAG B   4      17.123  15.647  28.6150  0.00  0.00     0.000 HD
BRANCH 49 61
ATOM     59   N  NAG B   4      19.456   9.676  29.9540  0.00  0.00     0.000 N
ATOM     61  HD  NAG B   4      19.425  10.524  30.1260  0.00  0.00     0.000 HD
ATOM     61   O  NAG B   4      20.190  10.201  32.0250  0.00  0.00     0.000 OA
ATOM     62   C  NAG B   4      20.152   9.436  31.0720  0.00  0.00     0.000 C
ATOM     63   C  NAG B   4      20.889   8.135  31.1080  0.00  0.00     0.000 C
ENDBRANCH 49 61
BRANCH 48 64
ATOM     64  O4  BDP B   5      19.995  10.875  27.5510  0.00  0.00     0.000 O
BRANCH 64 68
ATOM     65  C1  BDP B   5      19.953   9.754  23.5370  0.00  0.00     0.000 C
ATOM     66  C2  BDP B   5      19.835   8.620  24.5480  0.00  0.00     0.000 C
ATOM     67  C3  BDP B   5      19.434   9.184  25.9050  0.00  0.00     0.000 C
ATOM     68  C4  BDP B   5      20.430  10.252  26.3440  0.00  0.00     0.000 C
ATOM     69  C5  BDP B   5      20.624  11.328  25.2840  0.00  0.00     0.000 C
ATOM     70  O5  BDP B   5      20.895  10.733  24.0030  0.00  0.00     0.000 O
ATOM     71   O  BDP B   5      18.887   7.651  24.0750  0.00  0.00     0.000 O
ATOM     73  HD  BDP B   5      18.293   7.109  23.7540  0.00  0.00     0.000 HD
ATOM     73   O  BDP B   5      19.393   8.144  26.8890  0.00  0.00     0.000 O
ATOM     75  HD  BDP B   5      18.799   7.602  26.5680  0.00  0.00     0.000 HD
BRANCH 69 75
ATOM     75   C  BDP B   5      21.788  12.193  25.6940  0.00  0.00     0.000 C
ATOM     76   O  BDP B   5      21.638  13.431  25.7140  0.00  0.00     0.000 OA
ATOM     77   O  BDP B   5      22.864  11.649  26.0050  0.00  0.00     0.000 OA
ENDBRANCH 69 75
BRANCH 65 78
ATOM     78  O3  NAG B   6      20.820   9.790  22.4010  0.00  0.00     0.000 O
BRANCH 78 81
ATOM     79  C1  NAG B   6      20.709   9.878  18.6180  0.00  0.00     0.000 C
ATOM     80  C2  NAG B   6      20.734   9.259  20.0240  0.00  0.00     0.000 C
ATOM     81  C3  NAG B   6      20.644  10.349  21.0810  0.00  0.00     0.000 C
ATOM     82  C4  NAG B   6      21.691  11.439  20.8300  0.00  0.00     0.000 C
ATOM     83  C5  NAG B   6      21.541  11.967  19.4080  0.00  0.00     0.000 C
ATOM     84  O5  NAG B   6      21.745  10.871  18.5150  0.00  0.00     0.000 O
BRANCH 80 87
ATOM     85   N  NAG B   6      20.807   7.916  20.5920  0.00  0.00     0.000 N
ATOM     87  HD  NAG B   6      20.583   7.350  21.2090  0.00  0.00     0.000 HD
ATOM     87   C  NAG B   6      19.763   7.082  20.6810  0.00  0.00     0.000 C
ATOM     88   C  NAG B   6      20.056   5.736  21.2630  0.00  0.00     0.000 C
ATOM     89   O  NAG B   6      18.636   7.379  20.3030  0.00  0.00     0.000 OA
ENDBRANCH 80 87
ATOM     90   O  NAG B   6      21.812  14.315  18.8960  0.00  0.00     0.000 O
ATOM     92  HD  NAG B   6      21.416  13.576  18.6810  0.00  0.00     0.000 HD
ATOM     92   O  NAG B   6      21.812  14.315  18.8960  0.00  0.00     0.000 O
ATOM     94  HD  NAG B   6      21.416  13.576  18.6810  0.00  0.00     0.000 HD
ENDBRANCH 78 81
ENDBRANCH 65 78
ENDBRANCH 64 68
ENDBRANCH 48 64
ENDBRANCH 47 50
ENDBRANCH 34 47
ENDBRANCH 33 37
ENDBRANCH 17 33
ENDBRANCH 16 19
ENDBRANCH 1 16
TORSDOF 16
ENDMDL
MODEL 3
REMARK VINA RESULT:      -8.2      1.992     16.003
ROOT
ATOM      1  C1  BDP B   1      20.139  11.495  19.0970  0.00  0.00     0.000 C
ATOM      2  C2  BDP B   1      20.194  10.753  17.7730  0.00  0.00     0.000 C
ATOM      3  C3  BDP B   1      21.013  11.495  16.7380  0.00  0.00     0.000 C
ATOM      4  C4  BDP B   1      21.883  12.607  17.3140  0.00  0.00     0.000 C
ATOM      5  C5  BDP B   1      21.128  13.499  18.2950  0.00  0.00     0.000 C
ATOM      6  O5  BDP B   1      19.937  12.868  18.7950  0.00  0.00     0.000 O
ATOM      7   O  BDP B   1      20.740   9.445  17.9700  0.00  0.00     0.000 O
ATOM      9  HD  BDP B   1      20.795   8.704  18.4150  0.00  0.00     0.000 HD
ATOM      9   O  BDP B   1      20.146  12.084  15.7570  0.00  0.00     0.000 O
ATOM     11  HD  BDP B   1      20.201  11.343  16.2020  0.00  0.00     0.000 HD
ATOM     11   O  BDP B   1      23.040  12.055  17.9550  0.00  0.00     0.000 O
ATOM     13  HD  BDP B   1      23.095  11.314  18.4000  0.00  0.00     0.000 HD
ENDROOT
BRANCH 5 13
ATOM     13   C  BDP B   1      20.767  14.747  17.5670  0.00  0.00     0.000 C
ATOM     14   O  BDP B   1      21.117  14.855  16.3730  0.00  0.00     0.000 OA
ATOM     15   O  BDP B   1      20.108  15.627  18.1600  0.00  0.00     0.000 OA
ENDBRANCH 5 13
BRANCH 1 16
ATOM     16  O3  NAG B   2      20.544  11.091  20.4030  0.00  0.00     0.000 O
BRANCH 16 19
ATOM     17  C1  NAG B   2      21.436  10.169  23.8100  0.00  0.00     0.000 C
ATOM     18  C2  NAG B   2      20.554   9.987  22.5750  0.00  0.00     0.000 C
ATOM     19  C3  NAG B   2      21.331  10.316  21.3090  0.00  0.00     0.000 C
ATOM     20  C4  NAG B   2      22.637  11.053  21.6200  0.00  0.00     0.000 C
ATOM     21  C5  NAG B   2      22.570  12.023  22.8080  0.00  0.00     0.000 C
ATOM     22  O5  NAG B   2      21.718  11.569  23.8660  0.00  0.00     0.000 O
ATOM     23   O  NAG B   2      23.664  10.082  21.8440  0.00  0.00     0.000 O
ATOM     25  HD  NAG B   2      23.157   9.546  22.2960  0.00  0.00     0.000 HD
ATOM     25   C  NAG B   2      22.088  13.407  22.3500  0.00  0.00     0.000 C
ATOM     26   O  NAG B   2      23.170  14.209  21.8560  0.00  0.00     0.000 O
ATOM     28  HD  NAG B   2      22.662  13.673  22.3090  0.00  0.00     0.000 HD
BRANCH 18 30
ATOM     28   N  NAG B   2      21.026   8.698  23.0790  0.00  0.00     0.000 N
ATOM     30  HD  NAG B   2      21.728   8.192  23.1100  0.00  0.00     0.000 HD
ATOM     30   C  NAG B   2      20.631   7.503  22.6190  0.00  0.00     0.000 C
ATOM     31   C  NAG B   2      21.254   6.322  23.3090  0.00  0.00     0.000 C
ATOM     32   O  NAG B   2      19.841   7.365  21.7140  0.00  0.00     0.000 OA
ENDBRANCH 18 30
BRANCH 17 33
ATOM     33  O4  BDP B   3      21.622  10.394  25.2250  0.00  0.00     0.000 O
BRANCH 33 37
ATOM     34  C1  BDP B   3      18.905  11.130  28.4360  0.00  0.00     0.000 C
ATOM     35  C2  BDP B   3      19.812  12.280  28.0140  0.00  0.00     0.000 C
ATOM     36  C3  BDP B   3      20.429  12.095  26.6320  0.00  0.00     0.000 C
ATOM     37  C4  BDP B   3      20.974  10.664  26.5020  0.00  0.00     0.000 C
ATOM     38  C5  BDP B   3      19.805   9.702  26.7890  0.00  0.00     0.000 C
ATOM     39  O5  BDP B   3      19.508   9.858  28.1760  0.00  0.00     0.000 O
ATOM     40   O  BDP B   3      19.019  13.466  28.0980  0.00  0.00     0.000 O
ATOM     42  HD  BDP B   3      19.239  13.368  28.9300  0.00  0.00     0.000 HD
ATOM     42   O  BDP B   3      21.463  13.070  26.5110  0.00  0.00     0.000 O
ATOM     44  HD  BDP B   3      21.683  12.971  27.3430  0.00  0.00     0.000 HD
BRANCH 38 44
ATOM     44   C  BDP B   3      20.100   8.264  26.4920  0.00  0.00     0.000 C
ATOM     45   O  BDP B   3      21.121   7.758  27.0070  0.00  0.00     0.000 OA
ATOM     46   O  BDP B   3      19.333   7.616  25.7480  0.00  0.00     0.000 OA
ENDBRANCH 38 44
BRANCH 34 47
ATOM     47  O3  NAG B   4      19.028  10.837  29.8270  0.00  0.00     0.000 O
BRANCH 47 50
ATOM     48  C1  NAG B   4      15.840  10.000  31.6390  0.00  0.00     0.000 C
ATOM     49  C2  NAG B   4      16.827  10.858  30.8670  0.00  0.00     0.000 C
ATOM     50  C3  NAG B   4      18.048  10.022  30.5030  0.00  0.00     0.000 C
ATOM     51  C4  NAG B   4      18.678   9.387  31.7320  0.00  0.00     0.000 C
ATOM     52  C5  NAG B   4      17.623   8.595  32.5060  0.00  0.00     0.000 C
ATOM     53  O5  NAG B   4      16.487   9.422  32.7900  0.00  0.00     0.000 O
ATOM     54   O  NAG B   4      19.748   8.532  31.3190  0.00  0.00     0.000 O
ATOM     56  HD  NAG B   4      19.761   8.696  32.1700  0.00  0.00     0.000 HD
ATOM     56   C  NAG B   4      18.188   8.048  33.8110  0.00  0.00     0.000 C
ATOM     57   O  NAG B   4      18.632   9.142  34.6240  0.00  0.00     0.000 O
ATOM     59  HD  NAG B   4      18.645   9.306  35.4750  0.00  0.00     0.000 HD
BRANCH 49 61
ATOM     59   N  NAG B   4      15.870  11.497  29.9630  0.00  0.00     0.000 N
ATOM     61  HD  NAG B   4      16.249  11.655  30.7250  0.00  0.00     0.000 HD
ATOM     61   O  NAG B   4      16.687  13.595  30.1390  0.00  0.00     0.000 OA
ATOM     62   C  NAG B   4      15.927  12.789  29.6210  0.00  0.00     0.000 C
ATOM     63   C  NAG B   4      15.001  13.211  28.5250  0.00  0.00     0.000 C
ENDBRANCH 49 61
BRANCH 48 64
ATOM     64  O4  BDP B   5      14.421  10.026  31.7620  0.00  0.00     0.000 O
BRANCH 64 68
ATOM     65  C1  BDP B   5      12.090   6.849  33.1210  0.00  0.00     0.000 C
ATOM     66  C2  BDP B   5      12.005   7.149  31.6300  0.00  0.00     0.000 C
ATOM     67  C3  BDP B   5      13.191   8.009  31.2120  0.00  0.00     0.000 C
ATOM     68  C4  BDP B   5      13.243   9.277  32.0580  0.00  0.00     0.000 C
ATOM     69  C5  BDP B   5      13.222   8.974  33.5500  0.00  0.00     0.000 C
ATOM     70  O5  BDP B   5      12.145   8.074  33.8680  0.00  0.00     0.000 O
ATOM     71   O  BDP B   5      11.957   5.918  30.8930  0.00  0.00     0.000 O
ATOM     73  HD  BDP B   5      11.951   5.148  30.4970  0.00  0.00     0.000 HD
ATOM     73   O  BDP B   5      13.089   8.368  29.8290  0.00  0.00     0.000 O
ATOM     75  HD  BDP B   5      13.083   7.597  29.4330  0.00  0.00     0.000 HD
BRANCH 69 75
ATOM     75   C  BDP B   5      13.031  10.271  34.2940  0.00  0.00     0.000 C
ATOM     76   O  BDP B   5      13.951  10.682  35.0290  0.00  0.00     0.000 OA
ATOM     77   O  BDP B   5      11.963  10.896  34.1520  0.00  0.00     0.000 OA
ENDBRANCH 69 75
BRANCH 65 78
ATOM     78  O3  NAG B   6      10.989   6.623  34.0050  0.00  0.00     0.000 O
BRANCH 78 81
ATOM     79  C1  NAG B   6       9.978   3.836  36.3590  0.00  0.00     0.000 C
ATOM     80  C2  NAG B   6      10.225   4.542  35.0170  0.00  0.00     0.000 C
ATOM     81  C3  NAG B   6      10.893   5.888  35.2450  0.00  0.00     0.000 C
ATOM     82  C4  NAG B   6      10.123   6.712  36.2820  0.00  0.00     0.000 C
ATOM     83  C5  NAG B   6       9.964   5.895  37.5600  0.00  0.00     0.000 C
ATOM     84  O5  NAG B   6       9.238   4.711  37.2300  0.00  0.00     0.000 O
BRANCH 80 87
ATOM     85   N  NAG B   6      10.964   3.594  34.1880  0.00  0.00     0.000 N
ATOM     87  HD  NAG B   6      10.974   2.887  33.6880  0.00  0.00     0.000 HD
ATOM     87   C  NAG B   6      10.779   3.449  32.8700  0.00  0.00     0.000 C
ATOM     88   C  NAG B   6      11.662   2.447  32.1970  0.00  0.00     0.000 C
ATOM     89   O  NAG B   6       9.955   4.097  32.2350  0.00  0.00     0.000 OA
ENDBRANCH 80 87
ATOM     90   O  NAG B   6      10.141   6.919  39.7440  0.00  0.00     0.000 O
ATOM     92  HD  NAG B   6      10.259   6.198  39.2790  0.00  0.00     0.000 HD
ATOM     92   O  NAG B   6      10.141   6.919  39.7440  0.00  0.00     0.000 O
ATOM     94  HD  NAG B   6      10.259   6.198  39.2790  0.00  0.00     0.000 HD
ENDBRANCH 78 81
ENDBRANCH 65 78
ENDBRANCH 64 68
ENDBRANCH 48 64
ENDBRANCH 47 50
ENDBRANCH 34 47
ENDBRANCH 33 37
ENDBRANCH 17 33
ENDBRANCH 16 19
ENDBRANCH 1 16
TORSDOF 16
ENDMDL
MODEL 4
REMARK VINA RESULT:      -8.1      9.940     14.671
ROOT
ATOM      1  C1  BDP B   1       9.087  18.699  22.2570  0.00  0.00     0.000 C
ATOM      2  C2  BDP B   1       8.264  18.817  23.5270  0.00  0.00     0.000 C
ATOM      3  C3  BDP B   1       6.986  18.008  23.4550  0.00  0.00     0.000 C
ATOM      4  C4  BDP B   1       6.957  16.992  22.3190  0.00  0.00     0.000 C
ATOM      5  C5  BDP B   1       7.421  17.579  20.9890  0.00  0.00     0.000 C
ATOM      6  O5  BDP B   1       8.182  18.786  21.1660  0.00  0.00     0.000 O
ATOM      7   O  BDP B   1       9.040  18.391  24.6520  0.00  0.00     0.000 O
ATOM      9  HD  BDP B   1       9.779  18.376  25.1030  0.00  0.00     0.000 HD
ATOM      9   O  BDP B   1       5.861  18.884  23.2850  0.00  0.00     0.000 O
ATOM     11  HD  BDP B   1       6.599  18.870  23.7360  0.00  0.00     0.000 HD
ATOM     11   O  BDP B   1       7.759  15.851  22.6490  0.00  0.00     0.000 O
ATOM     13  HD  BDP B   1       8.498  15.836  23.1000  0.00  0.00     0.000 HD
ENDROOT
BRANCH 5 13
ATOM     13   C  BDP B   1       6.201  17.868  20.1860  0.00  0.00     0.000 C
ATOM     14   O  BDP B   1       6.315  17.930  18.9440  0.00  0.00     0.000 OA
ATOM     15   O  BDP B   1       5.107  18.012  20.7720  0.00  0.00     0.000 OA
ENDBRANCH 5 13
BRANCH 1 16
ATOM     16  O3  NAG B   2      10.423  18.239  22.0570  0.00  0.00     0.000 O
BRANCH 16 19
ATOM     17  C1  NAG B   2      13.929  19.129  22.4630  0.00  0.00     0.000 C
ATOM     18  C2  NAG B   2      12.488  19.152  22.9720  0.00  0.00     0.000 C
ATOM     19  C3  NAG B   2      11.737  17.912  22.5100  0.00  0.00     0.000 C
ATOM     20  C4  NAG B   2      12.494  17.170  21.4050  0.00  0.00     0.000 C
ATOM     21  C5  NAG B   2      13.262  18.068  20.4240  0.00  0.00     0.000 C
ATOM     22  O5  NAG B   2      13.826  19.231  21.0410  0.00  0.00     0.000 O
ATOM     23   O  NAG B   2      13.394  16.239  22.0160  0.00  0.00     0.000 O
ATOM     25  HD  NAG B   2      13.635  16.780  22.6480  0.00  0.00     0.000 HD
ATOM     25   C  NAG B   2      12.349  18.517  19.2740  0.00  0.00     0.000 C
ATOM     26   O  NAG B   2      12.303  17.543  18.2220  0.00  0.00     0.000 O
ATOM     28  HD  NAG B   2      12.544  18.083  18.8540  0.00  0.00     0.000 HD
BRANCH 18 30
ATOM     28   N  NAG B   2      13.426  18.846  24.0510  0.00  0.00     0.000 N
ATOM     30  HD  NAG B   2      13.981  18.239  24.3220  0.00  0.00     0.000 HD
ATOM     30   C  NAG B   2      13.078  18.575  25.3170  0.00  0.00     0.000 C
ATOM     31   C  NAG B   2      14.229  18.302  26.2440  0.00  0.00     0.000 C
ATOM     32   O  NAG B   2      11.932  18.542  25.7010  0.00  0.00     0.000 OA
ENDBRANCH 18 30
BRANCH 17 33
ATOM     33  O4  BDP B   3      15.168  19.781  22.1060  0.00  0.00     0.000 O
BRANCH 33 37
ATOM     34  C1  BDP B   3      19.263  19.312  20.9870  0.00  0.00     0.000 C
ATOM     35  C2  BDP B   3      18.625  20.673  20.7410  0.00  0.00     0.000 C
ATOM     36  C3  BDP B   3      17.340  20.898  21.5300  0.00  0.00     0.000 C
ATOM     37  C4  BDP B   3      16.445  19.654  21.4150  0.00  0.00     0.000 C
ATOM     38  C5  BDP B   3      17.270  18.450  21.9110  0.00  0.00     0.000 C
ATOM     39  O5  BDP B   3      18.295  18.257  20.9360  0.00  0.00     0.000 O
ATOM     40   O  BDP B   3      19.626  21.646  21.0490  0.00  0.00     0.000 O
ATOM     42  HD  BDP B   3      19.870  21.421  20.2500  0.00  0.00     0.000 HD
ATOM     42   O  BDP B   3      16.715  22.054  20.9750  0.00  0.00     0.000 O
ATOM     44  HD  BDP B   3      16.959  21.829  20.1750  0.00  0.00     0.000 HD
BRANCH 38 44
ATOM     44   C  BDP B   3      16.484  17.187  22.0760  0.00  0.00     0.000 C
ATOM     45   O  BDP B   3      16.124  16.582  21.0420  0.00  0.00     0.000 OA
ATOM     46   O  BDP B   3      16.209  16.776  23.2240  0.00  0.00     0.000 OA
ENDBRANCH 38 44
BRANCH 34 47
ATOM     47  O3  NAG B   4      19.832  18.765  19.7990  0.00  0.00     0.000 O
BRANCH 47 50
ATOM     48  C1  NAG B   4      22.010  15.718  20.1400  0.00  0.00     0.000 C
ATOM     49  C2  NAG B   4      21.608  17.175  20.2900  0.00  0.00     0.000 C
ATOM     50  C3  NAG B   4      20.206  17.374  19.7260  0.00  0.00     0.000 C
ATOM     51  C4  NAG B   4      20.109  16.897  18.2860  0.00  0.00     0.000 C
ATOM     52  C5  NAG B   4      20.592  15.449  18.1860  0.00  0.00     0.000 C
ATOM     53  O5  NAG B   4      21.899  15.317  18.7600  0.00  0.00     0.000 O
ATOM     54   O  NAG B   4      18.752  17.008  17.8490  0.00  0.00     0.000 O
ATOM     56  HD  NAG B   4      19.305  16.882  17.1940  0.00  0.00     0.000 HD
ATOM     56   C  NAG B   4      20.628  14.977  16.7370  0.00  0.00     0.000 C
ATOM     57   O  NAG B   4      21.523  15.815  15.9930  0.00  0.00     0.000 O
ATOM     59  HD  NAG B   4      22.075  15.689  15.3380  0.00  0.00     0.000 HD
BRANCH 49 61
ATOM     59   N  NAG B   4      21.998  17.399  21.6830  0.00  0.00     0.000 N
ATOM     61  HD  NAG B   4      22.340  17.479  20.8910  0.00  0.00     0.000 HD
ATOM     61   O  NAG B   4      23.057  19.368  21.3550  0.00  0.00     0.000 OA
ATOM     62   C  NAG B   4      22.621  18.506  22.1050  0.00  0.00     0.000 C
ATOM     63   C  NAG B   4      22.746  18.653  23.5880  0.00  0.00     0.000 C
ENDBRANCH 49 61
BRANCH 48 64
ATOM     64  O4  BDP B   5      22.871  14.867  20.8910  0.00  0.00     0.000 O
BRANCH 64 68
ATOM     65  C1  BDP B   5      21.581  11.807  23.4100  0.00  0.00     0.000 C
ATOM     66  C2  BDP B   5      22.477  12.862  24.0460  0.00  0.00     0.000 C
ATOM     67  C3  BDP B   5      22.511  14.104  23.1650  0.00  0.00     0.000 C
ATOM     68  C4  BDP B   5      22.959  13.735  21.7550  0.00  0.00     0.000 C
ATOM     69  C5  BDP B   5      22.125  12.606  21.1640  0.00  0.00     0.000 C
ATOM     70  O5  BDP B   5      22.042  11.503  22.0840  0.00  0.00     0.000 O
ATOM     71   O  BDP B   5      22.004  13.162  25.3680  0.00  0.00     0.000 O
ATOM     73  HD  BDP B   5      21.665  13.320  26.1500  0.00  0.00     0.000 HD
ATOM     73   O  BDP B   5      23.409  15.080  23.7070  0.00  0.00     0.000 O
ATOM     75  HD  BDP B   5      23.071  15.237  24.4880  0.00  0.00     0.000 HD
BRANCH 69 75
ATOM     75   C  BDP B   5      22.784  12.148  19.8880  0.00  0.00     0.000 C
ATOM     76   O  BDP B   5      22.090  12.052  18.8560  0.00  0.00     0.000 OA
ATOM     77   O  BDP B   5      24.001  11.884  19.8990  0.00  0.00     0.000 OA
ENDBRANCH 69 75
BRANCH 65 78
ATOM     78  O3  NAG B   6      21.717  10.389  23.5380  0.00  0.00     0.000 O
BRANCH 78 81
ATOM     79  C1  NAG B   6      19.513   7.540  24.7040  0.00  0.00     0.000 C
ATOM     80  C2  NAG B   6      20.417   8.778  24.8230  0.00  0.00     0.000 C
ATOM     81  C3  NAG B   6      20.747   9.323  23.4430  0.00  0.00     0.000 C
ATOM     82  C4  NAG B   6      21.277   8.213  22.5290  0.00  0.00     0.000 C
ATOM     83  C5  NAG B   6      20.278   7.063  22.4970  0.00  0.00     0.000 C
ATOM     84  O5  NAG B   6      20.133   6.578  23.8330  0.00  0.00     0.000 O
BRANCH 80 87
ATOM     85   N  NAG B   6      19.730   9.673  25.7500  0.00  0.00     0.000 N
ATOM     87  HD  NAG B   6      19.524   9.895  26.5610  0.00  0.00     0.000 HD
ATOM     87   C  NAG B   6      20.357  10.465  26.6280  0.00  0.00     0.000 C
ATOM     88   C  NAG B   6      19.471  11.333  27.4650  0.00  0.00     0.000 C
ATOM     89   O  NAG B   6      21.576  10.503  26.7440  0.00  0.00     0.000 OA
ENDBRANCH 80 87
ATOM     90   O  NAG B   6      19.820   5.842  20.4610  0.00  0.00     0.000 O
ATOM     92  HD  NAG B   6      19.502   6.119  21.2170  0.00  0.00     0.000 HD
ATOM     92   O  NAG B   6      19.820   5.842  20.4610  0.00  0.00     0.000 O
ATOM     94  HD  NAG B   6      19.502   6.119  21.2170  0.00  0.00     0.000 HD
ENDBRANCH 78 81
ENDBRANCH 65 78
ENDBRANCH 64 68
ENDBRANCH 48 64
ENDBRANCH 47 50
ENDBRANCH 34 47
ENDBRANCH 33 37
ENDBRANCH 17 33
ENDBRANCH 16 19
ENDBRANCH 1 16
TORSDOF 16
ENDMDL
MODEL 5
REMARK VINA RESULT:      -8.0      2.202     15.837
ROOT
ATOM      1  C1  BDP B   1      20.030  11.235  19.4460  0.00  0.00     0.000 C
ATOM      2  C2  BDP B   1      19.691  10.647  18.0880  0.00  0.00     0.000 C
ATOM      3  C3  BDP B   1      20.677  11.073  17.0210  0.00  0.00     0.000 C
ATOM      4  C4  BDP B   1      21.962  11.682  17.5700  0.00  0.00     0.000 C
ATOM      5  C5  BDP B   1      21.706  12.721  18.6580  0.00  0.00     0.000 C
ATOM      6  O5  BDP B   1      20.394  12.590  19.2330  0.00  0.00     0.000 O
ATOM      7   O  BDP B   1      19.659   9.218  18.1700  0.00  0.00     0.000 O
ATOM      9  HD  BDP B   1      19.431   8.485  18.5710  0.00  0.00     0.000 HD
ATOM      9   O  BDP B   1      20.070  12.044  16.1530  0.00  0.00     0.000 O
ATOM     11  HD  BDP B   1      19.842  11.311  16.5540  0.00  0.00     0.000 HD
ATOM     11   O  BDP B   1      22.825  10.656  18.0750  0.00  0.00     0.000 O
ATOM     13  HD  BDP B   1      22.597   9.923  18.4760  0.00  0.00     0.000 HD
ENDROOT
BRANCH 5 13
ATOM     13   C  BDP B   1      21.847  14.062  18.0290  0.00  0.00     0.000 C
ATOM     14   O  BDP B   1      21.918  15.060  18.7770  0.00  0.00     0.000 OA
ATOM     15   O  BDP B   1      21.917  14.146  16.7840  0.00  0.00     0.000 OA
ENDBRANCH 5 13
BRANCH 1 16
ATOM     16  O3  NAG B   2      20.313  10.594  20.6890  0.00  0.00     0.000 O
BRANCH 16 19
ATOM     17  C1  NAG B   2      21.375  10.037  24.1260  0.00  0.00     0.000 C
ATOM     18  C2  NAG B   2      20.477   9.680  22.9410  0.00  0.00     0.000 C
ATOM     19  C3  NAG B   2      21.188   9.966  21.6270  0.00  0.00     0.000 C
ATOM     20  C4  NAG B   2      22.434  10.832  21.8320  0.00  0.00     0.000 C
ATOM     21  C5  NAG B   2      22.318  11.889  22.9390  0.00  0.00     0.000 C
ATOM     22  O5  NAG B   2      21.538  11.456  24.0600  0.00  0.00     0.000 O
ATOM     23   O  NAG B   2      23.547   9.972  22.0970  0.00  0.00     0.000 O
ATOM     25  HD  NAG B   2      23.100   9.435  22.6090  0.00  0.00     0.000 HD
ATOM     25   C  NAG B   2      21.706  13.185  22.3880  0.00  0.00     0.000 C
ATOM     26   O  NAG B   2      22.701  14.031  21.7940  0.00  0.00     0.000 O
ATOM     28  HD  NAG B   2      22.254  13.494  22.3050  0.00  0.00     0.000 HD
BRANCH 18 30
ATOM     28   N  NAG B   2      21.048   8.481  23.5530  0.00  0.00     0.000 N
ATOM     30  HD  NAG B   2      21.790   8.042  23.6340  0.00  0.00     0.000 HD
ATOM     30   C  NAG B   2      20.769   7.223  23.1820  0.00  0.00     0.000 C
ATOM     31   C  NAG B   2      21.476   6.159  23.9740  0.00  0.00     0.000 C
ATOM     32   O  NAG B   2      20.014   6.946  22.2790  0.00  0.00     0.000 OA
ENDBRANCH 18 30
BRANCH 17 33
ATOM     33  O4  BDP B   3      21.580  10.394  25.5110  0.00  0.00     0.000 O
BRANCH 33 37
ATOM     34  C1  BDP B   3      18.904  11.098  28.7640  0.00  0.00     0.000 C
ATOM     35  C2  BDP B   3      19.758  12.270  28.2980  0.00  0.00     0.000 C
ATOM     36  C3  BDP B   3      20.353  12.079  26.9080  0.00  0.00     0.000 C
ATOM     37  C4  BDP B   3      20.949  10.667  26.7960  0.00  0.00     0.000 C
ATOM     38  C5  BDP B   3      19.823   9.668  27.1270  0.00  0.00     0.000 C
ATOM     39  O5  BDP B   3      19.549   9.843  28.5170  0.00  0.00     0.000 O
ATOM     40   O  BDP B   3      18.924  13.428  28.3750  0.00  0.00     0.000 O
ATOM     42  HD  BDP B   3      19.165  13.356  29.2040  0.00  0.00     0.000 HD
ATOM     42   O  BDP B   3      21.347  13.089  26.7440  0.00  0.00     0.000 O
ATOM     44  HD  BDP B   3      21.588  13.016  27.5730  0.00  0.00     0.000 HD
BRANCH 38 44
ATOM     44   C  BDP B   3      20.166   8.237  26.8540  0.00  0.00     0.000 C
ATOM     45   O  BDP B   3      21.237   7.792  27.3220  0.00  0.00     0.000 OA
ATOM     46   O  BDP B   3      19.386   7.533  26.1750  0.00  0.00     0.000 OA
ENDBRANCH 38 44
BRANCH 34 47
ATOM     47  O3  NAG B   4      19.067  10.838  30.1570  0.00  0.00     0.000 O
BRANCH 47 50
ATOM     48  C1  NAG B   4      16.196   8.965  31.7060  0.00  0.00     0.000 C
ATOM     49  C2  NAG B   4      16.895  10.094  30.9700  0.00  0.00     0.000 C
ATOM     50  C3  NAG B   4      18.370   9.749  30.7960  0.00  0.00     0.000 C
ATOM     51  C4  NAG B   4      19.032   9.434  32.1280  0.00  0.00     0.000 C
ATOM     52  C5  NAG B   4      18.245   8.342  32.8530  0.00  0.00     0.000 C
ATOM     53  O5  NAG B   4      16.863   8.708  32.9570  0.00  0.00     0.000 O
ATOM     54   O  NAG B   4      20.378   9.014  31.8910  0.00  0.00     0.000 O
ATOM     56  HD  NAG B   4      20.229   9.203  32.7230  0.00  0.00     0.000 HD
ATOM     56   C  NAG B   4      18.807   8.089  34.2480  0.00  0.00     0.000 C
ATOM     57   O  NAG B   4      18.728   9.300  35.0110  0.00  0.00     0.000 O
ATOM     59  HD  NAG B   4      18.579   9.489  35.8430  0.00  0.00     0.000 HD
BRANCH 49 61
ATOM     59   N  NAG B   4      16.221  11.140  31.7380  0.00  0.00     0.000 N
ATOM     61  HD  NAG B   4      16.816  11.075  31.1130  0.00  0.00     0.000 HD
ATOM     61   O  NAG B   4      15.873  12.562  30.0170  0.00  0.00     0.000 OA
ATOM     62   C  NAG B   4      15.705  12.245  31.1860  0.00  0.00     0.000 C
ATOM     63   C  NAG B   4      14.869  13.092  32.0920  0.00  0.00     0.000 C
ENDBRANCH 49 61
BRANCH 48 64
ATOM     64  O4  BDP B   5      14.858   8.476  31.6860  0.00  0.00     0.000 O
BRANCH 64 68
ATOM     65  C1  BDP B   5      11.218   6.622  32.5110  0.00  0.00     0.000 C
ATOM     66  C2  BDP B   5      11.290   8.113  32.8130  0.00  0.00     0.000 C
ATOM     67  C3  BDP B   5      12.478   8.726  32.0830  0.00  0.00     0.000 C
ATOM     68  C4  BDP B   5      13.761   7.994  32.4610  0.00  0.00     0.000 C
ATOM     69  C5  BDP B   5      13.646   6.489  32.2560  0.00  0.00     0.000 C
ATOM     70  O5  BDP B   5      12.451   5.984  32.8780  0.00  0.00     0.000 O
ATOM     71   O  BDP B   5      10.055   8.741  32.4370  0.00  0.00     0.000 O
ATOM     73  HD  BDP B   5       9.299   9.072  32.1750  0.00  0.00     0.000 HD
ATOM     73   O  BDP B   5      12.611  10.113  32.4140  0.00  0.00     0.000 O
ATOM     75  HD  BDP B   5      11.854  10.445  32.1520  0.00  0.00     0.000 HD
BRANCH 69 75
ATOM     75   C  BDP B   5      14.853   5.833  32.8760  0.00  0.00     0.000 C
ATOM     76   O  BDP B   5      15.065   5.997  34.0950  0.00  0.00     0.000 OA
ATOM     77   O  BDP B   5      15.601   5.144  32.1580  0.00  0.00     0.000 OA
ENDBRANCH 69 75
BRANCH 65 78
ATOM     78  O3  NAG B   6      10.699   5.606  33.3730  0.00  0.00     0.000 O
BRANCH 78 81
ATOM     79  C1  NAG B   6       9.189   2.193  34.0100  0.00  0.00     0.000 C
ATOM     80  C2  NAG B   6       9.823   3.552  34.3480  0.00  0.00     0.000 C
ATOM     81  C3  NAG B   6       9.967   4.393  33.0900  0.00  0.00     0.000 C
ATOM     82  C4  NAG B   6      10.672   3.603  31.9830  0.00  0.00     0.000 C
ATOM     83  C5  NAG B   6       9.931   2.292  31.7460  0.00  0.00     0.000 C
ATOM     84  O5  NAG B   6       9.953   1.556  32.9700  0.00  0.00     0.000 O
BRANCH 80 87
ATOM     85   N  NAG B   6      10.298   4.334  35.4850  0.00  0.00     0.000 N
ATOM     87  HD  NAG B   6      10.331   5.085  35.9160  0.00  0.00     0.000 HD
ATOM     87   C  NAG B   6       9.500   4.836  36.4360  0.00  0.00     0.000 C
ATOM     88   C  NAG B   6      10.188   5.579  37.5360  0.00  0.00     0.000 C
ATOM     89   O  NAG B   6       8.283   4.693  36.4300  0.00  0.00     0.000 OA
ENDBRANCH 80 87
ATOM     90   O  NAG B   6       9.640   1.387  29.5220  0.00  0.00     0.000 O
ATOM     92  HD  NAG B   6       9.308   1.450  30.3200  0.00  0.00     0.000 HD
ATOM     92   O  NAG B   6       9.640   1.387  29.5220  0.00  0.00     0.000 O
ATOM     94  HD  NAG B   6       9.308   1.450  30.3200  0.00  0.00     0.000 HD
ENDBRANCH 78 81
ENDBRANCH 65 78
ENDBRANCH 64 68
ENDBRANCH 48 64
ENDBRANCH 47 50
ENDBRANCH 34 47
ENDBRANCH 33 37
ENDBRANCH 17 33
ENDBRANCH 16 19
ENDBRANCH 1 16
TORSDOF 16
ENDMDL
MODEL 6
REMARK VINA RESULT:      -7.6      3.242     15.430
ROOT
ATOM      1  C1  BDP B   1      18.682  11.764  28.0800  0.00  0.00     0.000 C
ATOM      2  C2  BDP B   1      17.970  10.860  27.0900  0.00  0.00     0.000 C
ATOM      3  C3  BDP B   1      18.870   9.757  26.5760  0.00  0.00     0.000 C
ATOM      4  C4  BDP B   1      20.142   9.561  27.3940  0.00  0.00     0.000 C
ATOM      5  C5  BDP B   1      20.852  10.876  27.7040  0.00  0.00     0.000 C
ATOM      6  O5  BDP B   1      19.980  12.010  27.5590  0.00  0.00     0.000 O
ATOM      7   O  BDP B   1      16.808  10.288  27.7000  0.00  0.00     0.000 O
ATOM      9  HD  BDP B   1      16.096  10.355  28.1890  0.00  0.00     0.000 HD
ATOM      9   O  BDP B   1      19.260  10.033  25.2220  0.00  0.00     0.000 O
ATOM     11  HD  BDP B   1      18.548  10.099  25.7100  0.00  0.00     0.000 HD
ATOM     11   O  BDP B   1      19.851   8.869  28.6140  0.00  0.00     0.000 O
ATOM     13  HD  BDP B   1      19.139   8.936  29.1020  0.00  0.00     0.000 HD
ENDROOT
BRANCH 5 13
ATOM     13   C  BDP B   1      21.993  10.995  26.7560  0.00  0.00     0.000 C
ATOM     14   O  BDP B   1      22.769  10.024  26.6430  0.00  0.00     0.000 OA
ATOM     15   O  BDP B   1      22.123  12.044  26.0900  0.00  0.00     0.000 OA
ENDBRANCH 5 13
BRANCH 1 16
ATOM     16  O3  NAG B   2      18.374  12.077  29.4370  0.00  0.00     0.000 O
BRANCH 16 19
ATOM     17  C1  NAG B   2      16.171  10.159  31.6110  0.00  0.00     0.000 C
ATOM     18  C2  NAG B   2      17.477  10.288  30.8270  0.00  0.00     0.000 C
ATOM     19  C3  NAG B   2      17.912  11.744  30.7470  0.00  0.00     0.000 C
ATOM     20  C4  NAG B   2      16.785  12.696  31.1560  0.00  0.00     0.000 C
ATOM     21  C5  NAG B   2      15.374  12.246  30.7520  0.00  0.00     0.000 C
ATOM     22  O5  NAG B   2      15.189  10.827  30.8150  0.00  0.00     0.000 O
ATOM     23   O  NAG B   2      16.845  12.890  32.5730  0.00  0.00     0.000 O
ATOM     25  HD  NAG B   2      17.023  12.061  32.7490  0.00  0.00     0.000 HD
ATOM     25   C  NAG B   2      15.040  12.721  29.3310  0.00  0.00     0.000 C
ATOM     26   O  NAG B   2      14.529  14.062  29.3250  0.00  0.00     0.000 O
ATOM     28  HD  NAG B   2      14.707  13.233  29.5020  0.00  0.00     0.000 HD
BRANCH 18 30
ATOM     28   N  NAG B   2      17.740   9.465  32.0070  0.00  0.00     0.000 N
ATOM     30  HD  NAG B   2      17.541   9.392  32.8470  0.00  0.00     0.000 HD
ATOM     30   C  NAG B   2      18.913   9.401  32.6530  0.00  0.00     0.000 C
ATOM     31   C  NAG B   2      18.934   8.473  33.8340  0.00  0.00     0.000 C
ATOM     32   O  NAG B   2      19.887  10.039  32.3290  0.00  0.00     0.000 OA
ENDBRANCH 18 30
BRANCH 17 33
ATOM     33  O4  BDP B   3      14.956   9.461  31.9630  0.00  0.00     0.000 O
BRANCH 33 37
ATOM     34  C1  BDP B   3      12.450   6.573  33.8650  0.00  0.00     0.000 C
ATOM     35  C2  BDP B   3      13.564   7.189  34.7030  0.00  0.00     0.000 C
ATOM     36  C3  BDP B   3      14.127   8.479  34.1180  0.00  0.00     0.000 C
ATOM     37  C4  BDP B   3      14.379   8.292  32.6140  0.00  0.00     0.000 C
ATOM     38  C5  BDP B   3      13.045   7.857  31.9770  0.00  0.00     0.000 C
ATOM     39  O5  BDP B   3      12.790   6.544  32.4740  0.00  0.00     0.000 O
ATOM     40   O  BDP B   3      13.021   7.380  36.0110  0.00  0.00     0.000 O
ATOM     42  HD  BDP B   3      13.221   6.538  36.0480  0.00  0.00     0.000 HD
ATOM     42   O  BDP B   3      15.332   8.759  34.8270  0.00  0.00     0.000 O
ATOM     44  HD  BDP B   3      15.532   7.918  34.8640  0.00  0.00     0.000 HD
BRANCH 38 44
ATOM     44   C  BDP B   3      13.050   7.841  30.4800  0.00  0.00     0.000 C
ATOM     45   O  BDP B   3      13.440   6.800  29.9070  0.00  0.00     0.000 OA
ATOM     46   O  BDP B   3      12.671   8.852  29.8500  0.00  0.00     0.000 OA
ENDBRANCH 38 44
BRANCH 34 47
ATOM     47  O3  NAG B   4      12.519   5.148  33.8490  0.00  0.00     0.000 O
BRANCH 47 50
ATOM     48  C1  NAG B   4       9.434   3.273  34.9050  0.00  0.00     0.000 C
ATOM     49  C2  NAG B   4      10.646   4.174  35.0620  0.00  0.00     0.000 C
ATOM     50  C3  NAG B   4      11.326   4.349  33.7090  0.00  0.00     0.000 C
ATOM     51  C4  NAG B   4      11.683   3.009  33.0860  0.00  0.00     0.000 C
ATOM     52  C5  NAG B   4      10.441   2.121  33.0180  0.00  0.00     0.000 C
ATOM     53  O5  NAG B   4       9.827   2.021  34.3090  0.00  0.00     0.000 O
ATOM     54   O  NAG B   4      12.217   3.232  31.7780  0.00  0.00     0.000 O
ATOM     56  HD  NAG B   4      12.362   2.428  32.0650  0.00  0.00     0.000 HD
ATOM     56   C  NAG B   4      10.786   0.724  32.5140  0.00  0.00     0.000 C
ATOM     57   O  NAG B   4      11.734   0.125  33.4070  0.00  0.00     0.000 O
ATOM     59  HD  NAG B   4      11.879  -0.679  33.6950  0.00  0.00     0.000 HD
BRANCH 49 61
ATOM     59   N  NAG B   4      11.304   3.529  36.1990  0.00  0.00     0.000 N
ATOM     61  HD  NAG B   4      11.404   4.233  35.7030  0.00  0.00     0.000 HD
ATOM     61   O  NAG B   4      11.713   5.411  37.3800  0.00  0.00     0.000 OA
ATOM     62   C  NAG B   4      11.713   4.192  37.2870  0.00  0.00     0.000 C
ATOM     63   C  NAG B   4      12.166   3.340  38.4310  0.00  0.00     0.000 C
ENDBRANCH 49 61
BRANCH 48 64
ATOM     64  O4  BDP B   5       8.194   3.185  35.6000  0.00  0.00     0.000 O
BRANCH 64 68
ATOM     65  C1  BDP B   5       5.632   6.363  36.4430  0.00  0.00     0.000 C
ATOM     66  C2  BDP B   5       5.917   5.412  37.5970  0.00  0.00     0.000 C
ATOM     67  C3  BDP B   5       7.160   4.588  37.2880  0.00  0.00     0.000 C
ATOM     68  C4  BDP B   5       6.987   3.856  35.9620  0.00  0.00     0.000 C
ATOM     69  C5  BDP B   5       6.599   4.799  34.8310  0.00  0.00     0.000 C
ATOM     70  O5  BDP B   5       5.486   5.624  35.2200  0.00  0.00     0.000 O
ATOM     71   O  BDP B   5       6.067   6.162  38.8130  0.00  0.00     0.000 O
ATOM     73  HD  BDP B   5       6.168   6.662  39.5120  0.00  0.00     0.000 HD
ATOM     73   O  BDP B   5       7.402   3.632  38.3270  0.00  0.00     0.000 O
ATOM     75  HD  BDP B   5       7.503   4.133  39.0260  0.00  0.00     0.000 HD
BRANCH 69 75
ATOM     75   C  BDP B   5       6.215   3.969  33.6320  0.00  0.00     0.000 C
ATOM     76   O  BDP B   5       6.863   4.106  32.5750  0.00  0.00     0.000 OA
ATOM     77   O  BDP B   5       5.266   3.168  33.7320  0.00  0.00     0.000 OA
ENDBRANCH 69 75
BRANCH 65 78
ATOM     78  O3  NAG B   6       4.348   6.846  36.0380  0.00  0.00     0.000 O
BRANCH 78 81
ATOM     79  C1  NAG B   6       2.413  10.093  35.8270  0.00  0.00     0.000 C
ATOM     80  C2  NAG B   6       2.980   8.816  36.4680  0.00  0.00     0.000 C
ATOM     81  C3  NAG B   6       3.931   8.122  35.5060  0.00  0.00     0.000 C
ATOM     82  C4  NAG B   6       3.274   7.927  34.1350  0.00  0.00     0.000 C
ATOM     83  C5  NAG B   6       2.772   9.270  33.6180  0.00  0.00     0.000 C
ATOM     84  O5  NAG B   6       1.818   9.766  34.5590  0.00  0.00     0.000 O
BRANCH 80 87
ATOM     85   N  NAG B   6       2.736   8.238  37.7860  0.00  0.00     0.000 N
ATOM     87  HD  NAG B   6       2.986   7.721  38.4340  0.00  0.00     0.000 HD
ATOM     87   C  NAG B   6       3.490   8.486  38.8640  0.00  0.00     0.000 C
ATOM     88   C  NAG B   6       3.051   7.821  40.1300  0.00  0.00     0.000 C
ATOM     89   O  NAG B   6       4.472   9.219  38.8390  0.00  0.00     0.000 OA
ENDBRANCH 80 87
ATOM     90   O  NAG B   6       2.943   9.870  31.2820  0.00  0.00     0.000 O
ATOM     92  HD  NAG B   6       2.932  10.161  32.0980  0.00  0.00     0.000 HD
ATOM     92   O  NAG B   6       2.943   9.870  31.2820  0.00  0.00     0.000 O
ATOM     94  HD  NAG B   6       2.932  10.161  32.0980  0.00  0.00     0.000 HD
ENDBRANCH 78 81
ENDBRANCH 65 78
ENDBRANCH 64 68
ENDBRANCH 48 64
ENDBRANCH 47 50
ENDBRANCH 34 47
ENDBRANCH 33 37
ENDBRANCH 17 33
ENDBRANCH 16 19
ENDBRANCH 1 16
TORSDOF 16
ENDMDL
MODEL 7
REMARK VINA RESULT:      -7.5      3.096     15.911
ROOT
ATOM      1  C1  BDP B   1      18.608  11.733  28.0120  0.00  0.00     0.000 C
ATOM      2  C2  BDP B   1      17.796  10.751  27.1860  0.00  0.00     0.000 C
ATOM      3  C3  BDP B   1      18.641   9.608  26.6650  0.00  0.00     0.000 C
ATOM      4  C4  BDP B   1      19.999   9.479  27.3470  0.00  0.00     0.000 C
ATOM      5  C5  BDP B   1      20.728  10.814  27.4670  0.00  0.00     0.000 C
ATOM      6  O5  BDP B   1      19.836  11.933  27.3290  0.00  0.00     0.000 O
ATOM      7   O  BDP B   1      16.715  10.233  27.9690  0.00  0.00     0.000 O
ATOM      9  HD  BDP B   1      16.062  10.340  28.5280  0.00  0.00     0.000 HD
ATOM      9   O  BDP B   1      18.873   9.772  25.2580  0.00  0.00     0.000 O
ATOM     11  HD  BDP B   1      18.220   9.879  25.8160  0.00  0.00     0.000 HD
ATOM     11   O  BDP B   1      19.853   8.890  28.6440  0.00  0.00     0.000 O
ATOM     13  HD  BDP B   1      19.200   8.997  29.2030  0.00  0.00     0.000 HD
ENDROOT
BRANCH 5 13
ATOM     13   C  BDP B   1      21.754  10.854  26.3890  0.00  0.00     0.000 C
ATOM     14   O  BDP B   1      21.363  10.896  25.2040  0.00  0.00     0.000 OA
ATOM     15   O  BDP B   1      22.964  10.870  26.7020  0.00  0.00     0.000 OA
ENDBRANCH 5 13
BRANCH 1 16
ATOM     16  O3  NAG B   2      18.452  12.156  29.3650  0.00  0.00     0.000 O
BRANCH 16 19
ATOM     17  C1  NAG B   2      16.547  10.390  31.9160  0.00  0.00     0.000 C
ATOM     18  C2  NAG B   2      17.764  10.481  30.9950  0.00  0.00     0.000 C
ATOM     19  C3  NAG B   2      18.135  11.934  30.7400  0.00  0.00     0.000 C
ATOM     20  C4  NAG B   2      17.019  12.889  31.1740  0.00  0.00     0.000 C
ATOM     21  C5  NAG B   2      15.593  12.365  30.9580  0.00  0.00     0.000 C
ATOM     22  O5  NAG B   2      15.468  10.953  31.1670  0.00  0.00     0.000 O
ATOM     23   O  NAG B   2      17.212  13.217  32.5530  0.00  0.00     0.000 O
ATOM     25  HD  NAG B   2      17.437  12.413  32.7850  0.00  0.00     0.000 HD
ATOM     25   C  NAG B   2      15.104  12.695  29.5410  0.00  0.00     0.000 C
ATOM     26   O  NAG B   2      14.545  14.015  29.4660  0.00  0.00     0.000 O
ATOM     28  HD  NAG B   2      14.770  13.211  29.6980  0.00  0.00     0.000 HD
BRANCH 18 30
ATOM     28   N  NAG B   2      18.852  10.733  31.9390  0.00  0.00     0.000 N
ATOM     30  HD  NAG B   2      19.695  10.927  31.9730  0.00  0.00     0.000 HD
ATOM     30   C  NAG B   2      19.405   9.809  32.7380  0.00  0.00     0.000 C
ATOM     31   C  NAG B   2      20.502  10.319  33.6280  0.00  0.00     0.000 C
ATOM     32   O  NAG B   2      19.064   8.649  32.7510  0.00  0.00     0.000 OA
ENDBRANCH 18 30
BRANCH 17 33
ATOM     33  O4  BDP B   3      15.400   9.695  32.4510  0.00  0.00     0.000 O
BRANCH 33 37
ATOM     34  C1  BDP B   3      13.199   6.350  33.9370  0.00  0.00     0.000 C
ATOM     35  C2  BDP B   3      14.719   6.250  33.9600  0.00  0.00     0.000 C
ATOM     36  C3  BDP B   3      15.422   7.595  33.8250  0.00  0.00     0.000 C
ATOM     37  C4  BDP B   3      14.773   8.401  32.6890  0.00  0.00     0.000 C
ATOM     38  C5  BDP B   3      13.271   8.521  33.0140  0.00  0.00     0.000 C
ATOM     39  O5  BDP B   3      12.741   7.202  32.8800  0.00  0.00     0.000 O
ATOM     40   O  BDP B   3      15.057   5.582  35.1780  0.00  0.00     0.000 O
ATOM     42  HD  BDP B   3      14.845   4.904  34.6830  0.00  0.00     0.000 HD
ATOM     42   O  BDP B   3      16.796   7.315  33.5590  0.00  0.00     0.000 O
ATOM     44  HD  BDP B   3      16.584   6.637  33.0640  0.00  0.00     0.000 HD
BRANCH 38 44
ATOM     44   C  BDP B   3      12.519   9.462  32.1260  0.00  0.00     0.000 C
ATOM     45   O  BDP B   3      12.301  10.618  32.5500  0.00  0.00     0.000 OA
ATOM     46   O  BDP B   3      12.133   9.076  31.0010  0.00  0.00     0.000 OA
ENDBRANCH 38 44
BRANCH 34 47
ATOM     47  O3  NAG B   4      12.602   5.261  33.2350  0.00  0.00     0.000 O
BRANCH 47 50
ATOM     48  C1  NAG B   4       9.696   3.705  35.0470  0.00  0.00     0.000 C
ATOM     49  C2  NAG B   4      11.127   4.166  34.8330  0.00  0.00     0.000 C
ATOM     50  C3  NAG B   4      11.236   4.875  33.4880  0.00  0.00     0.000 C
ATOM     51  C4  NAG B   4      10.738   3.996  32.3510  0.00  0.00     0.000 C
ATOM     52  C5  NAG B   4       9.322   3.507  32.6540  0.00  0.00     0.000 C
ATOM     53  O5  NAG B   4       9.275   2.881  33.9430  0.00  0.00     0.000 O
ATOM     54   O  NAG B   4      10.762   4.750  31.1350  0.00  0.00     0.000 O
ATOM     56  HD  NAG B   4      10.663   3.900  30.9990  0.00  0.00     0.000 HD
ATOM     56   C  NAG B   4       8.837   2.523  31.5960  0.00  0.00     0.000 C
ATOM     57   O  NAG B   4       9.720   1.393  31.5690  0.00  0.00     0.000 O
ATOM     59  HD  NAG B   4       9.621   0.544  31.4330  0.00  0.00     0.000 HD
BRANCH 49 61
ATOM     59   N  NAG B   4      11.681   2.918  35.3600  0.00  0.00     0.000 N
ATOM     61  HD  NAG B   4      11.964   3.657  35.0070  0.00  0.00     0.000 HD
ATOM     61   O  NAG B   4      13.414   3.840  36.4770  0.00  0.00     0.000 OA
ATOM     62   C  NAG B   4      12.728   2.869  36.1920  0.00  0.00     0.000 C
ATOM     63   C  NAG B   4      13.016   1.529  36.7920  0.00  0.00     0.000 C
ENDBRANCH 49 61
BRANCH 48 64
ATOM     64  O4  BDP B   5       8.906   3.504  36.2150  0.00  0.00     0.000 O
BRANCH 64 68
ATOM     65  C1  BDP B   5       7.315   6.507  38.6270  0.00  0.00     0.000 C
ATOM     66  C2  BDP B   5       8.592   5.850  39.1350  0.00  0.00     0.000 C
ATOM     67  C3  BDP B   5       9.277   5.112  37.9920  0.00  0.00     0.000 C
ATOM     68  C4  BDP B   5       8.317   4.107  37.3660  0.00  0.00     0.000 C
ATOM     69  C5  BDP B   5       6.999   4.751  36.9550  0.00  0.00     0.000 C
ATOM     70  O5  BDP B   5       6.452   5.520  38.0410  0.00  0.00     0.000 O
ATOM     71   O  BDP B   5       9.449   6.847  39.7130  0.00  0.00     0.000 O
ATOM     73  HD  BDP B   5       9.935   7.489  40.0310  0.00  0.00     0.000 HD
ATOM     73   O  BDP B   5      10.440   4.422  38.4660  0.00  0.00     0.000 O
ATOM     75  HD  BDP B   5      10.926   5.065  38.7830  0.00  0.00     0.000 HD
BRANCH 69 75
ATOM     75   C  BDP B   5       6.034   3.656  36.5780  0.00  0.00     0.000 C
ATOM     76   O  BDP B   5       6.038   3.231  35.4050  0.00  0.00     0.000 OA
ATOM     77   O  BDP B   5       5.265   3.204  37.4460  0.00  0.00     0.000 OA
ENDBRANCH 69 75
BRANCH 65 78
ATOM     78  O3  NAG B   6       6.131   6.762  39.3880  0.00  0.00     0.000 O
BRANCH 78 81
ATOM     79  C1  NAG B   6       4.007   9.850  39.9220  0.00  0.00     0.000 C
ATOM     80  C2  NAG B   6       5.243   8.942  40.0180  0.00  0.00     0.000 C
ATOM     81  C3  NAG B   6       5.042   7.689  39.1820  0.00  0.00     0.000 C
ATOM     82  C4  NAG B   6       3.709   7.013  39.5210  0.00  0.00     0.000 C
ATOM     83  C5  NAG B   6       2.577   8.023  39.3710  0.00  0.00     0.000 C
ATOM     84  O5  NAG B   6       2.833   9.097  40.2770  0.00  0.00     0.000 O
BRANCH 80 87
ATOM     85   N  NAG B   6       6.418   9.337  40.7900  0.00  0.00     0.000 N
ATOM     87  HD  NAG B   6       7.231   9.185  41.0460  0.00  0.00     0.000 HD
ATOM     87   C  NAG B   6       7.590   9.686  40.2440  0.00  0.00     0.000 C
ATOM     88   C  NAG B   6       8.659  10.093  41.2070  0.00  0.00     0.000 C
ATOM     89   O  NAG B   6       7.788   9.693  39.0340  0.00  0.00     0.000 OA
ENDBRANCH 80 87
ATOM     90   O  NAG B   6       0.433   7.391  38.4480  0.00  0.00     0.000 O
ATOM     92  HD  NAG B   6       1.011   8.028  38.5470  0.00  0.00     0.000 HD
ATOM     92   O  NAG B   6       0.433   7.391  38.4480  0.00  0.00     0.000 O
ATOM     94  HD  NAG B   6       1.011   8.028  38.5470  0.00  0.00     0.000 HD
ENDBRANCH 78 81
ENDBRANCH 65 78
ENDBRANCH 64 68
ENDBRANCH 48 64
ENDBRANCH 47 50
ENDBRANCH 34 47
ENDBRANCH 33 37
ENDBRANCH 17 33
ENDBRANCH 16 19
ENDBRANCH 1 16
TORSDOF 16
ENDMDL
MODEL 8
REMARK VINA RESULT:      -7.5      3.720     15.060
ROOT
ATOM      1  C1  BDP B   1      18.830  11.651  27.9800  0.00  0.00     0.000 C
ATOM      2  C2  BDP B   1      18.130  10.805  26.9320  0.00  0.00     0.000 C
ATOM      3  C3  BDP B   1      19.013   9.686  26.4200  0.00  0.00     0.000 C
ATOM      4  C4  BDP B   1      20.241   9.419  27.2830  0.00  0.00     0.000 C
ATOM      5  C5  BDP B   1      20.982  10.697  27.6660  0.00  0.00     0.000 C
ATOM      6  O5  BDP B   1      20.157  11.865  27.5220  0.00  0.00     0.000 O
ATOM      7   O  BDP B   1      16.924  10.256  27.4750  0.00  0.00     0.000 O
ATOM      9  HD  BDP B   1      16.195  10.333  27.9350  0.00  0.00     0.000 HD
ATOM      9   O  BDP B   1      19.470   9.990  25.0930  0.00  0.00     0.000 O
ATOM     11  HD  BDP B   1      18.740  10.067  25.5530  0.00  0.00     0.000 HD
ATOM     11   O  BDP B   1      19.874   8.700  28.4670  0.00  0.00     0.000 O
ATOM     13  HD  BDP B   1      19.144   8.777  28.9270  0.00  0.00     0.000 HD
ENDROOT
BRANCH 5 13
ATOM     13   C  BDP B   1      22.166  10.804  26.7710  0.00  0.00     0.000 C
ATOM     14   O  BDP B   1      22.285  11.832  26.0710  0.00  0.00     0.000 OA
ATOM     15   O  BDP B   1      23.011   9.884  26.7670  0.00  0.00     0.000 OA
ENDBRANCH 5 13
BRANCH 1 16
ATOM     16  O3  NAG B   2      18.476  11.932  29.3330  0.00  0.00     0.000 O
BRANCH 16 19
ATOM     17  C1  NAG B   2      16.238  10.030  31.4850  0.00  0.00     0.000 C
ATOM     18  C2  NAG B   2      17.521  10.124  30.6580  0.00  0.00     0.000 C
ATOM     19  C3  NAG B   2      18.042  11.553  30.6400  0.00  0.00     0.000 C
ATOM     20  C4  NAG B   2      16.992  12.547  31.1440  0.00  0.00     0.000 C
ATOM     21  C5  NAG B   2      15.542  12.206  30.7730  0.00  0.00     0.000 C
ATOM     22  O5  NAG B   2      15.272  10.799  30.7660  0.00  0.00     0.000 O
ATOM     23   O  NAG B   2      17.115  12.657  32.5660  0.00  0.00     0.000 O
ATOM     25  HD  NAG B   2      17.248  11.810  32.6900  0.00  0.00     0.000 HD
ATOM     25   C  NAG B   2      15.187  12.780  29.3940  0.00  0.00     0.000 C
ATOM     26   O  NAG B   2      14.760  14.147  29.4810  0.00  0.00     0.000 O
ATOM     28  HD  NAG B   2      14.892  13.300  29.6060  0.00  0.00     0.000 HD
BRANCH 18 30
ATOM     28   N  NAG B   2      18.716  10.032  31.4960  0.00  0.00     0.000 N
ATOM     30  HD  NAG B   2      19.570   9.892  31.4550  0.00  0.00     0.000 HD
ATOM     30   C  NAG B   2      18.964   9.051  32.3750  0.00  0.00     0.000 C
ATOM     31   C  NAG B   2      20.259   9.187  33.1250  0.00  0.00     0.000 C
ATOM     32   O  NAG B   2      18.218   8.118  32.5600  0.00  0.00     0.000 OA
ENDBRANCH 18 30
BRANCH 17 33
ATOM     33  O4  BDP B   3      14.996   9.388  31.8470  0.00  0.00     0.000 O
BRANCH 33 37
ATOM     34  C1  BDP B   3      12.381   6.658  33.8340  0.00  0.00     0.000 C
ATOM     35  C2  BDP B   3      13.544   7.222  34.6420  0.00  0.00     0.000 C
ATOM     36  C3  BDP B   3      14.162   8.474  34.0300  0.00  0.00     0.000 C
ATOM     37  C4  BDP B   3      14.372   8.258  32.5230  0.00  0.00     0.000 C
ATOM     38  C5  BDP B   3      13.003   7.888  31.9200  0.00  0.00     0.000 C
ATOM     39  O5  BDP B   3      12.690   6.595  32.4370  0.00  0.00     0.000 O
ATOM     40   O  BDP B   3      13.040   7.455  35.9590  0.00  0.00     0.000 O
ATOM     42  HD  BDP B   3      13.196   6.604  36.0010  0.00  0.00     0.000 HD
ATOM     42   O  BDP B   3      15.396   8.697  34.7110  0.00  0.00     0.000 O
ATOM     44  HD  BDP B   3      15.551   7.846  34.7530  0.00  0.00     0.000 HD
BRANCH 38 44
ATOM     44   C  BDP B   3      12.975   7.856  30.4230  0.00  0.00     0.000 C
ATOM     45   O  BDP B   3      13.357   6.810  29.8530  0.00  0.00     0.000 OA
ATOM     46   O  BDP B   3      12.579   8.859  29.7910  0.00  0.00     0.000 OA
ENDBRANCH 38 44
BRANCH 34 47
ATOM     47  O3  NAG B   4      12.374   5.231  33.8340  0.00  0.00     0.000 O
BRANCH 47 50
ATOM     48  C1  NAG B   4       9.016   3.598  34.2880  0.00  0.00     0.000 C
ATOM     49  C2  NAG B   4      10.226   4.436  34.6610  0.00  0.00     0.000 C
ATOM     50  C3  NAG B   4      11.185   4.495  33.4780  0.00  0.00     0.000 C
ATOM     51  C4  NAG B   4      11.574   3.104  33.0020  0.00  0.00     0.000 C
ATOM     52  C5  NAG B   4      10.316   2.286  32.7090  0.00  0.00     0.000 C
ATOM     53  O5  NAG B   4       9.439   2.295  33.8430  0.00  0.00     0.000 O
ATOM     54   O  NAG B   4      12.383   3.222  31.8290  0.00  0.00     0.000 O
ATOM     56  HD  NAG B   4      12.410   2.429  32.1750  0.00  0.00     0.000 HD
ATOM     56   C  NAG B   4      10.663   0.846  32.3500  0.00  0.00     0.000 C
ATOM     57   O  NAG B   4      11.360   0.245  33.4490  0.00  0.00     0.000 O
ATOM     59  HD  NAG B   4      11.386  -0.549  33.7950  0.00  0.00     0.000 HD
BRANCH 49 61
ATOM     59   N  NAG B   4      10.640   3.821  35.9230  0.00  0.00     0.000 N
ATOM     61  HD  NAG B   4      10.850   4.503  35.4320  0.00  0.00     0.000 HD
ATOM     61   O  NAG B   4      10.865   5.736  37.0980  0.00  0.00     0.000 OA
ATOM     62   C  NAG B   4      10.852   4.515  37.0470  0.00  0.00     0.000 C
ATOM     63   C  NAG B   4      11.058   3.698  38.2830  0.00  0.00     0.000 C
ENDBRANCH 49 61
BRANCH 48 64
ATOM     64  O4  BDP B   5       7.654   3.620  34.7070  0.00  0.00     0.000 O
BRANCH 64 68
ATOM     65  C1  BDP B   5       4.524   5.420  32.6250  0.00  0.00     0.000 C
ATOM     66  C2  BDP B   5       4.645   5.789  34.0980  0.00  0.00     0.000 C
ATOM     67  C3  BDP B   5       6.033   5.422  34.6060  0.00  0.00     0.000 C
ATOM     68  C4  BDP B   5       6.311   3.944  34.3520  0.00  0.00     0.000 C
ATOM     69  C5  BDP B   5       6.086   3.559  32.8960  0.00  0.00     0.000 C
ATOM     70  O5  BDP B   5       4.802   4.023  32.4420  0.00  0.00     0.000 O
ATOM     71   O  BDP B   5       4.370   7.188  34.2680  0.00  0.00     0.000 O
ATOM     73  HD  BDP B   5       4.216   8.039  34.3130  0.00  0.00     0.000 HD
ATOM     73   O  BDP B   5       6.142   5.689  36.0090  0.00  0.00     0.000 O
ATOM     75  HD  BDP B   5       5.988   6.540  36.0530  0.00  0.00     0.000 HD
BRANCH 69 75
ATOM     75   C  BDP B   5       6.144   2.056  32.7890  0.00  0.00     0.000 C
ATOM     76   O  BDP B   5       6.860   1.545  31.9040  0.00  0.00     0.000 OA
ATOM     77   O  BDP B   5       5.481   1.369  33.5870  0.00  0.00     0.000 OA
ENDBRANCH 69 75
BRANCH 65 78
ATOM     78  O3  NAG B   6       3.327   5.039  31.9410  0.00  0.00     0.000 O
BRANCH 78 81
ATOM     79  C1  NAG B   6       1.418   6.211  28.8890  0.00  0.00     0.000 C
ATOM     80  C2  NAG B   6       1.934   6.232  30.3360  0.00  0.00     0.000 C
ATOM     81  C3  NAG B   6       2.953   5.124  30.5480  0.00  0.00     0.000 C
ATOM     82  C4  NAG B   6       2.402   3.776  30.0720  0.00  0.00     0.000 C
ATOM     83  C5  NAG B   6       1.942   3.900  28.6240  0.00  0.00     0.000 C
ATOM     84  O5  NAG B   6       0.921   4.897  28.5780  0.00  0.00     0.000 O
BRANCH 80 87
ATOM     85   N  NAG B   6       2.374   7.605  30.5700  0.00  0.00     0.000 N
ATOM     87  HD  NAG B   6       2.186   8.430  30.7530  0.00  0.00     0.000 HD
ATOM     87   C  NAG B   6       2.260   8.238  31.7440  0.00  0.00     0.000 C
ATOM     88   C  NAG B   6       2.804   9.631  31.7850  0.00  0.00     0.000 C
ATOM     89   O  NAG B   6       1.760   7.722  32.7360  0.00  0.00     0.000 OA
ENDBRANCH 80 87
ATOM     90   O  NAG B   6       2.291   2.116  27.0290  0.00  0.00     0.000 O
ATOM     92  HD  NAG B   6       2.218   2.971  27.1430  0.00  0.00     0.000 HD
ATOM     92   O  NAG B   6       2.291   2.116  27.0290  0.00  0.00     0.000 O
ATOM     94  HD  NAG B   6       2.218   2.971  27.1430  0.00  0.00     0.000 HD
ENDBRANCH 78 81
ENDBRANCH 65 78
ENDBRANCH 64 68
ENDBRANCH 48 64
ENDBRANCH 47 50
ENDBRANCH 34 47
ENDBRANCH 33 37
ENDBRANCH 17 33
ENDBRANCH 16 19
ENDBRANCH 1 16
TORSDOF 16
ENDMDL
MODEL 9
REMARK VINA RESULT:      -7.3      4.170     15.521
ROOT
ATOM      1  C1  BDP B   1      20.591  11.587  19.2380  0.00  0.00     0.000 C
ATOM      2  C2  BDP B   1      19.622  11.294  18.1070  0.00  0.00     0.000 C
ATOM      3  C3  BDP B   1      20.107  11.845  16.7830  0.00  0.00     0.000 C
ATOM      4  C4  BDP B   1      21.578  12.247  16.7790  0.00  0.00     0.000 C
ATOM      5  C5  BDP B   1      21.967  13.074  18.0000  0.00  0.00     0.000 C
ATOM      6  O5  BDP B   1      21.025  12.929  19.0760  0.00  0.00     0.000 O
ATOM      7   O  BDP B   1      19.418   9.882  17.9940  0.00  0.00     0.000 O
ATOM      9  HD  BDP B   1      19.278   9.104  18.3470  0.00  0.00     0.000 HD
ATOM      9   O  BDP B   1      19.338  13.004  16.4230  0.00  0.00     0.000 O
ATOM     11  HD  BDP B   1      19.198  12.226  16.7770  0.00  0.00     0.000 HD
ATOM     11   O  BDP B   1      22.413  11.086  16.6960  0.00  0.00     0.000 O
ATOM     13  HD  BDP B   1      22.273  10.308  17.0490  0.00  0.00     0.000 HD
ENDROOT
BRANCH 5 13
ATOM     13   C  BDP B   1      22.022  14.498  17.5690  0.00  0.00     0.000 C
ATOM     14   O  BDP B   1      20.957  15.150  17.5510  0.00  0.00     0.000 OA
ATOM     15   O  BDP B   1      23.126  14.999  17.2660  0.00  0.00     0.000 OA
ENDBRANCH 5 13
BRANCH 1 16
ATOM     16  O3  NAG B   2      21.281  10.703  20.1200  0.00  0.00     0.000 O
BRANCH 16 19
ATOM     17  C1  NAG B   2      19.934   9.135  23.1160  0.00  0.00     0.000 C
ATOM     18  C2  NAG B   2      19.938   9.307  21.5970  0.00  0.00     0.000 C
ATOM     19  C3  NAG B   2      21.331   9.668  21.1030  0.00  0.00     0.000 C
ATOM     20  C4  NAG B   2      22.248  10.092  22.2530  0.00  0.00     0.000 C
ATOM     21  C5  NAG B   2      21.560  10.870  23.3830  0.00  0.00     0.000 C
ATOM     22  O5  NAG B   2      20.221  10.432  23.6420  0.00  0.00     0.000 O
ATOM     23   O  NAG B   2      22.881   8.923  22.7840  0.00  0.00     0.000 O
ATOM     25  HD  NAG B   2      22.170   8.430  22.7350  0.00  0.00     0.000 HD
ATOM     25   C  NAG B   2      21.533  12.372  23.0670  0.00  0.00     0.000 C
ATOM     26   O  NAG B   2      22.748  13.021  23.4670  0.00  0.00     0.000 O
ATOM     28  HD  NAG B   2      22.037  12.529  23.4180  0.00  0.00     0.000 HD
BRANCH 18 30
ATOM     28   N  NAG B   2      20.221   7.898  21.8640  0.00  0.00     0.000 N
ATOM     30  HD  NAG B   2      20.867   7.322  21.8780  0.00  0.00     0.000 HD
ATOM     30   C  NAG B   2      19.810   6.874  21.1030  0.00  0.00     0.000 C
ATOM     31   C  NAG B   2      20.221   5.515  21.5950  0.00  0.00     0.000 C
ATOM     32   O  NAG B   2      19.163   7.014  20.0910  0.00  0.00     0.000 OA
ENDBRANCH 18 30
BRANCH 17 33
ATOM     33  O4  BDP B   3      19.266   9.108  24.3970  0.00  0.00     0.000 O
BRANCH 33 37
ATOM     34  C1  BDP B   3      19.045   9.572  28.6370  0.00  0.00     0.000 C
ATOM     35  C2  BDP B   3      18.002  10.303  27.8000  0.00  0.00     0.000 C
ATOM     36  C3  BDP B   3      17.876   9.768  26.3780  0.00  0.00     0.000 C
ATOM     37  C4  BDP B   3      19.276   9.581  25.7750  0.00  0.00     0.000 C
ATOM     38  C5  BDP B   3      20.058   8.645  26.7170  0.00  0.00     0.000 C
ATOM     39  O5  BDP B   3      20.270   9.392  27.9150  0.00  0.00     0.000 O
ATOM     40   O  BDP B   3      16.773  10.210  28.5240  0.00  0.00     0.000 O
ATOM     42  HD  BDP B   3      17.151  10.867  28.9440  0.00  0.00     0.000 HD
ATOM     42   O  BDP B   3      17.107  10.724  25.6480  0.00  0.00     0.000 O
ATOM     44  HD  BDP B   3      17.485  11.380  26.0680  0.00  0.00     0.000 HD
BRANCH 38 44
ATOM     44   C  BDP B   3      21.371   8.176  26.1740  0.00  0.00     0.000 C
ATOM     45   O  BDP B   3      21.479   6.969  25.8640  0.00  0.00     0.000 OA
ATOM     46   O  BDP B   3      22.313   8.988  26.0460  0.00  0.00     0.000 OA
ENDBRANCH 38 44
BRANCH 34 47
ATOM     47  O3  NAG B   4      19.755  10.459  29.4990  0.00  0.00     0.000 O
BRANCH 47 50
ATOM     48  C1  NAG B   4      20.164   9.623  33.1440  0.00  0.00     0.000 C
ATOM     49  C2  NAG B   4      19.446  10.071  31.8830  0.00  0.00     0.000 C
ATOM     50  C3  NAG B   4      20.397   9.974  30.6960  0.00  0.00     0.000 C
ATOM     51  C4  NAG B   4      21.677  10.759  30.9390  0.00  0.00     0.000 C
ATOM     52  C5  NAG B   4      22.317  10.314  32.2540  0.00  0.00     0.000 C
ATOM     53  O5  NAG B   4      21.367  10.396  33.3250  0.00  0.00     0.000 O
ATOM     54   O  NAG B   4      22.571  10.542  29.8440  0.00  0.00     0.000 O
ATOM     56  HD  NAG B   4      22.810  11.208  30.3430  0.00  0.00     0.000 HD
ATOM     56   C  NAG B   4      23.535  11.167  32.5930  0.00  0.00     0.000 C
ATOM     57   O  NAG B   4      23.127  12.536  32.7170  0.00  0.00     0.000 O
ATOM     59  HD  NAG B   4      23.367  13.201  33.2170  0.00  0.00     0.000 HD
BRANCH 49 61
ATOM     59   N  NAG B   4      18.194   9.353  32.1260  0.00  0.00     0.000 N
ATOM     61  HD  NAG B   4      18.527  10.141  32.2580  0.00  0.00     0.000 HD
ATOM     61   O  NAG B   4      16.800  11.027  31.5320  0.00  0.00     0.000 OA
ATOM     62   C  NAG B   4      16.987   9.865  31.8610  0.00  0.00     0.000 C
ATOM     63   C  NAG B   4      15.841   8.910  31.9710  0.00  0.00     0.000 C
ENDBRANCH 49 61
BRANCH 48 64
ATOM     64  O4  BDP B   5      19.716   9.015  34.3510  0.00  0.00     0.000 O
BRANCH 64 68
ATOM     65  C1  BDP B   5      17.690   5.417  34.9200  0.00  0.00     0.000 C
ATOM     66  C2  BDP B   5      17.399   6.514  35.9350  0.00  0.00     0.000 C
ATOM     67  C3  BDP B   5      17.847   7.859  35.3790  0.00  0.00     0.000 C
ATOM     68  C4  BDP B   5      19.321   7.802  34.9910  0.00  0.00     0.000 C
ATOM     69  C5  BDP B   5      19.625   6.638  34.0570  0.00  0.00     0.000 C
ATOM     70  O5  BDP B   5      19.087   5.413  34.5840  0.00  0.00     0.000 O
ATOM     71   O  BDP B   5      16.000   6.512  36.2580  0.00  0.00     0.000 O
ATOM     73  HD  BDP B   5      15.147   6.481  36.4020  0.00  0.00     0.000 HD
ATOM     73   O  BDP B   5      17.654   8.894  36.3500  0.00  0.00     0.000 O
ATOM     75  HD  BDP B   5      16.800   8.863  36.4930  0.00  0.00     0.000 HD
BRANCH 69 75
ATOM     75   C  BDP B   5      21.122   6.515  33.9250  0.00  0.00     0.000 C
ATOM     76   O  BDP B   5      21.840   6.888  34.8740  0.00  0.00     0.000 OA
ATOM     77   O  BDP B   5      21.598   6.042  32.8770  0.00  0.00     0.000 OA
ENDBRANCH 69 75
BRANCH 65 78
ATOM     78  O3  NAG B   6      17.988   4.048  35.2100  0.00  0.00     0.000 O
BRANCH 78 81
ATOM     79  C1  NAG B   6      16.521   0.591  34.7320  0.00  0.00     0.000 C
ATOM     80  C2  NAG B   6      16.754   1.956  35.3990  0.00  0.00     0.000 C
ATOM     81  C3  NAG B   6      17.639   2.827  34.5230  0.00  0.00     0.000 C
ATOM     82  C4  NAG B   6      18.910   2.076  34.1130  0.00  0.00     0.000 C
ATOM     83  C5  NAG B   6      18.528   0.754  33.4560  0.00  0.00     0.000 C
ATOM     84  O5  NAG B   6      17.790  -0.007  34.4120  0.00  0.00     0.000 O
BRANCH 80 87
ATOM     85   N  NAG B   6      16.127   2.293  36.6740  0.00  0.00     0.000 N
ATOM     87  HD  NAG B   6      15.967   2.870  37.3000  0.00  0.00     0.000 HD
ATOM     87   C  NAG B   6      15.141   3.188  36.8110  0.00  0.00     0.000 C
ATOM     88   C  NAG B   6      14.611   3.363  38.1980  0.00  0.00     0.000 C
ATOM     89   O  NAG B   6      14.679   3.822  35.8690  0.00  0.00     0.000 OA
ENDBRANCH 80 87
ATOM     90   O  NAG B   6      19.743  -0.108  31.5510  0.00  0.00     0.000 O
ATOM     92  HD  NAG B   6      18.978  -0.069  31.9550  0.00  0.00     0.000 HD
ATOM     92   O  NAG B   6      19.743  -0.108  31.5510  0.00  0.00     0.000 O
ATOM     94  HD  NAG B   6      18.978  -0.069  31.9550  0.00  0.00     0.000 HD
ENDBRANCH 78 81
ENDBRANCH 65 78
ENDBRANCH 64 68
ENDBRANCH 48 64
ENDBRANCH 47 50
ENDBRANCH 34 47
ENDBRANCH 33 37
ENDBRANCH 17 33
ENDBRANCH 16 19
ENDBRANCH 1 16
TORSDOF 16
ENDMDL
MODEL 10
REMARK VINA RESULT:      -7.2      2.330      4.457
ROOT
ATOM      1  C1  BDP B   1       9.416   8.987  36.3110  0.00  0.00     0.000 C
ATOM      2  C2  BDP B   1       9.859   9.289  37.7320  0.00  0.00     0.000 C
ATOM      3  C3  BDP B   1       9.797   8.064  38.6200  0.00  0.00     0.000 C
ATOM      4  C4  BDP B   1       9.659   6.751  37.8580  0.00  0.00     0.000 C
ATOM      5  C5  BDP B   1       8.591   6.809  36.7700  0.00  0.00     0.000 C
ATOM      6  O5  BDP B   1       8.266   8.160  36.4010  0.00  0.00     0.000 O
ATOM      7   O  BDP B   1      11.191   9.812  37.7260  0.00  0.00     0.000 O
ATOM      9  HD  BDP B   1      11.802  10.332  37.4000  0.00  0.00     0.000 HD
ATOM      9   O  BDP B   1       8.681   8.167  39.5180  0.00  0.00     0.000 O
ATOM     11  HD  BDP B   1       9.291   8.687  39.1920  0.00  0.00     0.000 HD
ATOM     11   O  BDP B   1      10.915   6.372  37.2830  0.00  0.00     0.000 O
ATOM     13  HD  BDP B   1      11.525   6.893  36.9570  0.00  0.00     0.000 HD
ENDROOT
BRANCH 5 13
ATOM     13   C  BDP B   1       7.379   6.129  37.3040  0.00  0.00     0.000 C
ATOM     14   O  BDP B   1       7.276   4.895  37.1410  0.00  0.00     0.000 OA
ATOM     15   O  BDP B   1       6.524   6.803  37.9170  0.00  0.00     0.000 OA
ENDBRANCH 5 13
BRANCH 1 16
ATOM     16  O3  NAG B   2      10.111   9.132  35.0730  0.00  0.00     0.000 O
BRANCH 16 19
ATOM     17  C1  NAG B   2      13.397   8.970  33.5160  0.00  0.00     0.000 C
ATOM     18  C2  NAG B   2      12.382   8.440  34.5290  0.00  0.00     0.000 C
ATOM     19  C3  NAG B   2      10.962   8.660  34.0280  0.00  0.00     0.000 C
ATOM     20  C4  NAG B   2      10.921   9.634  32.8480  0.00  0.00     0.000 C
ATOM     21  C5  NAG B   2      11.947  10.774  32.9080  0.00  0.00     0.000 C
ATOM     22  O5  NAG B   2      13.197  10.385  33.4890  0.00  0.00     0.000 O
ATOM     23   O  NAG B   2      11.093   8.890  31.6380  0.00  0.00     0.000 O
ATOM     25  HD  NAG B   2      11.703   8.368  31.9630  0.00  0.00     0.000 HD
ATOM     25   C  NAG B   2      11.387  11.965  33.7000  0.00  0.00     0.000 C
ATOM     26   O  NAG B   2      10.594  12.828  32.8730  0.00  0.00     0.000 O
ATOM     28  HD  NAG B   2      11.204  12.306  33.1980  0.00  0.00     0.000 HD
BRANCH 18 30
ATOM     28   N  NAG B   2      12.484   7.299  33.6190  0.00  0.00     0.000 N
ATOM     30  HD  NAG B   2      12.007   6.788  33.1080  0.00  0.00     0.000 HD
ATOM     30   C  NAG B   2      12.772   6.044  33.9910  0.00  0.00     0.000 C
ATOM     31   C  NAG B   2      12.830   5.049  32.8670  0.00  0.00     0.000 C
ATOM     32   O  NAG B   2      12.967   5.718  35.1390  0.00  0.00     0.000 OA
ENDBRANCH 18 30
BRANCH 17 33
ATOM     33  O4  BDP B   3      14.706   9.465  33.1590  0.00  0.00     0.000 O
BRANCH 33 37
ATOM     34  C1  BDP B   3      17.921  10.408  30.5090  0.00  0.00     0.000 C
ATOM     35  C2  BDP B   3      16.557  10.141  29.8830  0.00  0.00     0.000 C
ATOM     36  C3  BDP B   3      15.402  10.233  30.8740  0.00  0.00     0.000 C
ATOM     37  C4  BDP B   3      15.765   9.471  32.1570  0.00  0.00     0.000 C
ATOM     38  C5  BDP B   3      17.081  10.070  32.6880  0.00  0.00     0.000 C
ATOM     39  O5  BDP B   3      18.084   9.698  31.7430  0.00  0.00     0.000 O
ATOM     40   O  BDP B   3      16.423  11.071  28.8070  0.00  0.00     0.000 O
ATOM     42  HD  BDP B   3      16.910  10.464  28.4270  0.00  0.00     0.000 HD
ATOM     42   O  BDP B   3      14.262   9.671  30.2260  0.00  0.00     0.000 O
ATOM     44  HD  BDP B   3      14.749   9.065  29.8470  0.00  0.00     0.000 HD
BRANCH 38 44
ATOM     44   C  BDP B   3      17.470   9.595  34.0530  0.00  0.00     0.000 C
ATOM     45   O  BDP B   3      18.107   8.522  34.1400  0.00  0.00     0.000 OA
ATOM     46   O  BDP B   3      17.154  10.271  35.0570  0.00  0.00     0.000 OA
ENDBRANCH 38 44
BRANCH 34 47
ATOM     47  O3  NAG B   4      18.934   9.566  29.9620  0.00  0.00     0.000 O
BRANCH 47 50
ATOM     48  C1  NAG B   4      21.967  10.363  27.8850  0.00  0.00     0.000 C
ATOM     49  C2  NAG B   4      20.559   9.874  28.1750  0.00  0.00     0.000 C
ATOM     50  C3  NAG B   4      20.243  10.085  29.6510  0.00  0.00     0.000 C
ATOM     51  C4  NAG B   4      21.278   9.421  30.5450  0.00  0.00     0.000 C
ATOM     52  C5  NAG B   4      22.679   9.898  30.1610  0.00  0.00     0.000 C
ATOM     53  O5  NAG B   4      22.905   9.705  28.7590  0.00  0.00     0.000 O
ATOM     54   O  NAG B   4      20.991   9.744  31.9090  0.00  0.00     0.000 O
ATOM     56  HD  NAG B   4      21.558   9.094  31.8320  0.00  0.00     0.000 HD
ATOM     56   C  NAG B   4      23.752   9.159  30.9530  0.00  0.00     0.000 C
ATOM     57   O  NAG B   4      23.651   7.756  30.6800  0.00  0.00     0.000 O
ATOM     59  HD  NAG B   4      24.218   7.106  30.6030  0.00  0.00     0.000 HD
BRANCH 49 61
ATOM     59   N  NAG B   4      20.689   8.624  27.4250  0.00  0.00     0.000 N
ATOM     61  HD  NAG B   4      20.093   9.040  27.8960  0.00  0.00     0.000 HD
ATOM     61   O  NAG B   4      18.651   8.678  26.4520  0.00  0.00     0.000 OA
ATOM     62   C  NAG B   4      19.758   8.173  26.5760  0.00  0.00     0.000 C
ATOM     63   C  NAG B   4      20.157   6.996  25.7430  0.00  0.00     0.000 C
ENDBRANCH 49 61
BRANCH 48 64
ATOM     64  O4  BDP B   5      22.586  10.902  26.7210  0.00  0.00     0.000 O
BRANCH 64 68
ATOM     65  C1  BDP B   5      21.958   9.687  22.7830  0.00  0.00     0.000 C
ATOM     66  C2  BDP B   5      23.149   9.057  23.4940  0.00  0.00     0.000 C
ATOM     67  C3  BDP B   5      23.006   9.246  24.9990  0.00  0.00     0.000 C
ATOM     68  C4  BDP B   5      22.849  10.726  25.3290  0.00  0.00     0.000 C
ATOM     69  C5  BDP B   5      21.722  11.375  24.5360  0.00  0.00     0.000 C
ATOM     70  O5  BDP B   5      21.851  11.075  23.1350  0.00  0.00     0.000 O
ATOM     71   O  BDP B   5      23.242   7.669  23.1400  0.00  0.00     0.000 O
ATOM     73  HD  BDP B   5      23.240   6.834  22.9090  0.00  0.00     0.000 HD
ATOM     73   O  BDP B   5      24.154   8.729  25.6810  0.00  0.00     0.000 O
ATOM     75  HD  BDP B   5      24.153   7.894  25.4510  0.00  0.00     0.000 HD
BRANCH 69 75
ATOM     75   C  BDP B   5      21.798  12.867  24.7410  0.00  0.00     0.000 C
ATOM     76   O  BDP B   5      22.236  13.578  23.8140  0.00  0.00     0.000 OA
ATOM     77   O  BDP B   5      21.418  13.347  25.8240  0.00  0.00     0.000 OA
ENDBRANCH 69 75
BRANCH 65 78
ATOM     78  O3  NAG B   6      21.955  10.253  21.4700  0.00  0.00     0.000 O
BRANCH 78 81
ATOM     79  C1  NAG B   6      19.564   9.646  18.5980  0.00  0.00     0.000 C
ATOM     80  C2  NAG B   6      20.596   9.303  19.6850  0.00  0.00     0.000 C
ATOM     81  C3  NAG B   6      20.878  10.523  20.5470  0.00  0.00     0.000 C
ATOM     82  C4  NAG B   6      21.225  11.737  19.6790  0.00  0.00     0.000 C
ATOM     83  C5  NAG B   6      20.114  11.966  18.6610  0.00  0.00     0.000 C
ATOM     84  O5  NAG B   6      20.018  10.791  17.8540  0.00  0.00     0.000 O
BRANCH 80 87
ATOM     85   N  NAG B   6      20.088   8.169  20.4510  0.00  0.00     0.000 N
ATOM     87  HD  NAG B   6      19.903   7.324  20.5050  0.00  0.00     0.000 HD
ATOM     87   C  NAG B   6      20.839   7.129  20.8350  0.00  0.00     0.000 C
ATOM     88   C  NAG B   6      20.136   6.085  21.6440  0.00  0.00     0.000 C
ATOM     89   O  NAG B   6      22.029   7.028  20.5650  0.00  0.00     0.000 OA
ENDBRANCH 80 87
ATOM     90   O  NAG B   6      19.387  14.193  18.0610  0.00  0.00     0.000 O
ATOM     92  HD  NAG B   6      19.154  13.363  18.1530  0.00  0.00     0.000 HD
ATOM     92   O  NAG B   6      19.387  14.193  18.0610  0.00  0.00     0.000 O
ATOM     94  HD  NAG B   6      19.154  13.363  18.1530  0.00  0.00     0.000 HD
ENDBRANCH 78 81
ENDBRANCH 65 78
ENDBRANCH 64 68
ENDBRANCH 48 64
ENDBRANCH 47 50
ENDBRANCH 34 47
ENDBRANCH 33 37
ENDBRANCH 17 33
ENDBRANCH 16 19
ENDBRANCH 1 16
TORSDOF 16
ENDMDL
MODEL 11
REMARK VINA RESULT:      -7.1      7.346     14.129
ROOT
ATOM      1  C1  BDP B   1      15.107  19.116  19.5370  0.00  0.00     0.000 C
ATOM      2  C2  BDP B   1      15.771  17.754  19.4490  0.00  0.00     0.000 C
ATOM      3  C3  BDP B   1      17.267  17.860  19.2410  0.00  0.00     0.000 C
ATOM      4  C4  BDP B   1      17.834  19.249  19.5140  0.00  0.00     0.000 C
ATOM      5  C5  BDP B   1      17.015  20.360  18.8660  0.00  0.00     0.000 C
ATOM      6  O5  BDP B   1      15.687  19.927  18.5250  0.00  0.00     0.000 O
ATOM      7   O  BDP B   1      15.503  17.004  20.6380  0.00  0.00     0.000 O
ATOM      9  HD  BDP B   1      14.964  16.728  21.2570  0.00  0.00     0.000 HD
ATOM      9   O  BDP B   1      17.599  17.513  17.8870  0.00  0.00     0.000 O
ATOM     11  HD  BDP B   1      17.060  17.237  18.5060  0.00  0.00     0.000 HD
ATOM     11   O  BDP B   1      17.931  19.479  20.9250  0.00  0.00     0.000 O
ATOM     13  HD  BDP B   1      17.391  19.204  21.5440  0.00  0.00     0.000 HD
ENDROOT
BRANCH 5 13
ATOM     13   C  BDP B   1      17.738  20.779  17.6340  0.00  0.00     0.000 C
ATOM     14   O  BDP B   1      18.586  21.690  17.7290  0.00  0.00     0.000 OA
ATOM     15   O  BDP B   1      17.495  20.192  16.5570  0.00  0.00     0.000 OA
ENDBRANCH 5 13
BRANCH 1 16
ATOM     16  O3  NAG B   2      14.328  19.702  20.5780  0.00  0.00     0.000 O
BRANCH 16 19
ATOM     17  C1  NAG B   2      14.502  19.046  24.1550  0.00  0.00     0.000 C
ATOM     18  C2  NAG B   2      15.158  19.532  22.8620  0.00  0.00     0.000 C
ATOM     19  C3  NAG B   2      14.118  20.128  21.9250  0.00  0.00     0.000 C
ATOM     20  C4  NAG B   2      12.693  19.775  22.3620  0.00  0.00     0.000 C
ATOM     21  C5  NAG B   2      12.527  18.379  22.9790  0.00  0.00     0.000 C
ATOM     22  O5  NAG B   2      13.653  17.965  23.7610  0.00  0.00     0.000 O
ATOM     23   O  NAG B   2      12.241  20.771  23.2860  0.00  0.00     0.000 O
ATOM     25  HD  NAG B   2      12.999  20.828  23.7020  0.00  0.00     0.000 HD
ATOM     25   C  NAG B   2      12.277  17.331  21.8850  0.00  0.00     0.000 C
ATOM     26   O  NAG B   2      10.889  17.253  21.5310  0.00  0.00     0.000 O
ATOM     28  HD  NAG B   2      11.647  17.311  21.9470  0.00  0.00     0.000 HD
BRANCH 18 30
ATOM     28   N  NAG B   2      15.595  20.353  23.9910  0.00  0.00     0.000 N
ATOM     30  HD  NAG B   2      15.292  20.818  24.6550  0.00  0.00     0.000 HD
ATOM     30   C  NAG B   2      16.176  21.557  23.8850  0.00  0.00     0.000 C
ATOM     31   C  NAG B   2      16.544  22.197  25.1940  0.00  0.00     0.000 C
ATOM     32   O  NAG B   2      16.388  22.104  22.8280  0.00  0.00     0.000 OA
ENDBRANCH 18 30
BRANCH 17 33
ATOM     33  O4  BDP B   3      14.473  18.222  25.3410  0.00  0.00     0.000 O
BRANCH 33 37
ATOM     34  C1  BDP B   3      16.473  15.281  27.7060  0.00  0.00     0.000 C
ATOM     35  C2  BDP B   3      15.338  16.054  28.3680  0.00  0.00     0.000 C
ATOM     36  C3  BDP B   3      14.417  16.755  27.3760  0.00  0.00     0.000 C
ATOM     37  C4  BDP B   3      15.262  17.484  26.3190  0.00  0.00     0.000 C
ATOM     38  C5  BDP B   3      16.183  16.435  25.6680  0.00  0.00     0.000 C
ATOM     39  O5  BDP B   3      17.112  16.054  26.6830  0.00  0.00     0.000 O
ATOM     40   O  BDP B   3      14.638  15.114  29.1850  0.00  0.00     0.000 O
ATOM     42  HD  BDP B   3      15.304  15.304  29.7050  0.00  0.00     0.000 HD
ATOM     42   O  BDP B   3      13.616  17.662  28.1320  0.00  0.00     0.000 O
ATOM     44  HD  BDP B   3      14.282  17.852  28.6510  0.00  0.00     0.000 HD
BRANCH 38 44
ATOM     44   C  BDP B   3      16.923  16.924  24.4620  0.00  0.00     0.000 C
ATOM     45   O  BDP B   3      16.668  16.387  23.3610  0.00  0.00     0.000 OA
ATOM     46   O  BDP B   3      17.764  17.841  24.5830  0.00  0.00     0.000 OA
ENDBRANCH 38 44
BRANCH 34 47
ATOM     47  O3  NAG B   4      17.687  15.374  28.4490  0.00  0.00     0.000 O
BRANCH 47 50
ATOM     48  C1  NAG B   4      19.589  12.129  28.5180  0.00  0.00     0.000 C
ATOM     49  C2  NAG B   4      18.407  13.062  28.7120  0.00  0.00     0.000 C
ATOM     50  C3  NAG B   4      18.774  14.455  28.2130  0.00  0.00     0.000 C
ATOM     51  C4  NAG B   4      20.034  14.976  28.8850  0.00  0.00     0.000 C
ATOM     52  C5  NAG B   4      21.168  13.965  28.7180  0.00  0.00     0.000 C
ATOM     53  O5  NAG B   4      20.754  12.670  29.1720  0.00  0.00     0.000 O
ATOM     54   O  NAG B   4      20.388  16.233  28.3020  0.00  0.00     0.000 O
ATOM     56  HD  NAG B   4      20.812  16.077  29.0410  0.00  0.00     0.000 HD
ATOM     56   C  NAG B   4      22.412  14.395  29.4860  0.00  0.00     0.000 C
ATOM     57   O  NAG B   4      22.088  14.500  30.8790  0.00  0.00     0.000 O
ATOM     59  HD  NAG B   4      22.512  14.344  31.6180  0.00  0.00     0.000 HD
BRANCH 49 61
ATOM     59   N  NAG B   4      18.096  12.652  30.0810  0.00  0.00     0.000 N
ATOM     61  HD  NAG B   4      17.793  13.199  29.4830  0.00  0.00     0.000 HD
ATOM     61   O  NAG B   4      15.853  12.564  29.8370  0.00  0.00     0.000 OA
ATOM     62   C  NAG B   4      16.858  12.368  30.5040  0.00  0.00     0.000 C
ATOM     63   C  NAG B   4      16.763  11.762  31.8680  0.00  0.00     0.000 C
ENDBRANCH 49 61
BRANCH 48 64
ATOM     64  O4  BDP B   5      19.690  10.727  28.2870  0.00  0.00     0.000 O
BRANCH 64 68
ATOM     65  C1  BDP B   5      20.478   8.894  24.6280  0.00  0.00     0.000 C
ATOM     66  C2  BDP B   5      19.013   8.964  25.0370  0.00  0.00     0.000 C
ATOM     67  C3  BDP B   5      18.836  10.006  26.1340  0.00  0.00     0.000 C
ATOM     68  C4  BDP B   5      19.753   9.689  27.3100  0.00  0.00     0.000 C
ATOM     69  C5  BDP B   5      21.204   9.516  26.8780  0.00  0.00     0.000 C
ATOM     70  O5  BDP B   5      21.296   8.602  25.7710  0.00  0.00     0.000 O
ATOM     71   O  BDP B   5      18.205   9.262  23.8870  0.00  0.00     0.000 O
ATOM     73  HD  BDP B   5      17.768   9.463  23.1670  0.00  0.00     0.000 HD
ATOM     73   O  BDP B   5      17.478  10.033  26.5880  0.00  0.00     0.000 O
ATOM     75  HD  BDP B   5      17.041  10.234  25.8680  0.00  0.00     0.000 HD
BRANCH 69 75
ATOM     75   C  BDP B   5      21.984   8.971  28.0470  0.00  0.00     0.000 C
ATOM     76   O  BDP B   5      21.638   7.881  28.5450  0.00  0.00     0.000 OA
ATOM     77   O  BDP B   5      22.954   9.621  28.4800  0.00  0.00     0.000 OA
ENDBRANCH 69 75
BRANCH 65 78
ATOM     78  O3  NAG B   6      21.165   7.744  24.1260  0.00  0.00     0.000 O
BRANCH 78 81
ATOM     79  C1  NAG B   6      23.287   6.876  21.1130  0.00  0.00     0.000 C
ATOM     80  C2  NAG B   6      22.008   7.165  21.9140  0.00  0.00     0.000 C
ATOM     81  C3  NAG B   6      22.358   7.618  23.3220  0.00  0.00     0.000 C
ATOM     82  C4  NAG B   6      23.334   6.639  23.9840  0.00  0.00     0.000 C
ATOM     83  C5  NAG B   6      24.555   6.459  23.0890  0.00  0.00     0.000 C
ATOM     84  O5  NAG B   6      24.102   5.938  21.8390  0.00  0.00     0.000 O
BRANCH 80 87
ATOM     85   N  NAG B   6      20.719   7.052  21.2370  0.00  0.00     0.000 N
ATOM     87  HD  NAG B   6      19.855   7.103  21.2580  0.00  0.00     0.000 HD
ATOM     87   C  NAG B   6      19.896   8.084  21.0140  0.00  0.00     0.000 C
ATOM     88   C  NAG B   6      18.638   7.763  20.2720  0.00  0.00     0.000 C
ATOM     89   O  NAG B   6      20.147   9.228  21.3740  0.00  0.00     0.000 OA
ENDBRANCH 80 87
ATOM     90   O  NAG B   6      26.781   6.265  24.0130  0.00  0.00     0.000 O
ATOM     92  HD  NAG B   6      26.306   6.527  23.3390  0.00  0.00     0.000 HD
ATOM     92   O  NAG B   6      26.781   6.265  24.0130  0.00  0.00     0.000 O
ATOM     94  HD  NAG B   6      26.306   6.527  23.3390  0.00  0.00     0.000 HD
ENDBRANCH 78 81
ENDBRANCH 65 78
ENDBRANCH 64 68
ENDBRANCH 48 64
ENDBRANCH 47 50
ENDBRANCH 34 47
ENDBRANCH 33 37
ENDBRANCH 17 33
ENDBRANCH 16 19
ENDBRANCH 1 16
TORSDOF 16
ENDMDL
MODEL 12
REMARK VINA RESULT:      -6.9      5.285     10.877
ROOT
ATOM      1  C1  BDP B   1       8.265  14.032  39.8890  0.00  0.00     0.000 C
ATOM      2  C2  BDP B   1       7.746  14.880  38.7410  0.00  0.00     0.000 C
ATOM      3  C3  BDP B   1       8.419  14.537  37.4290  0.00  0.00     0.000 C
ATOM      4  C4  BDP B   1       9.185  13.220  37.4490  0.00  0.00     0.000 C
ATOM      5  C5  BDP B   1      10.071  13.071  38.6830  0.00  0.00     0.000 C
ATOM      6  O5  BDP B   1       9.676  13.957  39.7440  0.00  0.00     0.000 O
ATOM      7   O  BDP B   1       6.330  14.712  38.6140  0.00  0.00     0.000 O
ATOM      9  HD  BDP B   1       5.538  14.651  38.9600  0.00  0.00     0.000 HD
ATOM      9   O  BDP B   1       9.344  15.575  37.0680  0.00  0.00     0.000 O
ATOM     11  HD  BDP B   1       8.552  15.514  37.4130  0.00  0.00     0.000 HD
ATOM     11   O  BDP B   1       8.279  12.113  37.3690  0.00  0.00     0.000 O
ATOM     13  HD  BDP B   1       7.487  12.052  37.7140  0.00  0.00     0.000 HD
ENDROOT
BRANCH 5 13
ATOM     13   C  BDP B   1      11.466  13.379  38.2640  0.00  0.00     0.000 C
ATOM     14   O  BDP B   1      11.908  14.525  38.4860  0.00  0.00     0.000 OA
ATOM     15   O  BDP B   1      12.153  12.482  37.7310  0.00  0.00     0.000 OA
ENDBRANCH 5 13
BRANCH 1 16
ATOM     16  O3  NAG B   2       7.579  13.148  40.7730  0.00  0.00     0.000 O
BRANCH 16 19
ATOM     17  C1  NAG B   2       7.710   9.510  40.7770  0.00  0.00     0.000 C
ATOM     18  C2  NAG B   2       8.402  10.862  40.9530  0.00  0.00     0.000 C
ATOM     19  C3  NAG B   2       7.417  11.905  41.4580  0.00  0.00     0.000 C
ATOM     20  C4  NAG B   2       5.968  11.428  41.3270  0.00  0.00     0.000 C
ATOM     21  C5  NAG B   2       5.675  10.566  40.0910  0.00  0.00     0.000 C
ATOM     22  O5  NAG B   2       6.762   9.707  39.7260  0.00  0.00     0.000 O
ATOM     23   O  NAG B   2       5.616  10.710  42.5140  0.00  0.00     0.000 O
ATOM     25  HD  NAG B   2       6.378  10.302  42.5770  0.00  0.00     0.000 HD
ATOM     25   C  NAG B   2       5.323  11.449  38.8860  0.00  0.00     0.000 C
ATOM     26   O  NAG B   2       3.931  11.800  38.8730  0.00  0.00     0.000 O
ATOM     28  HD  NAG B   2       4.693  11.392  38.9360  0.00  0.00     0.000 HD
BRANCH 18 30
ATOM     28   N  NAG B   2       8.617  10.863  42.3990  0.00  0.00     0.000 N
ATOM     30  HD  NAG B   2       8.852  11.378  43.0540  0.00  0.00     0.000 HD
ATOM     30   C  NAG B   2       9.610  10.219  43.0280  0.00  0.00     0.000 C
ATOM     31   C  NAG B   2       9.611  10.366  44.5240  0.00  0.00     0.000 C
ATOM     32   O  NAG B   2      10.453   9.570  42.4530  0.00  0.00     0.000 OA
ENDBRANCH 18 30
BRANCH 17 33
ATOM     33  O4  BDP B   3       7.611   8.192  40.1940  0.00  0.00     0.000 O
BRANCH 33 37
ATOM     34  C1  BDP B   3       9.389   4.994  37.9910  0.00  0.00     0.000 C
ATOM     35  C2  BDP B   3       8.296   4.630  38.9890  0.00  0.00     0.000 C
ATOM     36  C3  BDP B   3       7.435   5.815  39.4110  0.00  0.00     0.000 C
ATOM     37  C4  BDP B   3       8.338   7.013  39.7400  0.00  0.00     0.000 C
ATOM     38  C5  BDP B   3       9.200   7.292  38.4940  0.00  0.00     0.000 C
ATOM     39  O5  BDP B   3      10.089   6.180  38.3840  0.00  0.00     0.000 O
ATOM     40   O  BDP B   3       7.527   3.592  38.3790  0.00  0.00     0.000 O
ATOM     42  HD  BDP B   3       8.197   3.132  38.6780  0.00  0.00     0.000 HD
ATOM     42   O  BDP B   3       6.682   5.390  40.5460  0.00  0.00     0.000 O
ATOM     44  HD  BDP B   3       7.352   4.930  40.8460  0.00  0.00     0.000 HD
BRANCH 38 44
ATOM     44   C  BDP B   3       9.985   8.565  38.5570  0.00  0.00     0.000 C
ATOM     45   O  BDP B   3       9.619   9.514  37.8290  0.00  0.00     0.000 OA
ATOM     46   O  BDP B   3      10.971   8.646  39.3210  0.00  0.00     0.000 OA
ENDBRANCH 38 44
BRANCH 34 47
ATOM     47  O3  NAG B   4      10.596   4.274  38.2330  0.00  0.00     0.000 O
BRANCH 47 50
ATOM     48  C1  NAG B   4      12.448   4.279  34.9600  0.00  0.00     0.000 C
ATOM     49  C2  NAG B   4      11.247   4.237  35.8880  0.00  0.00     0.000 C
ATOM     50  C3  NAG B   4      11.716   4.378  37.3310  0.00  0.00     0.000 C
ATOM     51  C4  NAG B   4      12.754   3.325  37.6870  0.00  0.00     0.000 C
ATOM     52  C5  NAG B   4      13.903   3.367  36.6790  0.00  0.00     0.000 C
ATOM     53  O5  NAG B   4      13.399   3.265  35.3420  0.00  0.00     0.000 O
ATOM     54   O  NAG B   4      13.234   3.573  39.0110  0.00  0.00     0.000 O
ATOM     56  HD  NAG B   4      13.453   2.788  38.7180  0.00  0.00     0.000 HD
ATOM     56   C  NAG B   4      14.901   2.243  36.9310  0.00  0.00     0.000 C
ATOM     57   O  NAG B   4      14.227   0.984  36.8100  0.00  0.00     0.000 O
ATOM     59  HD  NAG B   4      14.447   0.199  36.5170  0.00  0.00     0.000 HD
BRANCH 49 61
ATOM     59   N  NAG B   4      10.623   3.186  35.0820  0.00  0.00     0.000 N
ATOM     61  HD  NAG B   4      10.476   3.612  35.8220  0.00  0.00     0.000 HD
ATOM     61   O  NAG B   4       8.494   3.908  35.2950  0.00  0.00     0.000 OA
ATOM     62   C  NAG B   4       9.316   3.154  34.7960  0.00  0.00     0.000 C
ATOM     63   C  NAG B   4       8.900   2.131  33.7880  0.00  0.00     0.000 C
ENDBRANCH 49 61
BRANCH 48 64
ATOM     64  O4  BDP B   5      12.620   4.714  33.6140  0.00  0.00     0.000 O
BRANCH 64 68
ATOM     65  C1  BDP B   5      12.822   8.698  32.4070  0.00  0.00     0.000 C
ATOM     66  C2  BDP B   5      11.541   7.956  32.0490  0.00  0.00     0.000 C
ATOM     67  C3  BDP B   5      11.423   6.698  32.8990  0.00  0.00     0.000 C
ATOM     68  C4  BDP B   5      12.664   5.829  32.7260  0.00  0.00     0.000 C
ATOM     69  C5  BDP B   5      13.949   6.606  32.9840  0.00  0.00     0.000 C
ATOM     70  O5  BDP B   5      13.957   7.834  32.2350  0.00  0.00     0.000 O
ATOM     71   O  BDP B   5      10.414   8.827  32.2300  0.00  0.00     0.000 O
ATOM     73  HD  BDP B   5       9.768   9.386  32.3750  0.00  0.00     0.000 HD
ATOM     73   O  BDP B   5      10.263   5.945  32.5240  0.00  0.00     0.000 O
ATOM     75  HD  BDP B   5       9.618   6.504  32.6690  0.00  0.00     0.000 HD
BRANCH 69 75
ATOM     75   C  BDP B   5      15.113   5.749  32.5580  0.00  0.00     0.000 C
ATOM     76   O  BDP B   5      16.107   5.670  33.3080  0.00  0.00     0.000 OA
ATOM     77   O  BDP B   5      15.050   5.141  31.4730  0.00  0.00     0.000 OA
ENDBRANCH 69 75
BRANCH 65 78
ATOM     78  O3  NAG B   6      13.600   9.519  31.5330  0.00  0.00     0.000 O
BRANCH 78 81
ATOM     79  C1  NAG B   6      16.159  12.261  32.0550  0.00  0.00     0.000 C
ATOM     80  C2  NAG B   6      14.775  11.591  32.0470  0.00  0.00     0.000 C
ATOM     81  C3  NAG B   6      14.905  10.118  31.6920  0.00  0.00     0.000 C
ATOM     82  C4  NAG B   6      15.725   9.935  30.4110  0.00  0.00     0.000 C
ATOM     83  C5  NAG B   6      17.070  10.636  30.5660  0.00  0.00     0.000 C
ATOM     84  O5  NAG B   6      16.811  12.022  30.7940  0.00  0.00     0.000 O
BRANCH 80 87
ATOM     85   N  NAG B   6      13.493  12.225  32.3390  0.00  0.00     0.000 N
ATOM     87  HD  NAG B   6      12.652  12.157  32.5360  0.00  0.00     0.000 HD
ATOM     87   C  NAG B   6      12.873  12.149  33.5230  0.00  0.00     0.000 C
ATOM     88   C  NAG B   6      11.583  12.899  33.6300  0.00  0.00     0.000 C
ATOM     89   O  NAG B   6      13.324  11.523  34.4750  0.00  0.00     0.000 OA
ENDBRANCH 80 87
ATOM     90   O  NAG B   6      19.106   9.673  29.6870  0.00  0.00     0.000 O
ATOM     92  HD  NAG B   6      18.757  10.171  30.3030  0.00  0.00     0.000 HD
ATOM     92   O  NAG B   6      19.106   9.673  29.6870  0.00  0.00     0.000 O
ATOM     94  HD  NAG B   6      18.757  10.171  30.3030  0.00  0.00     0.000 HD
ENDBRANCH 78 81
ENDBRANCH 65 78
ENDBRANCH 64 68
ENDBRANCH 48 64
ENDBRANCH 47 50
ENDBRANCH 34 47
ENDBRANCH 33 37
ENDBRANCH 17 33
ENDBRANCH 16 19
ENDBRANCH 1 16
TORSDOF 16
ENDMDL
MODEL 13
REMARK VINA RESULT:      -6.9      3.732      5.845
ROOT
ATOM      1  C1  BDP B   1       9.470   4.333  37.4830  0.00  0.00     0.000 C
ATOM      2  C2  BDP B   1       8.081   3.987  37.9890  0.00  0.00     0.000 C
ATOM      3  C3  BDP B   1       7.362   5.193  38.5530  0.00  0.00     0.000 C
ATOM      4  C4  BDP B   1       8.003   6.527  38.1850  0.00  0.00     0.000 C
ATOM      5  C5  BDP B   1       9.516   6.530  38.3840  0.00  0.00     0.000 C
ATOM      6  O5  BDP B   1      10.057   5.199  38.4430  0.00  0.00     0.000 O
ATOM      7   O  BDP B   1       7.305   3.417  36.9290  0.00  0.00     0.000 O
ATOM      9  HD  BDP B   1       7.219   2.882  36.2530  0.00  0.00     0.000 HD
ATOM      9   O  BDP B   1       7.318   5.111  39.9870  0.00  0.00     0.000 O
ATOM     11  HD  BDP B   1       7.232   4.577  39.3110  0.00  0.00     0.000 HD
ATOM     11   O  BDP B   1       7.693   6.873  36.8300  0.00  0.00     0.000 O
ATOM     13  HD  BDP B   1       7.607   6.338  36.1540  0.00  0.00     0.000 HD
ENDROOT
BRANCH 5 13
ATOM     13   C  BDP B   1       9.791   7.241  39.6630  0.00  0.00     0.000 C
ATOM     14   O  BDP B   1      10.223   8.411  39.6050  0.00  0.00     0.000 OA
ATOM     15   O  BDP B   1       9.557   6.660  40.7440  0.00  0.00     0.000 OA
ENDBRANCH 5 13
BRANCH 1 16
ATOM     16  O3  NAG B   2      10.046   4.190  36.1860  0.00  0.00     0.000 O
BRANCH 16 19
ATOM     17  C1  NAG B   2      11.621   6.520  33.8730  0.00  0.00     0.000 C
ATOM     18  C2  NAG B   2      11.503   5.917  35.2730  0.00  0.00     0.000 C
ATOM     19  C3  NAG B   2      11.036   4.471  35.1950  0.00  0.00     0.000 C
ATOM     20  C4  NAG B   2      10.490   4.125  33.8070  0.00  0.00     0.000 C
ATOM     21  C5  NAG B   2       9.737   5.262  33.1020  0.00  0.00     0.000 C
ATOM     22  O5  NAG B   2      10.284   6.558  33.3680  0.00  0.00     0.000 O
ATOM     23   O  NAG B   2      11.577   3.682  32.9880  0.00  0.00     0.000 O
ATOM     25  HD  NAG B   2      12.133   4.277  33.2820  0.00  0.00     0.000 HD
ATOM     25   C  NAG B   2       8.256   5.262  33.5060  0.00  0.00     0.000 C
ATOM     26   O  NAG B   2       7.485   4.359  32.7010  0.00  0.00     0.000 O
ATOM     28  HD  NAG B   2       8.041   4.954  32.9950  0.00  0.00     0.000 HD
BRANCH 18 30
ATOM     28   N  NAG B   2      12.722   5.148  35.5250  0.00  0.00     0.000 N
ATOM     30  HD  NAG B   2      13.127   4.692  36.1390  0.00  0.00     0.000 HD
ATOM     30   C  NAG B   2      13.954   5.668  35.6070  0.00  0.00     0.000 C
ATOM     31   C  NAG B   2      15.046   4.668  35.8620  0.00  0.00     0.000 C
ATOM     32   O  NAG B   2      14.188   6.848  35.4940  0.00  0.00     0.000 OA
ENDBRANCH 18 30
BRANCH 17 33
ATOM     33  O4  BDP B   3      11.661   7.643  32.9660  0.00  0.00     0.000 O
BRANCH 33 37
ATOM     34  C1  BDP B   3      14.533  10.694  32.1380  0.00  0.00     0.000 C
ATOM     35  C2  BDP B   3      13.489  10.992  33.2080  0.00  0.00     0.000 C
ATOM     36  C3  BDP B   3      12.789   9.747  33.7410  0.00  0.00     0.000 C
ATOM     37  C4  BDP B   3      12.377   8.848  32.5650  0.00  0.00     0.000 C
ATOM     38  C5  BDP B   3      13.651   8.539  31.7560  0.00  0.00     0.000 C
ATOM     39  O5  BDP B   3      14.037   9.776  31.1570  0.00  0.00     0.000 O
ATOM     40   O  BDP B   3      14.167  11.714  34.2380  0.00  0.00     0.000 O
ATOM     42  HD  BDP B   3      14.022  12.352  33.6720  0.00  0.00     0.000 HD
ATOM     42   O  BDP B   3      11.659  10.199  34.4850  0.00  0.00     0.000 O
ATOM     44  HD  BDP B   3      11.514  10.837  33.9190  0.00  0.00     0.000 HD
BRANCH 38 44
ATOM     44   C  BDP B   3      13.475   7.496  30.6970  0.00  0.00     0.000 C
ATOM     45   O  BDP B   3      13.755   6.313  30.9890  0.00  0.00     0.000 OA
ATOM     46   O  BDP B   3      13.059   7.828  29.5660  0.00  0.00     0.000 OA
ENDBRANCH 38 44
BRANCH 34 47
ATOM     47  O3  NAG B   4      14.546  11.687  31.1140  0.00  0.00     0.000 O
BRANCH 47 50
ATOM     48  C1  NAG B   4      18.073  11.990  29.8450  0.00  0.00     0.000 C
ATOM     49  C2  NAG B   4      16.962  11.854  30.8710  0.00  0.00     0.000 C
ATOM     50  C3  NAG B   4      15.621  11.750  30.1550  0.00  0.00     0.000 C
ATOM     51  C4  NAG B   4      15.395  12.926  29.2170  0.00  0.00     0.000 C
ATOM     52  C5  NAG B   4      16.577  13.056  28.2550  0.00  0.00     0.000 C
ATOM     53  O5  NAG B   4      17.810  13.115  28.9830  0.00  0.00     0.000 O
ATOM     54   O  NAG B   4      14.178  12.720  28.4960  0.00  0.00     0.000 O
ATOM     56  HD  NAG B   4      14.471  13.532  28.4310  0.00  0.00     0.000 HD
ATOM     56   C  NAG B   4      16.445  14.298  27.3820  0.00  0.00     0.000 C
ATOM     57   O  NAG B   4      16.405  15.459  28.2230  0.00  0.00     0.000 O
ATOM     59  HD  NAG B   4      16.698  16.271  28.1570  0.00  0.00     0.000 HD
BRANCH 49 61
ATOM     59   N  NAG B   4      17.461  12.907  31.7570  0.00  0.00     0.000 N
ATOM     61  HD  NAG B   4      16.800  12.348  31.7190  0.00  0.00     0.000 HD
ATOM     61   O  NAG B   4      17.088  11.824  33.7030  0.00  0.00     0.000 OA
ATOM     62   C  NAG B   4      17.548  12.772  33.0850  0.00  0.00     0.000 C
ATOM     63   C  NAG B   4      18.278  13.866  33.8000  0.00  0.00     0.000 C
ENDBRANCH 49 61
BRANCH 48 64
ATOM     64  O4  BDP B   5      19.445  11.607  29.8430  0.00  0.00     0.000 O
BRANCH 64 68
ATOM     65  C1  BDP B   5      23.122   9.645  29.8210  0.00  0.00     0.000 C
ATOM     66  C2  BDP B   5      22.420   9.760  28.4750  0.00  0.00     0.000 C
ATOM     67  C3  BDP B   5      21.346  10.839  28.5480  0.00  0.00     0.000 C
ATOM     68  C4  BDP B   5      20.377  10.538  29.6850  0.00  0.00     0.000 C
ATOM     69  C5  BDP B   5      21.096  10.320  31.0100  0.00  0.00     0.000 C
ATOM     70  O5  BDP B   5      22.165   9.370  30.8550  0.00  0.00     0.000 O
ATOM     71   O  BDP B   5      23.385  10.041  27.4490  0.00  0.00     0.000 O
ATOM     73  HD  BDP B   5      24.005  10.229  26.8750  0.00  0.00     0.000 HD
ATOM     73   O  BDP B   5      20.620  10.910  27.3150  0.00  0.00     0.000 O
ATOM     75  HD  BDP B   5      21.240  11.098  26.7400  0.00  0.00     0.000 HD
BRANCH 69 75
ATOM     75   C  BDP B   5      20.097   9.794  32.0100  0.00  0.00     0.000 C
ATOM     76   O  BDP B   5      19.354   8.850  31.6760  0.00  0.00     0.000 OA
ATOM     77   O  BDP B   5      20.044  10.314  33.1400  0.00  0.00     0.000 OA
ENDBRANCH 69 75
BRANCH 65 78
ATOM     78  O3  NAG B   6      23.716   8.466  30.3700  0.00  0.00     0.000 O
BRANCH 78 81
ATOM     79  C1  NAG B   6      27.119   7.503  31.7220  0.00  0.00     0.000 C
ATOM     80  C2  NAG B   6      26.054   7.847  30.6680  0.00  0.00     0.000 C
ATOM     81  C3  NAG B   6      24.767   8.289  31.3450  0.00  0.00     0.000 C
ATOM     82  C4  NAG B   6      24.331   7.272  32.4050  0.00  0.00     0.000 C
ATOM     83  C5  NAG B   6      25.475   7.039  33.3850  0.00  0.00     0.000 C
ATOM     84  O5  NAG B   6      26.585   6.534  32.6410  0.00  0.00     0.000 O
BRANCH 80 87
ATOM     85   N  NAG B   6      26.370   7.779  29.2440  0.00  0.00     0.000 N
ATOM     87  HD  NAG B   6      26.135   7.894  28.4190  0.00  0.00     0.000 HD
ATOM     87   C  NAG B   6      26.466   8.849  28.4460  0.00  0.00     0.000 C
ATOM     88   C  NAG B   6      26.834   8.568  27.0240  0.00  0.00     0.000 C
ATOM     89   O  NAG B   6      26.281   9.995  28.8390  0.00  0.00     0.000 OA
ENDBRANCH 80 87
ATOM     90   O  NAG B   6      25.075   6.757  35.7530  0.00  0.00     0.000 O
ATOM     92  HD  NAG B   6      25.628   7.037  35.1480  0.00  0.00     0.000 HD
ATOM     92   O  NAG B   6      25.075   6.757  35.7530  0.00  0.00     0.000 O
ATOM     94  HD  NAG B   6      25.628   7.037  35.1480  0.00  0.00     0.000 HD
ENDBRANCH 78 81
ENDBRANCH 65 78
ENDBRANCH 64 68
ENDBRANCH 48 64
ENDBRANCH 47 50
ENDBRANCH 34 47
ENDBRANCH 33 37
ENDBRANCH 17 33
ENDBRANCH 16 19
ENDBRANCH 1 16
TORSDOF 16
ENDMDL
MODEL 14
REMARK VINA RESULT:      -6.7      5.849     12.831
ROOT
ATOM      1  C1  BDP B   1      17.497  10.853  28.1650  0.00  0.00     0.000 C
ATOM      2  C2  BDP B   1      16.812  12.201  28.0280  0.00  0.00     0.000 C
ATOM      3  C3  BDP B   1      16.169  12.647  29.3240  0.00  0.00     0.000 C
ATOM      4  C4  BDP B   1      16.628  11.863  30.5480  0.00  0.00     0.000 C
ATOM      5  C5  BDP B   1      16.627  10.355  30.3170  0.00  0.00     0.000 C
ATOM      6  O5  BDP B   1      16.627  10.021  28.9190  0.00  0.00     0.000 O
ATOM      7   O  BDP B   1      17.758  13.185  27.5960  0.00  0.00     0.000 O
ATOM      9  HD  BDP B   1      18.412  13.439  27.0890  0.00  0.00     0.000 HD
ATOM      9   O  BDP B   1      14.741  12.517  29.2320  0.00  0.00     0.000 O
ATOM     11  HD  BDP B   1      15.396  12.771  28.7250  0.00  0.00     0.000 HD
ATOM     11   O  BDP B   1      17.934  12.289  30.9530  0.00  0.00     0.000 O
ATOM     13  HD  BDP B   1      18.589  12.543  30.4460  0.00  0.00     0.000 HD
ENDROOT
BRANCH 5 13
ATOM     13   C  BDP B   1      15.400   9.811  30.9630  0.00  0.00     0.000 C
ATOM     14   O  BDP B   1      15.362   9.764  32.2100  0.00  0.00     0.000 OA
ATOM     15   O  BDP B   1      14.445   9.447  30.2440  0.00  0.00     0.000 OA
ENDBRANCH 5 13
BRANCH 1 16
ATOM     16  O3  NAG B   2      18.856  10.477  27.9500  0.00  0.00     0.000 O
BRANCH 16 19
ATOM     17  C1  NAG B   2      21.962   9.518  26.3110  0.00  0.00     0.000 C
ATOM     18  C2  NAG B   2      21.227  10.200  27.4660  0.00  0.00     0.000 C
ATOM     19  C3  NAG B   2      19.892   9.519  27.7260  0.00  0.00     0.000 C
ATOM     20  C4  NAG B   2      19.495   8.589  26.5770  0.00  0.00     0.000 C
ATOM     21  C5  NAG B   2      19.902   9.072  25.1780  0.00  0.00     0.000 C
ATOM     22  O5  NAG B   2      21.156   9.764  25.1570  0.00  0.00     0.000 O
ATOM     23   O  NAG B   2      20.056   7.295  26.8250  0.00  0.00     0.000 O
ATOM     25  HD  NAG B   2      20.812   7.601  27.1140  0.00  0.00     0.000 HD
ATOM     25   C  NAG B   2      18.824   9.993  24.5890  0.00  0.00     0.000 C
ATOM     26   O  NAG B   2      17.783   9.246  23.9420  0.00  0.00     0.000 O
ATOM     28  HD  NAG B   2      18.540   9.552  24.2310  0.00  0.00     0.000 HD
BRANCH 18 30
ATOM     28   N  NAG B   2      21.483   9.370  28.6420  0.00  0.00     0.000 N
ATOM     30  HD  NAG B   2      21.313   9.316  29.4900  0.00  0.00     0.000 HD
ATOM     30   C  NAG B   2      22.674   9.234  29.2420  0.00  0.00     0.000 C
ATOM     31   C  NAG B   2      22.682   8.314  30.4300  0.00  0.00     0.000 C
ATOM     32   O  NAG B   2      23.674   9.804  28.8740  0.00  0.00     0.000 OA
ENDBRANCH 18 30
BRANCH 17 33
ATOM     33  O4  BDP B   3      22.934   9.511  25.2430  0.00  0.00     0.000 O
BRANCH 33 37
ATOM     34  C1  BDP B   3      23.313   8.137  21.2170  0.00  0.00     0.000 C
ATOM     35  C2  BDP B   3      23.051   7.087  22.2900  0.00  0.00     0.000 C
ATOM     36  C3  BDP B   3      22.515   7.667  23.5940  0.00  0.00     0.000 C
ATOM     37  C4  BDP B   3      23.343   8.901  23.9840  0.00  0.00     0.000 C
ATOM     38  C5  BDP B   3      23.280   9.886  22.8010  0.00  0.00     0.000 C
ATOM     39  O5  BDP B   3      24.016   9.268  21.7450  0.00  0.00     0.000 O
ATOM     40   O  BDP B   3      22.153   6.139  21.7100  0.00  0.00     0.000 O
ATOM     42  HD  BDP B   3      22.903   5.864  21.3770  0.00  0.00     0.000 HD
ATOM     42   O  BDP B   3      22.611   6.633  24.5720  0.00  0.00     0.000 O
ATOM     44  HD  BDP B   3      23.362   6.358  24.2390  0.00  0.00     0.000 HD
BRANCH 38 44
ATOM     44   C  BDP B   3      23.850  11.239  23.0910  0.00  0.00     0.000 C
ATOM     45   O  BDP B   3      25.094  11.346  23.1690  0.00  0.00     0.000 OA
ATOM     46   O  BDP B   3      23.082  12.213  23.2480  0.00  0.00     0.000 OA
ENDBRANCH 38 44
BRANCH 34 47
ATOM     47  O3  NAG B   4      24.482   7.842  20.4550  0.00  0.00     0.000 O
BRANCH 47 50
ATOM     48  C1  NAG B   4      23.921   9.247  17.0110  0.00  0.00     0.000 C
ATOM     49  C2  NAG B   4      23.567   8.548  18.3120  0.00  0.00     0.000 C
ATOM     50  C3  NAG B   4      24.777   8.560  19.2390  0.00  0.00     0.000 C
ATOM     51  C4  NAG B   4      25.999   7.949  18.5720  0.00  0.00     0.000 C
ATOM     52  C5  NAG B   4      26.264   8.645  17.2370  0.00  0.00     0.000 C
ATOM     53  O5  NAG B   4      25.084   8.631  16.4240  0.00  0.00     0.000 O
ATOM     54   O  NAG B   4      27.123   8.087  19.4450  0.00  0.00     0.000 O
ATOM     56  HD  NAG B   4      27.269   7.529  18.7990  0.00  0.00     0.000 HD
ATOM     56   C  NAG B   4      27.406   7.976  16.4810  0.00  0.00     0.000 C
ATOM     57   O  NAG B   4      27.061   6.607  16.2280  0.00  0.00     0.000 O
ATOM     59  HD  NAG B   4      27.207   6.050  15.5820  0.00  0.00     0.000 HD
BRANCH 49 61
ATOM     59   N  NAG B   4      22.206   9.076  18.2060  0.00  0.00     0.000 N
ATOM     61  HD  NAG B   4      22.624   8.328  18.0820  0.00  0.00     0.000 HD
ATOM     61   O  NAG B   4      21.152   7.297  19.1140  0.00  0.00     0.000 OA
ATOM     62   C  NAG B   4      21.129   8.439  18.6810  0.00  0.00     0.000 C
ATOM     63   C  NAG B   4      19.857   9.226  18.6740  0.00  0.00     0.000 C
ENDBRANCH 49 61
BRANCH 48 64
ATOM     64  O4  BDP B   5      23.151   9.981  16.0640  0.00  0.00     0.000 O
BRANCH 64 68
ATOM     65  C1  BDP B   5      21.649  12.590  13.1810  0.00  0.00     0.000 C
ATOM     66  C2  BDP B   5      22.860  11.763  12.7670  0.00  0.00     0.000 C
ATOM     67  C3  BDP B   5      23.025  10.585  13.7180  0.00  0.00     0.000 C
ATOM     68  C4  BDP B   5      23.125  11.082  15.1560  0.00  0.00     0.000 C
ATOM     69  C5  BDP B   5      21.964  11.994  15.5310  0.00  0.00     0.000 C
ATOM     70  O5  BDP B   5      21.791  13.024  14.5420  0.00  0.00     0.000 O
ATOM     71   O  BDP B   5      22.705  11.329  11.4070  0.00  0.00     0.000 O
ATOM     73  HD  BDP B   5      22.552  11.078  10.5930  0.00  0.00     0.000 HD
ATOM     73   O  BDP B   5      24.203   9.838  13.3940  0.00  0.00     0.000 O
ATOM     75  HD  BDP B   5      24.051   9.586  12.5790  0.00  0.00     0.000 HD
BRANCH 69 75
ATOM     75   C  BDP B   5      22.269  12.624  16.8660  0.00  0.00     0.000 C
ATOM     76   O  BDP B   5      21.766  12.126  17.8940  0.00  0.00     0.000 OA
ATOM     77   O  BDP B   5      23.016  13.619  16.9070  0.00  0.00     0.000 OA
ENDBRANCH 69 75
BRANCH 65 78
ATOM     78  O3  NAG B   6      21.476  13.996  12.9880  0.00  0.00     0.000 O
BRANCH 78 81
ATOM     79  C1  NAG B   6      18.802  16.221  11.4950  0.00  0.00     0.000 C
ATOM     80  C2  NAG B   6      19.966  15.218  11.5170  0.00  0.00     0.000 C
ATOM     81  C3  NAG B   6      20.288  14.816  12.9470  0.00  0.00     0.000 C
ATOM     82  C4  NAG B   6      20.476  16.053  13.8330  0.00  0.00     0.000 C
ATOM     83  C5  NAG B   6      19.246  16.947  13.7220  0.00  0.00     0.000 C
ATOM     84  O5  NAG B   6      19.113  17.333  12.3540  0.00  0.00     0.000 O
BRANCH 80 87
ATOM     85   N  NAG B   6      19.581  14.150  10.6000  0.00  0.00     0.000 N
ATOM     87  HD  NAG B   6      19.496  13.852   9.7910  0.00  0.00     0.000 HD
ATOM     87   C  NAG B   6      20.441  13.492   9.8120  0.00  0.00     0.000 C
ATOM     88   C  NAG B   6      19.850  12.407   8.9700  0.00  0.00     0.000 C
ATOM     89   O  NAG B   6      21.641  13.738   9.7810  0.00  0.00     0.000 OA
ENDBRANCH 80 87
ATOM     90   O  NAG B   6      18.352  18.110  15.6450  0.00  0.00     0.000 O
ATOM     92  HD  NAG B   6      18.170  17.739  14.8840  0.00  0.00     0.000 HD
ATOM     92   O  NAG B   6      18.352  18.110  15.6450  0.00  0.00     0.000 O
ATOM     94  HD  NAG B   6      18.170  17.739  14.8840  0.00  0.00     0.000 HD
ENDBRANCH 78 81
ENDBRANCH 65 78
ENDBRANCH 64 68
ENDBRANCH 48 64
ENDBRANCH 47 50
ENDBRANCH 34 47
ENDBRANCH 33 37
ENDBRANCH 17 33
ENDBRANCH 16 19
ENDBRANCH 1 16
TORSDOF 16
ENDMDL
MODEL 15
REMARK VINA RESULT:      -6.6      3.813     14.367
ROOT
ATOM      1  C1  BDP B   1      20.110  13.064  29.5310  0.00  0.00     0.000 C
ATOM      2  C2  BDP B   1      21.262  14.044  29.3940  0.00  0.00     0.000 C
ATOM      3  C3  BDP B   1      22.440  13.439  28.6600  0.00  0.00     0.000 C
ATOM      4  C4  BDP B   1      22.113  12.148  27.9180  0.00  0.00     0.000 C
ATOM      5  C5  BDP B   1      21.313  11.165  28.7670  0.00  0.00     0.000 C
ATOM      6  O5  BDP B   1      20.673  11.809  29.8820  0.00  0.00     0.000 O
ATOM      7   O  BDP B   1      20.821  15.221  28.7080  0.00  0.00     0.000 O
ATOM      9  HD  BDP B   1      20.239  15.848  28.5730  0.00  0.00     0.000 HD
ATOM      9   O  BDP B   1      23.500  13.154  29.5860  0.00  0.00     0.000 O
ATOM     11  HD  BDP B   1      22.918  13.781  29.4500  0.00  0.00     0.000 HD
ATOM     11   O  BDP B   1      21.400  12.434  26.7080  0.00  0.00     0.000 O
ATOM     13  HD  BDP B   1      20.818  13.061  26.5730  0.00  0.00     0.000 HD
ENDROOT
BRANCH 5 13
ATOM     13   C  BDP B   1      22.265  10.133  29.2620  0.00  0.00     0.000 C
ATOM     14   O  BDP B   1      23.409  10.099  28.7620  0.00  0.00     0.000 OA
ATOM     15   O  BDP B   1      21.902   9.358  30.1720  0.00  0.00     0.000 OA
ENDBRANCH 5 13
BRANCH 1 16
ATOM     16  O3  NAG B   2      18.758  13.155  29.0850  0.00  0.00     0.000 O
BRANCH 16 19
ATOM     17  C1  NAG B   2      15.913  11.408  30.5370  0.00  0.00     0.000 C
ATOM     18  C2  NAG B   2      17.014  12.464  30.6400  0.00  0.00     0.000 C
ATOM     19  C3  NAG B   2      17.347  13.025  29.2650  0.00  0.00     0.000 C
ATOM     20  C4  NAG B   2      16.760  12.163  28.1440  0.00  0.00     0.000 C
ATOM     21  C5  NAG B   2      16.742  10.654  28.4230  0.00  0.00     0.000 C
ATOM     22  O5  NAG B   2      16.493  10.332  29.7960  0.00  0.00     0.000 O
ATOM     23   O  NAG B   2      15.433  12.621  27.8650  0.00  0.00     0.000 O
ATOM     25  HD  NAG B   2      15.226  12.744  28.6970  0.00  0.00     0.000 HD
ATOM     25   C  NAG B   2      18.071  10.010  28.0030  0.00  0.00     0.000 C
ATOM     26   O  NAG B   2      18.079   9.671  26.6080  0.00  0.00     0.000 O
ATOM     28  HD  NAG B   2      17.872   9.794  27.4400  0.00  0.00     0.000 HD
BRANCH 18 30
ATOM     28   N  NAG B   2      15.760  12.959  31.2080  0.00  0.00     0.000 N
ATOM     30  HD  NAG B   2      14.935  13.123  31.0030  0.00  0.00     0.000 HD
ATOM     30   C  NAG B   2      15.537  14.224  31.5900  0.00  0.00     0.000 C
ATOM     31   C  NAG B   2      14.169  14.482  32.1550  0.00  0.00     0.000 C
ATOM     32   O  NAG B   2      16.359  15.105  31.4890  0.00  0.00     0.000 OA
ENDBRANCH 18 30
BRANCH 17 33
ATOM     33  O4  BDP B   3      15.193  10.260  31.0380  0.00  0.00     0.000 O
BRANCH 33 37
ATOM     34  C1  BDP B   3      12.368   8.223  33.5110  0.00  0.00     0.000 C
ATOM     35  C2  BDP B   3      12.183   8.111  32.0020  0.00  0.00     0.000 C
ATOM     36  C3  BDP B   3      13.427   8.486  31.2040  0.00  0.00     0.000 C
ATOM     37  C4  BDP B   3      14.017   9.791  31.7600  0.00  0.00     0.000 C
ATOM     38  C5  BDP B   3      14.292   9.567  33.2590  0.00  0.00     0.000 C
ATOM     39  O5  BDP B   3      13.008   9.452  33.8740  0.00  0.00     0.000 O
ATOM     40   O  BDP B   3      11.764   6.768  31.7500  0.00  0.00     0.000 O
ATOM     42  HD  BDP B   3      11.011   7.122  31.9920  0.00  0.00     0.000 HD
ATOM     42   O  BDP B   3      13.015   8.626  29.8460  0.00  0.00     0.000 O
ATOM     44  HD  BDP B   3      12.263   8.980  30.0870  0.00  0.00     0.000 HD
BRANCH 38 44
ATOM     44   C  BDP B   3      15.072  10.662  33.9160  0.00  0.00     0.000 C
ATOM     45   O  BDP B   3      14.523  11.779  34.0400  0.00  0.00     0.000 OA
ATOM     46   O  BDP B   3      16.235  10.438  34.3170  0.00  0.00     0.000 OA
ENDBRANCH 38 44
BRANCH 34 47
ATOM     47  O3  NAG B   4      11.195   8.714  34.1570  0.00  0.00     0.000 O
BRANCH 47 50
ATOM     48  C1  NAG B   4      10.510   6.860  37.3580  0.00  0.00     0.000 C
ATOM     49  C2  NAG B   4      10.794   7.037  35.8770  0.00  0.00     0.000 C
ATOM     50  C3  NAG B   4      10.990   8.518  35.5720  0.00  0.00     0.000 C
ATOM     51  C4  NAG B   4       9.802   9.346  36.0320  0.00  0.00     0.000 C
ATOM     52  C5  NAG B   4       9.520   9.074  37.5100  0.00  0.00     0.000 C
ATOM     53  O5  NAG B   4       9.378   7.667  37.7400  0.00  0.00     0.000 O
ATOM     54   O  NAG B   4      10.089  10.731  35.8190  0.00  0.00     0.000 O
ATOM     56  HD  NAG B   4       9.251  10.585  35.9810  0.00  0.00     0.000 HD
ATOM     56   C  NAG B   4       8.259   9.792  37.9750  0.00  0.00     0.000 C
ATOM     57   O  NAG B   4       7.145   9.329  37.2000  0.00  0.00     0.000 O
ATOM     59  HD  NAG B   4       6.306   9.183  37.3610  0.00  0.00     0.000 HD
BRANCH 49 61
ATOM     59   N  NAG B   4       9.760   6.087  35.4650  0.00  0.00     0.000 N
ATOM     61  HD  NAG B   4      10.342   6.614  35.0980  0.00  0.00     0.000 HD
ATOM     61   O  NAG B   4      10.936   5.109  33.8020  0.00  0.00     0.000 OA
ATOM     62   C  NAG B   4       9.945   5.160  34.5170  0.00  0.00     0.000 C
ATOM     63   C  NAG B   4       8.856   4.144  34.3830  0.00  0.00     0.000 C
ENDBRANCH 49 61
BRANCH 48 64
ATOM     64  O4  BDP B   5      10.763   5.799  38.2740  0.00  0.00     0.000 O
BRANCH 64 68
ATOM     65  C1  BDP B   5      13.651   2.842  37.7390  0.00  0.00     0.000 C
ATOM     66  C2  BDP B   5      12.222   2.352  37.9300  0.00  0.00     0.000 C
ATOM     67  C3  BDP B   5      11.250   3.498  37.6810  0.00  0.00     0.000 C
ATOM     68  C4  BDP B   5      11.585   4.677  38.5890  0.00  0.00     0.000 C
ATOM     69  C5  BDP B   5      13.045   5.095  38.4710  0.00  0.00     0.000 C
ATOM     70  O5  BDP B   5      13.911   3.955  38.6090  0.00  0.00     0.000 O
ATOM     71   O  BDP B   5      11.971   1.244  37.0510  0.00  0.00     0.000 O
ATOM     73  HD  BDP B   5      11.867   0.594  36.4880  0.00  0.00     0.000 HD
ATOM     73   O  BDP B   5       9.903   3.078  37.9310  0.00  0.00     0.000 O
ATOM     75  HD  BDP B   5       9.799   2.429  37.3680  0.00  0.00     0.000 HD
BRANCH 69 75
ATOM     75   C  BDP B   5      13.343   6.089  39.5650  0.00  0.00     0.000 C
ATOM     76   O  BDP B   5      13.322   5.700  40.7500  0.00  0.00     0.000 OA
ATOM     77   O  BDP B   5      13.604   7.266  39.2550  0.00  0.00     0.000 OA
ENDBRANCH 69 75
BRANCH 65 78
ATOM     78  O3  NAG B   6      14.815   2.343  38.4030  0.00  0.00     0.000 O
BRANCH 78 81
ATOM     79  C1  NAG B   6      18.351   1.857  37.1390  0.00  0.00     0.000 C
ATOM     80  C2  NAG B   6      16.829   1.658  37.2130  0.00  0.00     0.000 C
ATOM     81  C3  NAG B   6      16.219   2.626  38.2140  0.00  0.00     0.000 C
ATOM     82  C4  NAG B   6      16.952   2.554  39.5580  0.00  0.00     0.000 C
ATOM     83  C5  NAG B   6      18.442   2.781  39.3350  0.00  0.00     0.000 C
ATOM     84  O5  NAG B   6      18.910   1.753  38.4610  0.00  0.00     0.000 O
BRANCH 80 87
ATOM     85   N  NAG B   6      16.016   0.707  36.4600  0.00  0.00     0.000 N
ATOM     87  HD  NAG B   6      15.241   0.447  36.1730  0.00  0.00     0.000 HD
ATOM     87   C  NAG B   6      15.346   1.015  35.3420  0.00  0.00     0.000 C
ATOM     88   C  NAG B   6      14.600  -0.112  34.7010  0.00  0.00     0.000 C
ATOM     89   O  NAG B   6      15.343   2.138  34.8520  0.00  0.00     0.000 OA
ENDBRANCH 80 87
ATOM     90   O  NAG B   6      19.772   4.069  40.8900  0.00  0.00     0.000 O
ATOM     92  HD  NAG B   6      19.669   3.827  40.0650  0.00  0.00     0.000 HD
ATOM     92   O  NAG B   6      19.772   4.069  40.8900  0.00  0.00     0.000 O
ATOM     94  HD  NAG B   6      19.669   3.827  40.0650  0.00  0.00     0.000 HD
ENDBRANCH 78 81
ENDBRANCH 65 78
ENDBRANCH 64 68
ENDBRANCH 48 64
ENDBRANCH 47 50
ENDBRANCH 34 47
ENDBRANCH 33 37
ENDBRANCH 17 33
ENDBRANCH 16 19
ENDBRANCH 1 16
TORSDOF 16
ENDMDL
MODEL 16
REMARK VINA RESULT:      -6.5     10.923     20.538
ROOT
ATOM      1  C1  BDP B   1      18.942  19.865  16.7950  0.00  0.00     0.000 C
ATOM      2  C2  BDP B   1      19.145  18.452  16.2800  0.00  0.00     0.000 C
ATOM      3  C3  BDP B   1      20.600  18.154  15.9900  0.00  0.00     0.000 C
ATOM      4  C4  BDP B   1      21.573  19.162  16.5910  0.00  0.00     0.000 C
ATOM      5  C5  BDP B   1      21.152  20.608  16.3430  0.00  0.00     0.000 C
ATOM      6  O5  BDP B   1      19.759  20.716  16.0040  0.00  0.00     0.000 O
ATOM      7   O  BDP B   1      18.642  17.509  17.2330  0.00  0.00     0.000 O
ATOM      9  HD  BDP B   1      18.036  17.245  17.7930  0.00  0.00     0.000 HD
ATOM      9   O  BDP B   1      20.821  18.127  14.5710  0.00  0.00     0.000 O
ATOM     11  HD  BDP B   1      20.216  17.862  15.1300  0.00  0.00     0.000 HD
ATOM     11   O  BDP B   1      21.721  18.936  17.9980  0.00  0.00     0.000 O
ATOM     13  HD  BDP B   1      21.116  18.671  18.5570  0.00  0.00     0.000 HD
ENDROOT
BRANCH 5 13
ATOM     13   C  BDP B   1      21.983  21.123  15.2210  0.00  0.00     0.000 C
ATOM     14   O  BDP B   1      21.554  20.983  14.0570  0.00  0.00     0.000 OA
ATOM     15   O  BDP B   1      23.062  21.698  15.4780  0.00  0.00     0.000 OA
ENDBRANCH 5 13
BRANCH 1 16
ATOM     16  O3  NAG B   2      18.375  20.334  18.0170  0.00  0.00     0.000 O
BRANCH 16 19
ATOM     17  C1  NAG B   2      14.984  19.669  19.1620  0.00  0.00     0.000 C
ATOM     18  C2  NAG B   2      16.400  19.180  18.8550  0.00  0.00     0.000 C
ATOM     19  C3  NAG B   2      17.410  20.298  19.0690  0.00  0.00     0.000 C
ATOM     20  C4  NAG B   2      16.728  21.663  19.1920  0.00  0.00     0.000 C
ATOM     21  C5  NAG B   2      15.482  21.851  18.3140  0.00  0.00     0.000 C
ATOM     22  O5  NAG B   2      14.704  20.657  18.1680  0.00  0.00     0.000 O
ATOM     23   O  NAG B   2      16.390  21.881  20.5660  0.00  0.00     0.000 O
ATOM     25  HD  NAG B   2      16.130  21.066  20.7030  0.00  0.00     0.000 HD
ATOM     25   C  NAG B   2      15.875  22.354  16.9180  0.00  0.00     0.000 C
ATOM     26   O  NAG B   2      16.015  23.781  16.8880  0.00  0.00     0.000 O
ATOM     28  HD  NAG B   2      15.754  22.967  17.0250  0.00  0.00     0.000 HD
BRANCH 18 30
ATOM     28   N  NAG B   2      16.761  18.995  20.2590  0.00  0.00     0.000 N
ATOM     30  HD  NAG B   2      17.445  18.956  20.7890  0.00  0.00     0.000 HD
ATOM     30   C  NAG B   2      16.626  17.849  20.9420  0.00  0.00     0.000 C
ATOM     31   C  NAG B   2      17.060  17.915  22.3790  0.00  0.00     0.000 C
ATOM     32   O  NAG B   2      16.197  16.829  20.4540  0.00  0.00     0.000 OA
ENDBRANCH 18 30
BRANCH 17 33
ATOM     33  O4  BDP B   3      13.548  19.585  19.0330  0.00  0.00     0.000 O
BRANCH 33 37
ATOM     34  C1  BDP B   3      10.018  18.450  21.1530  0.00  0.00     0.000 C
ATOM     35  C2  BDP B   3      11.194  17.481  21.1880  0.00  0.00     0.000 C
ATOM     36  C3  BDP B   3      12.521  18.116  20.7900  0.00  0.00     0.000 C
ATOM     37  C4  BDP B   3      12.324  18.962  19.5220  0.00  0.00     0.000 C
ATOM     38  C5  BDP B   3      11.216  19.988  19.8250  0.00  0.00     0.000 C
ATOM     39  O5  BDP B   3      10.013  19.231  19.9530  0.00  0.00     0.000 O
ATOM     40   O  BDP B   3      11.228  16.941  22.5110  0.00  0.00     0.000 O
ATOM     42  HD  BDP B   3      10.608  16.449  22.1590  0.00  0.00     0.000 HD
ATOM     42   O  BDP B   3      13.440  17.046  20.5770  0.00  0.00     0.000 O
ATOM     44  HD  BDP B   3      12.820  16.555  20.2250  0.00  0.00     0.000 HD
BRANCH 38 44
ATOM     44   C  BDP B   3      11.044  21.040  18.7740  0.00  0.00     0.000 C
ATOM     45   O  BDP B   3      10.299  20.781  17.8030  0.00  0.00     0.000 OA
ATOM     46   O  BDP B   3      11.639  22.134  18.8900  0.00  0.00     0.000 OA
ENDBRANCH 38 44
BRANCH 34 47
ATOM     47  O3  NAG B   4       8.826  17.826  20.6800  0.00  0.00     0.000 O
BRANCH 47 50
ATOM     48  C1  NAG B   4       5.535  18.385  22.4140  0.00  0.00     0.000 C
ATOM     49  C2  NAG B   4       6.925  17.812  22.2020  0.00  0.00     0.000 C
ATOM     50  C3  NAG B   4       7.531  18.408  20.9360  0.00  0.00     0.000 C
ATOM     51  C4  NAG B   4       6.631  18.194  19.7300  0.00  0.00     0.000 C
ATOM     52  C5  NAG B   4       5.229  18.727  20.0280  0.00  0.00     0.000 C
ATOM     53  O5  NAG B   4       4.726  18.158  21.2430  0.00  0.00     0.000 O
ATOM     54   O  NAG B   4       7.197  18.865  18.6020  0.00  0.00     0.000 O
ATOM     56  HD  NAG B   4       6.571  18.309  18.3800  0.00  0.00     0.000 HD
ATOM     56   C  NAG B   4       4.266  18.417  18.8880  0.00  0.00     0.000 C
ATOM     57   O  NAG B   4       4.191  16.996  18.7120  0.00  0.00     0.000 O
ATOM     59  HD  NAG B   4       3.566  16.440  18.4900  0.00  0.00     0.000 HD
BRANCH 49 61
ATOM     59   N  NAG B   4       7.673  18.031  23.4400  0.00  0.00     0.000 N
ATOM     61  HD  NAG B   4       7.130  17.446  23.1040  0.00  0.00     0.000 HD
ATOM     61   O  NAG B   4       8.363  15.899  23.7230  0.00  0.00     0.000 OA
ATOM     62   C  NAG B   4       8.384  17.077  24.0520  0.00  0.00     0.000 C
ATOM     63   C  NAG B   4       9.251  17.538  25.1800  0.00  0.00     0.000 C
ENDBRANCH 49 61
BRANCH 48 64
ATOM     64  O4  BDP B   5       4.756  18.634  23.5800  0.00  0.00     0.000 O
BRANCH 64 68
ATOM     65  C1  BDP B   5       5.500  16.951  27.3210  0.00  0.00     0.000 C
ATOM     66  C2  BDP B   5       4.142  16.638  26.7060  0.00  0.00     0.000 C
ATOM     67  C3  BDP B   5       4.174  16.936  25.2130  0.00  0.00     0.000 C
ATOM     68  C4  BDP B   5       4.599  18.382  24.9760  0.00  0.00     0.000 C
ATOM     69  C5  BDP B   5       5.906  18.719  25.6810  0.00  0.00     0.000 C
ATOM     70  O5  BDP B   5       5.854  18.319  27.0620  0.00  0.00     0.000 O
ATOM     71   O  BDP B   5       3.801  15.267  26.9660  0.00  0.00     0.000 O
ATOM     73  HD  BDP B   5       3.653  14.430  27.1330  0.00  0.00     0.000 HD
ATOM     73   O  BDP B   5       2.884  16.722  24.6290  0.00  0.00     0.000 O
ATOM     75  HD  BDP B   5       2.736  15.885  24.7960  0.00  0.00     0.000 HD
BRANCH 69 75
ATOM     75   C  BDP B   5       6.119  20.209  25.5970  0.00  0.00     0.000 C
ATOM     76   O  BDP B   5       5.243  20.967  26.0590  0.00  0.00     0.000 OA
ATOM     77   O  BDP B   5       7.162  20.641  25.0720  0.00  0.00     0.000 OA
ENDBRANCH 69 75
BRANCH 65 78
ATOM     78  O3  NAG B   6       5.746  17.379  28.6630  0.00  0.00     0.000 O
BRANCH 78 81
ATOM     79  C1  NAG B   6       8.176  16.037  31.2370  0.00  0.00     0.000 C
ATOM     80  C2  NAG B   6       6.999  16.018  30.2490  0.00  0.00     0.000 C
ATOM     81  C3  NAG B   6       6.935  17.328  29.4800  0.00  0.00     0.000 C
ATOM     82  C4  NAG B   6       6.964  18.524  30.4370  0.00  0.00     0.000 C
ATOM     83  C5  NAG B   6       8.185  18.419  31.3440  0.00  0.00     0.000 C
ATOM     84  O5  NAG B   6       8.073  17.199  32.0790  0.00  0.00     0.000 O
BRANCH 80 87
ATOM     85   N  NAG B   6       7.141  14.888  29.3350  0.00  0.00     0.000 N
ATOM     87  HD  NAG B   6       7.145  14.033  29.1970  0.00  0.00     0.000 HD
ATOM     87   C  NAG B   6       6.148  14.045  29.0270  0.00  0.00     0.000 C
ATOM     88   C  NAG B   6       6.490  12.972  28.0420  0.00  0.00     0.000 C
ATOM     89   O  NAG B   6       5.021  14.138  29.4980  0.00  0.00     0.000 OA
ENDBRANCH 80 87
ATOM     90   O  NAG B   6       9.466  20.371  31.9710  0.00  0.00     0.000 O
ATOM     92  HD  NAG B   6       9.488  19.520  31.8160  0.00  0.00     0.000 HD
ATOM     92   O  NAG B   6       9.466  20.371  31.9710  0.00  0.00     0.000 O
ATOM     94  HD  NAG B   6       9.488  19.520  31.8160  0.00  0.00     0.000 HD
ENDBRANCH 78 81
ENDBRANCH 65 78
ENDBRANCH 64 68
ENDBRANCH 48 64
ENDBRANCH 47 50
ENDBRANCH 34 47
ENDBRANCH 33 37
ENDBRANCH 17 33
ENDBRANCH 16 19
ENDBRANCH 1 16
TORSDOF 16
ENDMDL
MODEL 17
REMARK VINA RESULT:      -6.4      4.174     16.809
ROOT
ATOM      1  C1  BDP B   1      19.975  13.334  30.0400  0.00  0.00     0.000 C
ATOM      2  C2  BDP B   1      20.960  14.470  30.2530  0.00  0.00     0.000 C
ATOM      3  C3  BDP B   1      22.371  14.081  29.8670  0.00  0.00     0.000 C
ATOM      4  C4  BDP B   1      22.459  12.807  29.0350  0.00  0.00     0.000 C
ATOM      5  C5  BDP B   1      21.614  11.671  29.6040  0.00  0.00     0.000 C
ATOM      6  O5  BDP B   1      20.602  12.149  30.5070  0.00  0.00     0.000 O
ATOM      7   O  BDP B   1      20.553  15.615  29.4970  0.00  0.00     0.000 O
ATOM      9  HD  BDP B   1      19.943  16.164  29.2170  0.00  0.00     0.000 HD
ATOM      9   O  BDP B   1      23.166  13.887  31.0480  0.00  0.00     0.000 O
ATOM     11  HD  BDP B   1      22.557  14.435  30.7680  0.00  0.00     0.000 HD
ATOM     11   O  BDP B   1      22.072  13.067  27.6810  0.00  0.00     0.000 O
ATOM     13  HD  BDP B   1      21.463  13.615  27.4010  0.00  0.00     0.000 HD
ENDROOT
BRANCH 5 13
ATOM     13   C  BDP B   1      22.537  10.752  30.3240  0.00  0.00     0.000 C
ATOM     14   O  BDP B   1      22.756  10.966  31.5340  0.00  0.00     0.000 OA
ATOM     15   O  BDP B   1      23.038   9.788  29.7070  0.00  0.00     0.000 OA
ENDBRANCH 5 13
BRANCH 1 16
ATOM     16  O3  NAG B   2      18.801  13.264  29.2330  0.00  0.00     0.000 O
BRANCH 16 19
ATOM     17  C1  NAG B   2      15.677  11.674  30.2160  0.00  0.00     0.000 C
ATOM     18  C2  NAG B   2      16.689  12.811  30.3610  0.00  0.00     0.000 C
ATOM     19  C3  NAG B   2      17.400  13.066  29.0400  0.00  0.00     0.000 C
ATOM     20  C4  NAG B   2      17.172  11.925  28.0440  0.00  0.00     0.000 C
ATOM     21  C5  NAG B   2      17.091  10.524  28.6650  0.00  0.00     0.000 C
ATOM     22  O5  NAG B   2      16.458  10.507  29.9510  0.00  0.00     0.000 O
ATOM     23   O  NAG B   2      15.977  12.198  27.3050  0.00  0.00     0.000 O
ATOM     25  HD  NAG B   2      15.537  12.492  27.9910  0.00  0.00     0.000 HD
ATOM     25   C  NAG B   2      18.491   9.910  28.8000  0.00  0.00     0.000 C
ATOM     26   O  NAG B   2      18.906   9.262  27.5890  0.00  0.00     0.000 O
ATOM     28  HD  NAG B   2      18.466   9.556  28.2750  0.00  0.00     0.000 HD
BRANCH 18 30
ATOM     28   N  NAG B   2      15.908  13.861  31.0120  0.00  0.00     0.000 N
ATOM     30  HD  NAG B   2      15.283  13.983  31.6000  0.00  0.00     0.000 HD
ATOM     30   C  NAG B   2      14.981  14.617  30.4060  0.00  0.00     0.000 C
ATOM     31   C  NAG B   2      14.322  15.638  31.2890  0.00  0.00     0.000 C
ATOM     32   O  NAG B   2      14.682  14.497  29.2400  0.00  0.00     0.000 OA
ENDBRANCH 18 30
BRANCH 17 33
ATOM     33  O4  BDP B   3      14.856  10.618  30.7610  0.00  0.00     0.000 O
BRANCH 33 37
ATOM     34  C1  BDP B   3      12.022   9.102  33.5740  0.00  0.00     0.000 C
ATOM     35  C2  BDP B   3      11.871   8.657  32.1240  0.00  0.00     0.000 C
ATOM     36  C3  BDP B   3      13.123   8.880  31.2830  0.00  0.00     0.000 C
ATOM     37  C4  BDP B   3      13.675  10.289  31.5490  0.00  0.00     0.000 C
ATOM     38  C5  BDP B   3      13.923  10.404  33.0650  0.00  0.00     0.000 C
ATOM     39  O5  BDP B   3      12.629  10.395  33.6690  0.00  0.00     0.000 O
ATOM     40   O  BDP B   3      11.485   7.282  32.1660  0.00  0.00     0.000 O
ATOM     42  HD  BDP B   3      10.720   7.662  32.3120  0.00  0.00     0.000 HD
ATOM     42   O  BDP B   3      12.738   8.709  29.9200  0.00  0.00     0.000 O
ATOM     44  HD  BDP B   3      11.973   9.089  30.0670  0.00  0.00     0.000 HD
BRANCH 38 44
ATOM     44   C  BDP B   3      14.667  11.636  33.4790  0.00  0.00     0.000 C
ATOM     45   O  BDP B   3      15.818  11.494  33.9480  0.00  0.00     0.000 OA
ATOM     46   O  BDP B   3      14.128  12.757  33.3480  0.00  0.00     0.000 OA
ENDBRANCH 38 44
BRANCH 34 47
ATOM     47  O3  NAG B   4      10.826   9.692  34.0790  0.00  0.00     0.000 O
BRANCH 47 50
ATOM     48  C1  NAG B   4       9.723   8.639  37.5170  0.00  0.00     0.000 C
ATOM     49  C2  NAG B   4      10.029   8.486  36.0370  0.00  0.00     0.000 C
ATOM     50  C3  NAG B   4      10.591   9.796  35.4980  0.00  0.00     0.000 C
ATOM     51  C4  NAG B   4       9.656  10.962  35.7740  0.00  0.00     0.000 C
ATOM     52  C5  NAG B   4       9.328  11.023  37.2660  0.00  0.00     0.000 C
ATOM     53  O5  NAG B   4       8.836   9.757  37.7220  0.00  0.00     0.000 O
ATOM     54   O  NAG B   4      10.283  12.174  35.3440  0.00  0.00     0.000 O
ATOM     56  HD  NAG B   4       9.436  12.273  35.4990  0.00  0.00     0.000 HD
ATOM     56   C  NAG B   4       8.294  12.103  37.5620  0.00  0.00     0.000 C
ATOM     57   O  NAG B   4       7.092  11.811  36.8370  0.00  0.00     0.000 O
ATOM     59  HD  NAG B   4       6.246  11.910  36.9920  0.00  0.00     0.000 HD
BRANCH 49 61
ATOM     59   N  NAG B   4      10.652   7.165  36.1340  0.00  0.00     0.000 N
ATOM     61  HD  NAG B   4       9.874   7.506  35.9610  0.00  0.00     0.000 HD
ATOM     61   O  NAG B   4       9.658   6.263  34.3170  0.00  0.00     0.000 OA
ATOM     62   C  NAG B   4      10.470   6.196  35.2290  0.00  0.00     0.000 C
ATOM     63   C  NAG B   4      11.352   4.997  35.3780  0.00  0.00     0.000 C
ENDBRANCH 49 61
BRANCH 48 64
ATOM     64  O4  BDP B   5       9.707   7.719  38.6040  0.00  0.00     0.000 O
BRANCH 64 68
ATOM     65  C1  BDP B   5      11.080   8.296  42.4980  0.00  0.00     0.000 C
ATOM     66  C2  BDP B   5      12.112   7.801  41.4930  0.00  0.00     0.000 C
ATOM     67  C3  BDP B   5      11.607   8.047  40.0770  0.00  0.00     0.000 C
ATOM     68  C4  BDP B   5      10.246   7.388  39.8840  0.00  0.00     0.000 C
ATOM     69  C5  BDP B   5       9.247   7.806  40.9550  0.00  0.00     0.000 C
ATOM     70  O5  BDP B   5       9.817   7.651  42.2660  0.00  0.00     0.000 O
ATOM     71   O  BDP B   5      13.367   8.456  41.7300  0.00  0.00     0.000 O
ATOM     73  HD  BDP B   5      14.094   8.894  41.9020  0.00  0.00     0.000 HD
ATOM     73   O  BDP B   5      12.528   7.518  39.1160  0.00  0.00     0.000 O
ATOM     75  HD  BDP B   5      13.255   7.956  39.2890  0.00  0.00     0.000 HD
BRANCH 69 75
ATOM     75   C  BDP B   5       8.025   6.933  40.8300  0.00  0.00     0.000 C
ATOM     76   O  BDP B   5       6.936   7.464  40.5330  0.00  0.00     0.000 OA
ATOM     77   O  BDP B   5       8.137   5.708  41.0230  0.00  0.00     0.000 OA
ENDBRANCH 69 75
BRANCH 65 78
ATOM     78  O3  NAG B   6      10.851   7.771  43.8080  0.00  0.00     0.000 O
BRANCH 78 81
ATOM     79  C1  NAG B   6      10.692   9.298  47.2690  0.00  0.00     0.000 C
ATOM     80  C2  NAG B   6      11.329   8.823  45.9530  0.00  0.00     0.000 C
ATOM     81  C3  NAG B   6      10.254   8.360  44.9840  0.00  0.00     0.000 C
ATOM     82  C4  NAG B   6       9.312   7.353  45.6530  0.00  0.00     0.000 C
ATOM     83  C5  NAG B   6       8.747   7.961  46.9320  0.00  0.00     0.000 C
ATOM     84  O5  NAG B   6       9.847   8.257  47.7920  0.00  0.00     0.000 O
BRANCH 80 87
ATOM     85   N  NAG B   6      12.180   9.919  45.4990  0.00  0.00     0.000 N
ATOM     87  HD  NAG B   6      12.918  10.368  45.5600  0.00  0.00     0.000 HD
ATOM     87   C  NAG B   6      13.363   9.748  44.8970  0.00  0.00     0.000 C
ATOM     88   C  NAG B   6      14.064  11.001  44.4760  0.00  0.00     0.000 C
ATOM     89   O  NAG B   6      13.851   8.645  44.6810  0.00  0.00     0.000 OA
ENDBRANCH 80 87
ATOM     90   O  NAG B   6       6.450   7.598  47.5960  0.00  0.00     0.000 O
ATOM     92  HD  NAG B   6       7.125   8.140  47.6170  0.00  0.00     0.000 HD
ATOM     92   O  NAG B   6       6.450   7.598  47.5960  0.00  0.00     0.000 O
ATOM     94  HD  NAG B   6       7.125   8.140  47.6170  0.00  0.00     0.000 HD
ENDBRANCH 78 81
ENDBRANCH 65 78
ENDBRANCH 64 68
ENDBRANCH 48 64
ENDBRANCH 47 50
ENDBRANCH 34 47
ENDBRANCH 33 37
ENDBRANCH 17 33
ENDBRANCH 16 19
ENDBRANCH 1 16
TORSDOF 16
ENDMDL
MODEL 18
REMARK VINA RESULT:      -5.9     10.394     12.947
ROOT
ATOM      1  C1  BDP B   1       5.152  18.945  33.7740  0.00  0.00     0.000 C
ATOM      2  C2  BDP B   1       5.105  20.462  33.8040  0.00  0.00     0.000 C
ATOM      3  C3  BDP B   1       6.462  21.080  33.5460  0.00  0.00     0.000 C
ATOM      4  C4  BDP B   1       7.488  20.109  32.9720  0.00  0.00     0.000 C
ATOM      5  C5  BDP B   1       7.519  18.777  33.7140  0.00  0.00     0.000 C
ATOM      6  O5  BDP B   1       6.322  18.553  34.4770  0.00  0.00     0.000 O
ATOM      7   O  BDP B   1       4.167  20.939  32.8320  0.00  0.00     0.000 O
ATOM      9  HD  BDP B   1       3.399  20.899  32.4340  0.00  0.00     0.000 HD
ATOM      9   O  BDP B   1       7.000  21.610  34.7680  0.00  0.00     0.000 O
ATOM     11  HD  BDP B   1       6.232  21.569  34.3690  0.00  0.00     0.000 HD
ATOM     11   O  BDP B   1       7.236  19.881  31.5800  0.00  0.00     0.000 O
ATOM     13  HD  BDP B   1       6.468  19.840  31.1810  0.00  0.00     0.000 HD
ENDROOT
BRANCH 5 13
ATOM     13   C  BDP B   1       8.697  18.808  34.6250  0.00  0.00     0.000 C
ATOM     14   O  BDP B   1       9.570  19.679  34.4310  0.00  0.00     0.000 OA
ATOM     15   O  BDP B   1       8.761  17.985  35.5640  0.00  0.00     0.000 OA
ENDBRANCH 5 13
BRANCH 1 16
ATOM     16  O3  NAG B   2       4.449  18.012  32.9560  0.00  0.00     0.000 O
BRANCH 16 19
ATOM     17  C1  NAG B   2       5.754  16.058  30.1740  0.00  0.00     0.000 C
ATOM     18  C2  NAG B   2       5.761  16.418  31.6600  0.00  0.00     0.000 C
ATOM     19  C3  NAG B   2       4.377  16.863  32.1090  0.00  0.00     0.000 C
ATOM     20  C4  NAG B   2       3.461  17.157  30.9180  0.00  0.00     0.000 C
ATOM     21  C5  NAG B   2       4.158  17.776  29.6980  0.00  0.00     0.000 C
ATOM     22  O5  NAG B   2       5.488  17.285  29.4920  0.00  0.00     0.000 O
ATOM     23   O  NAG B   2       2.805  15.943  30.5380  0.00  0.00     0.000 O
ATOM     25  HD  NAG B   2       3.508  15.448  30.6460  0.00  0.00     0.000 HD
ATOM     25   C  NAG B   2       4.213  19.305  29.8240  0.00  0.00     0.000 C
ATOM     26   O  NAG B   2       3.008  19.921  29.3490  0.00  0.00     0.000 O
ATOM     28  HD  NAG B   2       3.710  19.426  29.4580  0.00  0.00     0.000 HD
BRANCH 18 30
ATOM     28   N  NAG B   2       5.235  15.253  32.3710  0.00  0.00     0.000 N
ATOM     30  HD  NAG B   2       5.066  14.958  33.1670  0.00  0.00     0.000 HD
ATOM     30   C  NAG B   2       5.847  14.064  32.4540  0.00  0.00     0.000 C
ATOM     31   C  NAG B   2       5.098  13.020  33.2320  0.00  0.00     0.000 C
ATOM     32   O  NAG B   2       6.923  13.832  31.9530  0.00  0.00     0.000 OA
ENDBRANCH 18 30
BRANCH 17 33
ATOM     33  O4  BDP B   3       6.415  15.860  28.9060  0.00  0.00     0.000 O
BRANCH 33 37
ATOM     34  C1  BDP B   3       8.982  16.799  25.6240  0.00  0.00     0.000 C
ATOM     35  C2  BDP B   3       9.306  17.440  26.9680  0.00  0.00     0.000 C
ATOM     36  C3  BDP B   3       8.636  16.750  28.1510  0.00  0.00     0.000 C
ATOM     37  C4  BDP B   3       7.160  16.484  27.8200  0.00  0.00     0.000 C
ATOM     38  C5  BDP B   3       7.124  15.654  26.5220  0.00  0.00     0.000 C
ATOM     39  O5  BDP B   3       7.581  16.529  25.4910  0.00  0.00     0.000 O
ATOM     40   O  BDP B   3      10.731  17.439  27.0780  0.00  0.00     0.000 O
ATOM     42  HD  BDP B   3      10.615  18.135  26.5770  0.00  0.00     0.000 HD
ATOM     42   O  BDP B   3       8.780  17.623  29.2700  0.00  0.00     0.000 O
ATOM     44  HD  BDP B   3       8.664  18.320  28.7690  0.00  0.00     0.000 HD
BRANCH 38 44
ATOM     44   C  BDP B   3       5.773  15.116  26.1680  0.00  0.00     0.000 C
ATOM     45   O  BDP B   3       5.552  13.903  26.3800  0.00  0.00     0.000 OA
ATOM     46   O  BDP B   3       4.913  15.879  25.6770  0.00  0.00     0.000 OA
ENDBRANCH 38 44
BRANCH 34 47
ATOM     47  O3  NAG B   4       8.831  17.771  24.5910  0.00  0.00     0.000 O
BRANCH 47 50
ATOM     48  C1  NAG B   4      11.070  17.485  21.5830  0.00  0.00     0.000 C
ATOM     49  C2  NAG B   4      10.703  17.734  23.0350  0.00  0.00     0.000 C
ATOM     50  C3  NAG B   4       9.213  17.476  23.2320  0.00  0.00     0.000 C
ATOM     51  C4  NAG B   4       8.371  18.306  22.2770  0.00  0.00     0.000 C
ATOM     52  C5  NAG B   4       8.832  18.068  20.8380  0.00  0.00     0.000 C
ATOM     53  O5  NAG B   4      10.243  18.293  20.7220  0.00  0.00     0.000 O
ATOM     54   O  NAG B   4       6.996  17.944  22.4330  0.00  0.00     0.000 O
ATOM     56  HD  NAG B   4       7.099  18.679  21.9860  0.00  0.00     0.000 HD
ATOM     56   C  NAG B   4       8.094  18.978  19.8630  0.00  0.00     0.000 C
ATOM     57   O  NAG B   4       8.352  20.345  20.2110  0.00  0.00     0.000 O
ATOM     59  HD  NAG B   4       8.455  21.080  19.7650  0.00  0.00     0.000 HD
BRANCH 49 61
ATOM     59   N  NAG B   4      11.432  18.996  23.1660  0.00  0.00     0.000 N
ATOM     61  HD  NAG B   4      10.944  18.474  23.6550  0.00  0.00     0.000 HD
ATOM     61   O  NAG B   4      12.315  18.590  25.2050  0.00  0.00     0.000 OA
ATOM     62   C  NAG B   4      12.230  19.283  24.2010  0.00  0.00     0.000 C
ATOM     63   C  NAG B   4      13.055  20.522  24.0580  0.00  0.00     0.000 C
ENDBRANCH 49 61
BRANCH 48 64
ATOM     64  O4  BDP B   5      12.269  17.054  20.9450  0.00  0.00     0.000 O
BRANCH 64 68
ATOM     65  C1  BDP B   5      15.457  19.548  19.9510  0.00  0.00     0.000 C
ATOM     66  C2  BDP B   5      14.637  19.015  18.7830  0.00  0.00     0.000 C
ATOM     67  C3  BDP B   5      13.297  18.499  19.2900  0.00  0.00     0.000 C
ATOM     68  C4  BDP B   5      13.515  17.449  20.3740  0.00  0.00     0.000 C
ATOM     69  C5  BDP B   5      14.422  17.954  21.4890  0.00  0.00     0.000 C
ATOM     70  O5  BDP B   5      15.625  18.524  20.9440  0.00  0.00     0.000 O
ATOM     71   O  BDP B   5      14.471  20.048  17.8000  0.00  0.00     0.000 O
ATOM     73  HD  BDP B   5      14.383  20.712  17.2500  0.00  0.00     0.000 HD
ATOM     73   O  BDP B   5      12.542  17.922  18.2190  0.00  0.00     0.000 O
ATOM     75  HD  BDP B   5      12.454  18.585  17.6690  0.00  0.00     0.000 HD
BRANCH 69 75
ATOM     75   C  BDP B   5      14.776  16.788  22.3770  0.00  0.00     0.000 C
ATOM     76   O  BDP B   5      15.196  15.739  21.8490  0.00  0.00     0.000 OA
ATOM     77   O  BDP B   5      14.642  16.905  23.6090  0.00  0.00     0.000 OA
ENDBRANCH 69 75
BRANCH 65 78
ATOM     78  O3  NAG B   6      16.883  19.563  20.0500  0.00  0.00     0.000 O
BRANCH 78 81
ATOM     79  C1  NAG B   6      19.692  22.082  20.3690  0.00  0.00     0.000 C
ATOM     80  C2  NAG B   6      18.622  21.228  19.6710  0.00  0.00     0.000 C
ATOM     81  C3  NAG B   6      17.787  20.483  20.7000  0.00  0.00     0.000 C
ATOM     82  C4  NAG B   6      18.684  19.726  21.6850  0.00  0.00     0.000 C
ATOM     83  C5  NAG B   6      19.683  20.695  22.3090  0.00  0.00     0.000 C
ATOM     84  O5  NAG B   6      20.466  21.249  21.2510  0.00  0.00     0.000 O
BRANCH 80 87
ATOM     85   N  NAG B   6      18.471  21.236  18.2180  0.00  0.00     0.000 N
ATOM     87  HD  NAG B   6      18.043  20.986  17.5090  0.00  0.00     0.000 HD
ATOM     87   C  NAG B   6      17.438  21.794  17.5760  0.00  0.00     0.000 C
ATOM     88   C  NAG B   6      17.490  21.726  16.0820  0.00  0.00     0.000 C
ATOM     89   O  NAG B   6      16.507  22.342  18.1550  0.00  0.00     0.000 OA
ENDBRANCH 80 87
ATOM     90   O  NAG B   6      20.307  20.542  24.6400  0.00  0.00     0.000 O
ATOM     92  HD  NAG B   6      20.195  21.068  23.9610  0.00  0.00     0.000 HD
ATOM     92   O  NAG B   6      20.307  20.542  24.6400  0.00  0.00     0.000 O
ATOM     94  HD  NAG B   6      20.195  21.068  23.9610  0.00  0.00     0.000 HD
ENDBRANCH 78 81
ENDBRANCH 65 78
ENDBRANCH 64 68
ENDBRANCH 48 64
ENDBRANCH 47 50
ENDBRANCH 34 47
ENDBRANCH 33 37
ENDBRANCH 17 33
ENDBRANCH 16 19
ENDBRANCH 1 16
TORSDOF 16
ENDMDL
MODEL 19
REMARK VINA RESULT:      -5.9     12.317     16.964
ROOT
ATOM      1  C1  BDP B   1      31.254   2.905  24.2860  0.00  0.00     0.000 C
ATOM      2  C2  BDP B   1      31.886   3.863  25.2800  0.00  0.00     0.000 C
ATOM      3  C3  BDP B   1      31.744   5.307  24.8500  0.00  0.00     0.000 C
ATOM      4  C4  BDP B   1      30.721   5.527  23.7400  0.00  0.00     0.000 C
ATOM      5  C5  BDP B   1      30.867   4.528  22.5960  0.00  0.00     0.000 C
ATOM      6  O5  BDP B   1      31.608   3.360  22.9880  0.00  0.00     0.000 O
ATOM      7   O  BDP B   1      31.294   3.685  26.5710  0.00  0.00     0.000 O
ATOM      9  HD  BDP B   1      31.001   3.178  27.2090  0.00  0.00     0.000 HD
ATOM      9   O  BDP B   1      33.007   5.807  24.3840  0.00  0.00     0.000 O
ATOM     11  HD  BDP B   1      32.714   5.300  25.0210  0.00  0.00     0.000 HD
ATOM     11   O  BDP B   1      29.391   5.467  24.2680  0.00  0.00     0.000 O
ATOM     13  HD  BDP B   1      29.097   4.959  24.9060  0.00  0.00     0.000 HD
ENDROOT
BRANCH 5 13
ATOM     13   C  BDP B   1      31.578   5.226  21.4900  0.00  0.00     0.000 C
ATOM     14   O  BDP B   1      31.830   6.442  21.6250  0.00  0.00     0.000 OA
ATOM     15   O  BDP B   1      31.921   4.574  20.4810  0.00  0.00     0.000 OA
ENDBRANCH 5 13
BRANCH 1 16
ATOM     16  O3  NAG B   2      30.217   1.941  24.4580  0.00  0.00     0.000 O
BRANCH 16 19
ATOM     17  C1  NAG B   2      26.747   2.254  23.4040  0.00  0.00     0.000 C
ATOM     18  C2  NAG B   2      28.233   2.152  23.0600  0.00  0.00     0.000 C
ATOM     19  C3  NAG B   2      28.970   1.336  24.1120  0.00  0.00     0.000 C
ATOM     20  C4  NAG B   2      28.124   1.138  25.3720  0.00  0.00     0.000 C
ATOM     21  C5  NAG B   2      27.226   2.325  25.7470  0.00  0.00     0.000 C
ATOM     22  O5  NAG B   2      26.693   3.016  24.6120  0.00  0.00     0.000 O
ATOM     23   O  NAG B   2      27.327  -0.039  25.2040  0.00  0.00     0.000 O
ATOM     25  HD  NAG B   2      27.138   0.122  24.3750  0.00  0.00     0.000 HD
ATOM     25   C  NAG B   2      27.994   3.331  26.6170  0.00  0.00     0.000 C
ATOM     26   O  NAG B   2      27.959   2.968  28.0050  0.00  0.00     0.000 O
ATOM     28  HD  NAG B   2      27.769   3.129  27.1750  0.00  0.00     0.000 HD
BRANCH 18 30
ATOM     28   N  NAG B   2      27.435   1.414  22.0830  0.00  0.00     0.000 N
ATOM     30  HD  NAG B   2      26.824   0.803  22.0210  0.00  0.00     0.000 HD
ATOM     30   C  NAG B   2      27.918   0.501  21.2280  0.00  0.00     0.000 C
ATOM     31   C  NAG B   2      26.896  -0.112  20.3140  0.00  0.00     0.000 C
ATOM     32   O  NAG B   2      29.083   0.180  21.1860  0.00  0.00     0.000 OA
ENDBRANCH 18 30
BRANCH 17 33
ATOM     33  O4  BDP B   3      25.456   2.895  23.3110  0.00  0.00     0.000 O
BRANCH 33 37
ATOM     34  C1  BDP B   3      22.971   5.770  21.3620  0.00  0.00     0.000 C
ATOM     35  C2  BDP B   3      22.274   4.661  22.1400  0.00  0.00     0.000 C
ATOM     36  C3  BDP B   3      23.184   3.947  23.1330  0.00  0.00     0.000 C
ATOM     37  C4  BDP B   3      24.523   3.617  22.4550  0.00  0.00     0.000 C
ATOM     38  C5  BDP B   3      25.106   4.942  21.9270  0.00  0.00     0.000 C
ATOM     39  O5  BDP B   3      24.245   5.346  20.8630  0.00  0.00     0.000 O
ATOM     40   O  BDP B   3      21.148   5.266  22.7780  0.00  0.00     0.000 O
ATOM     42  HD  BDP B   3      20.829   5.147  21.9820  0.00  0.00     0.000 HD
ATOM     42   O  BDP B   3      22.495   2.768  23.5470  0.00  0.00     0.000 O
ATOM     44  HD  BDP B   3      22.176   2.649  22.7510  0.00  0.00     0.000 HD
BRANCH 38 44
ATOM     44   C  BDP B   3      26.515   4.843  21.4280  0.00  0.00     0.000 C
ATOM     45   O  BDP B   3      27.394   5.505  22.0230  0.00  0.00     0.000 OA
ATOM     46   O  BDP B   3      26.773   4.114  20.4460  0.00  0.00     0.000 OA
ENDBRANCH 38 44
BRANCH 34 47
ATOM     47  O3  NAG B   4      22.528   5.831  20.0070  0.00  0.00     0.000 O
BRANCH 47 50
ATOM     48  C1  NAG B   4      21.745   9.018  18.1700  0.00  0.00     0.000 C
ATOM     49  C2  NAG B   4      21.492   7.829  19.0800  0.00  0.00     0.000 C
ATOM     50  C3  NAG B   4      22.767   7.002  19.2000  0.00  0.00     0.000 C
ATOM     51  C4  NAG B   4      23.290   6.581  17.8360  0.00  0.00     0.000 C
ATOM     52  C5  NAG B   4      23.459   7.810  16.9430  0.00  0.00     0.000 C
ATOM     53  O5  NAG B   4      22.241   8.564  16.8950  0.00  0.00     0.000 O
ATOM     54   O  NAG B   4      24.539   5.905  18.0050  0.00  0.00     0.000 O
ATOM     56  HD  NAG B   4      24.204   5.794  17.2140  0.00  0.00     0.000 HD
ATOM     56   C  NAG B   4      23.863   7.414  15.5270  0.00  0.00     0.000 C
ATOM     57   O  NAG B   4      22.846   6.573  14.9680  0.00  0.00     0.000 O
ATOM     59  HD  NAG B   4      22.511   6.463  14.1770  0.00  0.00     0.000 HD
BRANCH 49 61
ATOM     59   N  NAG B   4      20.921   8.386  20.3080  0.00  0.00     0.000 N
ATOM     61  HD  NAG B   4      20.651   8.111  19.5320  0.00  0.00     0.000 HD
ATOM     61   O  NAG B   4      19.123   7.023  20.4140  0.00  0.00     0.000 OA
ATOM     62   C  NAG B   4      19.832   7.889  20.9060  0.00  0.00     0.000 C
ATOM     63   C  NAG B   4      19.524   8.449  22.2580  0.00  0.00     0.000 C
ENDBRANCH 49 61
BRANCH 48 64
ATOM     64  O4  BDP B   5      21.188  10.328  18.1080  0.00  0.00     0.000 O
BRANCH 64 68
ATOM     65  C1  BDP B   5      20.355  14.349  17.3940  0.00  0.00     0.000 C
ATOM     66  C2  BDP B   5      21.097  13.614  16.2850  0.00  0.00     0.000 C
ATOM     67  C3  BDP B   5      20.951  12.111  16.4800  0.00  0.00     0.000 C
ATOM     68  C4  BDP B   5      21.439  11.712  17.8690  0.00  0.00     0.000 C
ATOM     69  C5  BDP B   5      20.769  12.525  18.9690  0.00  0.00     0.000 C
ATOM     70  O5  BDP B   5      20.846  13.931  18.6770  0.00  0.00     0.000 O
ATOM     71   O  BDP B   5      20.593  14.035  15.0080  0.00  0.00     0.000 O
ATOM     73  HD  BDP B   5      20.240  14.308  14.2660  0.00  0.00     0.000 HD
ATOM     73   O  BDP B   5      21.707  11.400  15.4920  0.00  0.00     0.000 O
ATOM     75  HD  BDP B   5      21.354  11.673  14.7500  0.00  0.00     0.000 HD
BRANCH 69 75
ATOM     75   C  BDP B   5      21.479  12.240  20.2680  0.00  0.00     0.000 C
ATOM     76   O  BDP B   5      20.996  11.388  21.0410  0.00  0.00     0.000 OA
ATOM     77   O  BDP B   5      22.527  12.859  20.5310  0.00  0.00     0.000 OA
ENDBRANCH 69 75
BRANCH 65 78
ATOM     78  O3  NAG B   6      20.689  15.630  17.9360  0.00  0.00     0.000 O
BRANCH 78 81
ATOM     79  C1  NAG B   6      19.118  19.066  18.1730  0.00  0.00     0.000 C
ATOM     80  C2  NAG B   6      19.862  17.885  17.5290  0.00  0.00     0.000 C
ATOM     81  C3  NAG B   6      19.863  16.689  18.4670  0.00  0.00     0.000 C
ATOM     82  C4  NAG B   6      20.357  17.088  19.8610  0.00  0.00     0.000 C
ATOM     83  C5  NAG B   6      19.524  18.256  20.3780  0.00  0.00     0.000 C
ATOM     84  O5  NAG B   6      19.688  19.341  19.4650  0.00  0.00     0.000 O
BRANCH 80 87
ATOM     85   N  NAG B   6      19.253  17.738  16.2100  0.00  0.00     0.000 N
ATOM     87  HD  NAG B   6      19.190  17.985  15.3830  0.00  0.00     0.000 HD
ATOM     87   C  NAG B   6      19.914  17.329  15.1210  0.00  0.00     0.000 C
ATOM     88   C  NAG B   6      19.099  17.210  13.8730  0.00  0.00     0.000 C
ATOM     89   O  NAG B   6      21.108  17.051  15.1290  0.00  0.00     0.000 OA
ENDBRANCH 80 87
ATOM     90   O  NAG B   6      18.865  18.408  22.7000  0.00  0.00     0.000 O
ATOM     92  HD  NAG B   6      18.656  18.600  21.8820  0.00  0.00     0.000 HD
ATOM     92   O  NAG B   6      18.865  18.408  22.7000  0.00  0.00     0.000 O
ATOM     94  HD  NAG B   6      18.656  18.600  21.8820  0.00  0.00     0.000 HD
ENDBRANCH 78 81
ENDBRANCH 65 78
ENDBRANCH 64 68
ENDBRANCH 48 64
ENDBRANCH 47 50
ENDBRANCH 34 47
ENDBRANCH 33 37
ENDBRANCH 17 33
ENDBRANCH 16 19
ENDBRANCH 1 16
TORSDOF 16
ENDMDL
MODEL 20
REMARK VINA RESULT:      -5.9      7.738     14.661
ROOT
ATOM      1  C1  BDP B   1      15.613  14.161  27.9260  0.00  0.00     0.000 C
ATOM      2  C2  BDP B   1      14.877  13.843  29.2150  0.00  0.00     0.000 C
ATOM      3  C3  BDP B   1      15.577  12.769  30.0210  0.00  0.00     0.000 C
ATOM      4  C4  BDP B   1      17.009  12.494  29.5760  0.00  0.00     0.000 C
ATOM      5  C5  BDP B   1      17.140  12.348  28.0630  0.00  0.00     0.000 C
ATOM      6  O5  BDP B   1      16.022  12.922  27.3650  0.00  0.00     0.000 O
ATOM      7   O  BDP B   1      14.745  15.029  30.0060  0.00  0.00     0.000 O
ATOM      9  HD  BDP B   1      14.570  15.873  30.0860  0.00  0.00     0.000 HD
ATOM      9   O  BDP B   1      14.847  11.535  29.9310  0.00  0.00     0.000 O
ATOM     11  HD  BDP B   1      14.672  12.380  30.0110  0.00  0.00     0.000 HD
ATOM     11   O  BDP B   1      17.884  13.529  30.0400  0.00  0.00     0.000 O
ATOM     13  HD  BDP B   1      17.709  14.373  30.1200  0.00  0.00     0.000 HD
ENDROOT
BRANCH 5 13
ATOM     13   C  BDP B   1      17.224  10.892  27.7660  0.00  0.00     0.000 C
ATOM     14   O  BDP B   1      17.962  10.524  26.8280  0.00  0.00     0.000 OA
ATOM     15   O  BDP B   1      16.581  10.089  28.4740  0.00  0.00     0.000 OA
ENDBRANCH 5 13
BRANCH 1 16
ATOM     16  O3  NAG B   2      16.160  15.389  27.4490  0.00  0.00     0.000 O
BRANCH 16 19
ATOM     17  C1  NAG B   2      17.784  17.495  24.9630  0.00  0.00     0.000 C
ATOM     18  C2  NAG B   2      16.901  16.297  25.3130  0.00  0.00     0.000 C
ATOM     19  C3  NAG B   2      16.151  16.547  26.6130  0.00  0.00     0.000 C
ATOM     20  C4  NAG B   2      16.725  17.742  27.3790  0.00  0.00     0.000 C
ATOM     21  C5  NAG B   2      18.247  17.913  27.2740  0.00  0.00     0.000 C
ATOM     22  O5  NAG B   2      18.774  17.546  25.9940  0.00  0.00     0.000 O
ATOM     23   O  NAG B   2      16.071  18.931  26.9240  0.00  0.00     0.000 O
ATOM     25  HD  NAG B   2      16.073  18.697  26.0900  0.00  0.00     0.000 HD
ATOM     25   C  NAG B   2      18.960  17.085  28.3530  0.00  0.00     0.000 C
ATOM     26   O  NAG B   2      19.046  17.795  29.5970  0.00  0.00     0.000 O
ATOM     28  HD  NAG B   2      19.048  17.561  28.7630  0.00  0.00     0.000 HD
BRANCH 18 30
ATOM     28   N  NAG B   2      16.320  16.210  23.9750  0.00  0.00     0.000 N
ATOM     30  HD  NAG B   2      16.446  16.465  23.1570  0.00  0.00     0.000 HD
ATOM     30   C  NAG B   2      15.174  16.793  23.5960  0.00  0.00     0.000 C
ATOM     31   C  NAG B   2      14.781  16.545  22.1670  0.00  0.00     0.000 C
ATOM     32   O  NAG B   2      14.499  17.476  24.3310  0.00  0.00     0.000 OA
ENDBRANCH 18 30
BRANCH 17 33
ATOM     33  O4  BDP B   3      18.909  18.099  24.2870  0.00  0.00     0.000 O
BRANCH 33 37
ATOM     34  C1  BDP B   3      20.938  17.237  20.6290  0.00  0.00     0.000 C
ATOM     35  C2  BDP B   3      21.579  16.734  21.9170  0.00  0.00     0.000 C
ATOM     36  C3  BDP B   3      20.622  16.699  23.1030  0.00  0.00     0.000 C
ATOM     37  C4  BDP B   3      19.830  18.014  23.1610  0.00  0.00     0.000 C
ATOM     38  C5  BDP B   3      19.122  18.182  21.8020  0.00  0.00     0.000 C
ATOM     39  O5  BDP B   3      20.161  18.419  20.8530  0.00  0.00     0.000 O
ATOM     40   O  BDP B   3      22.117  15.444  21.6180  0.00  0.00     0.000 O
ATOM     42  HD  BDP B   3      22.743  15.951  21.2980  0.00  0.00     0.000 HD
ATOM     42   O  BDP B   3      21.421  16.508  24.2690  0.00  0.00     0.000 O
ATOM     44  HD  BDP B   3      22.046  17.015  23.9490  0.00  0.00     0.000 HD
BRANCH 38 44
ATOM     44   C  BDP B   3      18.128  19.301  21.7570  0.00  0.00     0.000 C
ATOM     45   O  BDP B   3      18.544  20.462  21.9630  0.00  0.00     0.000 OA
ATOM     46   O  BDP B   3      16.926  19.050  21.5190  0.00  0.00     0.000 OA
ENDBRANCH 38 44
BRANCH 34 47
ATOM     47  O3  NAG B   4      21.834  18.043  19.8660  0.00  0.00     0.000 O
BRANCH 47 50
ATOM     48  C1  NAG B   4      21.588  17.392  16.1690  0.00  0.00     0.000 C
ATOM     49  C2  NAG B   4      21.790  17.062  17.6380  0.00  0.00     0.000 C
ATOM     50  C3  NAG B   4      21.580  18.320  18.4730  0.00  0.00     0.000 C
ATOM     51  C4  NAG B   4      22.478  19.456  18.0100  0.00  0.00     0.000 C
ATOM     52  C5  NAG B   4      22.282  19.695  16.5130  0.00  0.00     0.000 C
ATOM     53  O5  NAG B   4      22.459  18.474  15.7840  0.00  0.00     0.000 O
ATOM     54   O  NAG B   4      22.160  20.634  18.7560  0.00  0.00     0.000 O
ATOM     56  HD  NAG B   4      22.909  20.704  18.3250  0.00  0.00     0.000 HD
ATOM     56   C  NAG B   4      23.257  20.743  15.9870  0.00  0.00     0.000 C
ATOM     57   O  NAG B   4      24.598  20.288  16.2100  0.00  0.00     0.000 O
ATOM     59  HD  NAG B   4      25.346  20.357  15.7800  0.00  0.00     0.000 HD
BRANCH 49 61
ATOM     59   N  NAG B   4      21.054  15.798  17.6100  0.00  0.00     0.000 N
ATOM     61  HD  NAG B   4      21.872  16.075  17.5490  0.00  0.00     0.000 HD
ATOM     61   O  NAG B   4      22.499  14.613  18.8780  0.00  0.00     0.000 OA
ATOM     62   C  NAG B   4      21.432  14.709  18.2890  0.00  0.00     0.000 C
ATOM     63   C  NAG B   4      20.446  13.585  18.3110  0.00  0.00     0.000 C
ENDBRANCH 49 61
BRANCH 48 64
ATOM     64  O4  BDP B   5      21.139  16.625  15.0560  0.00  0.00     0.000 O
BRANCH 64 68
ATOM     65  C1  BDP B   5      21.341  13.102  12.8380  0.00  0.00     0.000 C
ATOM     66  C2  BDP B   5      22.658  13.601  13.4190  0.00  0.00     0.000 C
ATOM     67  C3  BDP B   5      22.380  14.609  14.5270  0.00  0.00     0.000 C
ATOM     68  C4  BDP B   5      21.511  15.745  13.9970  0.00  0.00     0.000 C
ATOM     69  C5  BDP B   5      20.245  15.234  13.3220  0.00  0.00     0.000 C
ATOM     70  O5  BDP B   5      20.561  14.210  12.3620  0.00  0.00     0.000 O
ATOM     71   O  BDP B   5      23.427  12.487  13.8970  0.00  0.00     0.000 O
ATOM     73  HD  BDP B   5      23.839  11.782  14.1860  0.00  0.00     0.000 HD
ATOM     73   O  BDP B   5      23.606  15.149  15.0340  0.00  0.00     0.000 O
ATOM     75  HD  BDP B   5      24.018  14.445  15.3240  0.00  0.00     0.000 HD
BRANCH 69 75
ATOM     75   C  BDP B   5      19.580  16.392  12.6240  0.00  0.00     0.000 C
ATOM     76   O  BDP B   5      18.642  16.980  13.1980  0.00  0.00     0.000 OA
ATOM     77   O  BDP B   5      19.986  16.731  11.4970  0.00  0.00     0.000 OA
ENDBRANCH 69 75
BRANCH 65 78
ATOM     78  O3  NAG B   6      21.119  12.662  11.4960  0.00  0.00     0.000 O
BRANCH 78 81
ATOM     79  C1  NAG B   6      20.092   9.434   9.8060  0.00  0.00     0.000 C
ATOM     80  C2  NAG B   6      21.014  10.427  10.5300  0.00  0.00     0.000 C
ATOM     81  C3  NAG B   6      20.231  11.660  10.9530  0.00  0.00     0.000 C
ATOM     82  C4  NAG B   6      19.448  12.241   9.7710  0.00  0.00     0.000 C
ATOM     83  C5  NAG B   6      18.571  11.153   9.1610  0.00  0.00     0.000 C
ATOM     84  O5  NAG B   6      19.431  10.103   8.7170  0.00  0.00     0.000 O
BRANCH 80 87
ATOM     85   N  NAG B   6      21.659   9.667  11.5960  0.00  0.00     0.000 N
ATOM     87  HD  NAG B   6      22.263   9.100  11.8520  0.00  0.00     0.000 HD
ATOM     87   C  NAG B   6      22.927   9.851  11.9860  0.00  0.00     0.000 C
ATOM     88   C  NAG B   6      23.388   8.993  13.1210  0.00  0.00     0.000 C
ATOM     89   O  NAG B   6      23.672  10.675  11.4690  0.00  0.00     0.000 OA
ENDBRANCH 80 87
ATOM     90   O  NAG B   6      16.339  11.629   8.3600  0.00  0.00     0.000 O
ATOM     92  HD  NAG B   6      16.864  11.034   8.7070  0.00  0.00     0.000 HD
ATOM     92   O  NAG B   6      16.339  11.629   8.3600  0.00  0.00     0.000 O
ATOM     94  HD  NAG B   6      16.864  11.034   8.7070  0.00  0.00     0.000 HD
ENDBRANCH 78 81
ENDBRANCH 65 78
ENDBRANCH 64 68
ENDBRANCH 48 64
ENDBRANCH 47 50
ENDBRANCH 34 47
ENDBRANCH 33 37
ENDBRANCH 17 33
ENDBRANCH 16 19
ENDBRANCH 1 16
TORSDOF 16
ENDMDL
MODEL 21
REMARK VINA RESULT:      -5.7     11.112     16.921
ROOT
ATOM      1  C1  BDP B   1      15.315  14.211  28.4770  0.00  0.00     0.000 C
ATOM      2  C2  BDP B   1      14.847  13.626  29.7970  0.00  0.00     0.000 C
ATOM      3  C3  BDP B   1      15.739  12.496  30.2680  0.00  0.00     0.000 C
ATOM      4  C4  BDP B   1      17.077  12.417  29.5420  0.00  0.00     0.000 C
ATOM      5  C5  BDP B   1      16.934  12.533  28.0270  0.00  0.00     0.000 C
ATOM      6  O5  BDP B   1      15.678  13.119  27.6450  0.00  0.00     0.000 O
ATOM      7   O  BDP B   1      14.802  14.651  30.7950  0.00  0.00     0.000 O
ATOM      9  HD  BDP B   1      14.600  15.453  31.0520  0.00  0.00     0.000 HD
ATOM      9   O  BDP B   1      15.070  11.238  30.0900  0.00  0.00     0.000 O
ATOM     11  HD  BDP B   1      14.869  12.040  30.3460  0.00  0.00     0.000 HD
ATOM     11   O  BDP B   1      17.967  13.431  30.0230  0.00  0.00     0.000 O
ATOM     13  HD  BDP B   1      17.766  14.234  30.2790  0.00  0.00     0.000 HD
ENDROOT
BRANCH 5 13
ATOM     13   C  BDP B   1      17.038  11.157  27.4680  0.00  0.00     0.000 C
ATOM     14   O  BDP B   1      17.319  10.224  28.2480  0.00  0.00     0.000 OA
ATOM     15   O  BDP B   1      16.816  10.977  26.2520  0.00  0.00     0.000 OA
ENDBRANCH 5 13
BRANCH 1 16
ATOM     16  O3  NAG B   2      15.700  15.541  28.1370  0.00  0.00     0.000 O
BRANCH 16 19
ATOM     17  C1  NAG B   2      14.230  18.286  26.2500  0.00  0.00     0.000 C
ATOM     18  C2  NAG B   2      14.106  17.186  27.3040  0.00  0.00     0.000 C
ATOM     19  C3  NAG B   2      15.448  16.939  27.9790  0.00  0.00     0.000 C
ATOM     20  C4  NAG B   2      16.600  17.587  27.2070  0.00  0.00     0.000 C
ATOM     21  C5  NAG B   2      16.445  17.582  25.6800  0.00  0.00     0.000 C
ATOM     22  O5  NAG B   2      15.090  17.747  25.2440  0.00  0.00     0.000 O
ATOM     23   O  NAG B   2      16.759  18.931  27.6730  0.00  0.00     0.000 O
ATOM     25  HD  NAG B   2      15.909  19.088  27.7260  0.00  0.00     0.000 HD
ATOM     25   C  NAG B   2      16.996  16.278  25.0850  0.00  0.00     0.000 C
ATOM     26   O  NAG B   2      18.411  16.352  24.8620  0.00  0.00     0.000 O
ATOM     28  HD  NAG B   2      17.561  16.509  24.9150  0.00  0.00     0.000 HD
BRANCH 18 30
ATOM     28   N  NAG B   2      13.535  18.444  27.7830  0.00  0.00     0.000 N
ATOM     30  HD  NAG B   2      13.758  19.237  28.0500  0.00  0.00     0.000 HD
ATOM     30   C  NAG B   2      12.928  18.611  28.9660  0.00  0.00     0.000 C
ATOM     31   C  NAG B   2      12.414  19.999  29.2230  0.00  0.00     0.000 C
ATOM     32   O  NAG B   2      12.800  17.726  29.7800  0.00  0.00     0.000 OA
ENDBRANCH 18 30
BRANCH 17 33
ATOM     33  O4  BDP B   3      13.784  18.969  25.0580  0.00  0.00     0.000 O
BRANCH 33 37
ATOM     34  C1  BDP B   3      13.453  19.938  20.9110  0.00  0.00     0.000 C
ATOM     35  C2  BDP B   3      12.584  18.799  21.4320  0.00  0.00     0.000 C
ATOM     36  C3  BDP B   3      12.435  18.790  22.9490  0.00  0.00     0.000 C
ATOM     37  C4  BDP B   3      13.810  19.000  23.6010  0.00  0.00     0.000 C
ATOM     38  C5  BDP B   3      14.382  20.318  23.0470  0.00  0.00     0.000 C
ATOM     39  O5  BDP B   3      14.662  20.069  21.6690  0.00  0.00     0.000 O
ATOM     40   O  BDP B   3      11.326  18.920  20.7650  0.00  0.00     0.000 O
ATOM     42  HD  BDP B   3      11.788  18.519  20.1520  0.00  0.00     0.000 HD
ATOM     42   O  BDP B   3      11.869  17.527  23.2980  0.00  0.00     0.000 O
ATOM     44  HD  BDP B   3      12.331  17.127  22.6850  0.00  0.00     0.000 HD
BRANCH 38 44
ATOM     44   C  BDP B   3      15.623  20.794  23.7370  0.00  0.00     0.000 C
ATOM     45   O  BDP B   3      15.512  21.726  24.5640  0.00  0.00     0.000 OA
ATOM     46   O  BDP B   3      16.721  20.257  23.4740  0.00  0.00     0.000 OA
ENDBRANCH 38 44
BRANCH 34 47
ATOM     47  O3  NAG B   4      14.261  19.531  19.8080  0.00  0.00     0.000 O
BRANCH 47 50
ATOM     48  C1  NAG B   4      15.103  22.052  17.1470  0.00  0.00     0.000 C
ATOM     49  C2  NAG B   4      14.231  21.102  17.9480  0.00  0.00     0.000 C
ATOM     50  C3  NAG B   4      15.053  20.488  19.0760  0.00  0.00     0.000 C
ATOM     51  C4  NAG B   4      16.308  19.810  18.5480  0.00  0.00     0.000 C
ATOM     52  C5  NAG B   4      17.108  20.793  17.6940  0.00  0.00     0.000 C
ATOM     53  O5  NAG B   4      16.276  21.362  16.6740  0.00  0.00     0.000 O
ATOM     54   O  NAG B   4      17.089  19.351  19.6550  0.00  0.00     0.000 O
ATOM     56  HD  NAG B   4      17.345  19.010  18.9010  0.00  0.00     0.000 HD
ATOM     56   C  NAG B   4      18.309  20.113  17.0450  0.00  0.00     0.000 C
ATOM     57   O  NAG B   4      17.846  19.045  16.2090  0.00  0.00     0.000 O
ATOM     59  HD  NAG B   4      18.102  18.704  15.4550  0.00  0.00     0.000 HD
BRANCH 49 61
ATOM     59   N  NAG B   4      13.041  21.900  18.2440  0.00  0.00     0.000 N
ATOM     61  HD  NAG B   4      13.330  21.371  17.6230  0.00  0.00     0.000 HD
ATOM     61   O  NAG B   4      11.516  20.371  17.5840  0.00  0.00     0.000 OA
ATOM     62   C  NAG B   4      11.792  21.441  18.1070  0.00  0.00     0.000 C
ATOM     63   C  NAG B   4      10.715  22.320  18.6590  0.00  0.00     0.000 C
ENDBRANCH 49 61
BRANCH 48 64
ATOM     64  O4  BDP B   5      14.820  23.230  16.3980  0.00  0.00     0.000 O
BRANCH 64 68
ATOM     65  C1  BDP B   5      14.600  23.391  12.2390  0.00  0.00     0.000 C
ATOM     66  C2  BDP B   5      15.767  24.135  12.8740  0.00  0.00     0.000 C
ATOM     67  C3  BDP B   5      15.969  23.646  14.3030  0.00  0.00     0.000 C
ATOM     68  C4  BDP B   5      14.679  23.803  15.0990  0.00  0.00     0.000 C
ATOM     69  C5  BDP B   5      13.492  23.146  14.4050  0.00  0.00     0.000 C
ATOM     70  O5  BDP B   5      13.414  23.565  13.0310  0.00  0.00     0.000 O
ATOM     71   O  BDP B   5      16.947  23.949  12.0780  0.00  0.00     0.000 O
ATOM     73  HD  BDP B   5      17.632  23.789  11.5730  0.00  0.00     0.000 HD
ATOM     73   O  BDP B   5      17.013  24.388  14.9450  0.00  0.00     0.000 O
ATOM     75  HD  BDP B   5      17.699  24.228  14.4400  0.00  0.00     0.000 HD
BRANCH 69 75
ATOM     75   C  BDP B   5      12.234  23.556  15.1280  0.00  0.00     0.000 C
ATOM     76   O  BDP B   5      12.226  24.636  15.7520  0.00  0.00     0.000 OA
ATOM     77   O  BDP B   5      11.240  22.808  15.0800  0.00  0.00     0.000 OA
ENDBRANCH 69 75
BRANCH 65 78
ATOM     78  O3  NAG B   6      13.723  23.893  11.2270  0.00  0.00     0.000 O
BRANCH 78 81
ATOM     79  C1  NAG B   6      12.561  22.638   7.8490  0.00  0.00     0.000 C
ATOM     80  C2  NAG B   6      13.530  23.212   8.8950  0.00  0.00     0.000 C
ATOM     81  C3  NAG B   6      12.880  23.216  10.2690  0.00  0.00     0.000 C
ATOM     82  C4  NAG B   6      11.502  23.886  10.2200  0.00  0.00     0.000 C
ATOM     83  C5  NAG B   6      10.649  23.209   9.1540  0.00  0.00     0.000 C
ATOM     84  O5  NAG B   6      11.319  23.362   7.9020  0.00  0.00     0.000 O
BRANCH 80 87
ATOM     85   N  NAG B   6      14.764  22.443   8.7650  0.00  0.00     0.000 N
ATOM     87  HD  NAG B   6      15.501  22.277   8.3420  0.00  0.00     0.000 HD
ATOM     87   C  NAG B   6      15.989  22.964   8.9010  0.00  0.00     0.000 C
ATOM     88   C  NAG B   6      17.124  21.999   8.7640  0.00  0.00     0.000 C
ATOM     89   O  NAG B   6      16.189  24.150   9.1370  0.00  0.00     0.000 OA
ENDBRANCH 80 87
ATOM     90   O  NAG B   6       8.286  22.813   9.4890  0.00  0.00     0.000 O
ATOM     92  HD  NAG B   6       9.012  22.536   9.1070  0.00  0.00     0.000 HD
ATOM     92   O  NAG B   6       8.286  22.813   9.4890  0.00  0.00     0.000 O
ATOM     94  HD  NAG B   6       9.012  22.536   9.1070  0.00  0.00     0.000 HD
ENDBRANCH 78 81
ENDBRANCH 65 78
ENDBRANCH 64 68
ENDBRANCH 48 64
ENDBRANCH 47 50
ENDBRANCH 34 47
ENDBRANCH 33 37
ENDBRANCH 17 33
ENDBRANCH 16 19
ENDBRANCH 1 16
TORSDOF 16
ENDMDL
MODEL 22
REMARK VINA RESULT:      -5.6      9.994     12.389
ROOT
ATOM      1  C1  BDP B   1      10.027  11.221  37.2930  0.00  0.00     0.000 C
ATOM      2  C2  BDP B   1      10.748  10.718  38.5300  0.00  0.00     0.000 C
ATOM      3  C3  BDP B   1      11.010   9.228  38.4710  0.00  0.00     0.000 C
ATOM      4  C4  BDP B   1      10.832   8.621  37.0840  0.00  0.00     0.000 C
ATOM      5  C5  BDP B   1       9.545   9.074  36.4010  0.00  0.00     0.000 C
ATOM      6  O5  BDP B   1       9.014  10.273  36.9890  0.00  0.00     0.000 O
ATOM      7   O  BDP B   1      11.987  11.418  38.6900  0.00  0.00     0.000 O
ATOM      9  HD  BDP B   1      12.453  12.148  38.6860  0.00  0.00     0.000 HD
ATOM      9   O  BDP B   1      10.123   8.538  39.3660  0.00  0.00     0.000 O
ATOM     11  HD  BDP B   1      10.589   9.268  39.3610  0.00  0.00     0.000 HD
ATOM     11   O  BDP B   1      11.957   8.935  36.2530  0.00  0.00     0.000 O
ATOM     13  HD  BDP B   1      12.423   9.665  36.2490  0.00  0.00     0.000 HD
ENDROOT
BRANCH 5 13
ATOM     13   C  BDP B   1       8.560   7.967  36.5400  0.00  0.00     0.000 C
ATOM     14   O  BDP B   1       8.943   6.898  37.0600  0.00  0.00     0.000 OA
ATOM     15   O  BDP B   1       7.383   8.149  36.1610  0.00  0.00     0.000 OA
ENDBRANCH 5 13
BRANCH 1 16
ATOM     16  O3  NAG B   2      10.404  12.211  36.3380  0.00  0.00     0.000 O
BRANCH 16 19
ATOM     17  C1  NAG B   2       8.560  14.781  34.5350  0.00  0.00     0.000 C
ATOM     18  C2  NAG B   2       8.934  14.091  35.8470  0.00  0.00     0.000 C
ATOM     19  C3  NAG B   2      10.342  13.520  35.7690  0.00  0.00     0.000 C
ATOM     20  C4  NAG B   2      10.860  13.482  34.3290  0.00  0.00     0.000 C
ATOM     21  C5  NAG B   2       9.799  13.176  33.2630  0.00  0.00     0.000 C
ATOM     22  O5  NAG B   2       8.514  13.735  33.5620  0.00  0.00     0.000 O
ATOM     23   O  NAG B   2      11.491  14.733  34.0400  0.00  0.00     0.000 O
ATOM     25  HD  NAG B   2      10.895  15.209  34.4500  0.00  0.00     0.000 HD
ATOM     25   C  NAG B   2       9.642  11.660  33.0740  0.00  0.00     0.000 C
ATOM     26   O  NAG B   2      10.607  11.138  32.1500  0.00  0.00     0.000 O
ATOM     28  HD  NAG B   2      10.011  11.613  32.5600  0.00  0.00     0.000 HD
BRANCH 18 30
ATOM     28   N  NAG B   2       9.155  15.533  35.9560  0.00  0.00     0.000 N
ATOM     30  HD  NAG B   2       9.746  16.147  35.8040  0.00  0.00     0.000 HD
ATOM     30   C  NAG B   2       9.285  16.204  37.1090  0.00  0.00     0.000 C
ATOM     31   C  NAG B   2       9.494  17.685  36.9580  0.00  0.00     0.000 C
ATOM     32   O  NAG B   2       9.247  15.676  38.1960  0.00  0.00     0.000 OA
ENDBRANCH 18 30
BRANCH 17 33
ATOM     33  O4  BDP B   3       7.594  15.280  33.5850  0.00  0.00     0.000 O
BRANCH 33 37
ATOM     34  C1  BDP B   3       7.218  16.559  29.5270  0.00  0.00     0.000 C
ATOM     35  C2  BDP B   3       8.361  17.153  30.3420  0.00  0.00     0.000 C
ATOM     36  C3  BDP B   3       8.689  16.360  31.6020  0.00  0.00     0.000 C
ATOM     37  C4  BDP B   3       7.388  16.009  32.3390  0.00  0.00     0.000 C
ATOM     38  C5  BDP B   3       6.491  15.244  31.3470  0.00  0.00     0.000 C
ATOM     39  O5  BDP B   3       6.108  16.199  30.3580  0.00  0.00     0.000 O
ATOM     40   O  BDP B   3       9.478  17.246  29.4550  0.00  0.00     0.000 O
ATOM     42  HD  BDP B   3       9.039  17.957  29.2270  0.00  0.00     0.000 HD
ATOM     42   O  BDP B   3       9.542  17.184  32.3940  0.00  0.00     0.000 O
ATOM     44  HD  BDP B   3       9.103  17.895  32.1660  0.00  0.00     0.000 HD
BRANCH 38 44
ATOM     44   C  BDP B   3       5.271  14.631  31.9600  0.00  0.00     0.000 C
ATOM     45   O  BDP B   3       5.243  13.387  32.0900  0.00  0.00     0.000 OA
ATOM     46   O  BDP B   3       4.325  15.365  32.3200  0.00  0.00     0.000 OA
ENDBRANCH 38 44
BRANCH 34 47
ATOM     47  O3  NAG B   4       6.387  17.569  28.9580  0.00  0.00     0.000 O
BRANCH 47 50
ATOM     48  C1  NAG B   4       5.499  17.171  25.3240  0.00  0.00     0.000 C
ATOM     49  C2  NAG B   4       6.396  17.396  26.5290  0.00  0.00     0.000 C
ATOM     50  C3  NAG B   4       5.567  17.292  27.8040  0.00  0.00     0.000 C
ATOM     51  C4  NAG B   4       4.384  18.246  27.7820  0.00  0.00     0.000 C
ATOM     52  C5  NAG B   4       3.559  18.021  26.5140  0.00  0.00     0.000 C
ATOM     53  O5  NAG B   4       4.396  18.097  25.3530  0.00  0.00     0.000 O
ATOM     54   O  NAG B   4       3.586  18.027  28.9480  0.00  0.00     0.000 O
ATOM     56  HD  NAG B   4       3.386  18.765  28.5410  0.00  0.00     0.000 HD
ATOM     56   C  NAG B   4       2.436  19.044  26.3950  0.00  0.00     0.000 C
ATOM     57   O  NAG B   4       3.004  20.360  26.3480  0.00  0.00     0.000 O
ATOM     59  HD  NAG B   4       2.805  21.098  25.9410  0.00  0.00     0.000 HD
BRANCH 49 61
ATOM     59   N  NAG B   4       7.065  18.643  26.1570  0.00  0.00     0.000 N
ATOM     61  HD  NAG B   4       7.099  18.050  26.7880  0.00  0.00     0.000 HD
ATOM     61   O  NAG B   4       9.167  17.983  26.6580  0.00  0.00     0.000 OA
ATOM     62   C  NAG B   4       8.394  18.803  26.1840  0.00  0.00     0.000 C
ATOM     63   C  NAG B   4       8.906  20.066  25.5680  0.00  0.00     0.000 C
ENDBRANCH 49 61
BRANCH 48 64
ATOM     64  O4  BDP B   5       5.737  16.640  24.0240  0.00  0.00     0.000 O
BRANCH 64 68
ATOM     65  C1  BDP B   5       8.089  18.476  21.1140  0.00  0.00     0.000 C
ATOM     66  C2  BDP B   5       6.640  18.209  20.7290  0.00  0.00     0.000 C
ATOM     67  C3  BDP B   5       5.816  17.951  21.9840  0.00  0.00     0.000 C
ATOM     68  C4  BDP B   5       6.425  16.805  22.7850  0.00  0.00     0.000 C
ATOM     69  C5  BDP B   5       7.903  17.030  23.0760  0.00  0.00     0.000 C
ATOM     70  O5  BDP B   5       8.610  17.373  21.8710  0.00  0.00     0.000 O
ATOM     71   O  BDP B   5       6.128  19.321  19.9780  0.00  0.00     0.000 O
ATOM     73  HD  BDP B   5       5.864  20.025  19.5480  0.00  0.00     0.000 HD
ATOM     73   O  BDP B   5       4.465  17.621  21.6400  0.00  0.00     0.000 O
ATOM     75  HD  BDP B   5       4.201  18.325  21.2100  0.00  0.00     0.000 HD
BRANCH 69 75
ATOM     75   C  BDP B   5       8.472  15.756  23.6480  0.00  0.00     0.000 C
ATOM     76   O  BDP B   5       8.137  14.668  23.1390  0.00  0.00     0.000 OA
ATOM     77   O  BDP B   5       9.262  15.826  24.6080  0.00  0.00     0.000 OA
ENDBRANCH 69 75
BRANCH 65 78
ATOM     78  O3  NAG B   6       9.244  18.185  20.3230  0.00  0.00     0.000 O
BRANCH 78 81
ATOM     79  C1  NAG B   6      12.323  20.168  19.3620  0.00  0.00     0.000 C
ATOM     80  C2  NAG B   6      10.838  19.773  19.3870  0.00  0.00     0.000 C
ATOM     81  C3  NAG B   6      10.604  18.666  20.4020  0.00  0.00     0.000 C
ATOM     82  C4  NAG B   6      11.583  17.508  20.1810  0.00  0.00     0.000 C
ATOM     83  C5  NAG B   6      13.010  18.042  20.1930  0.00  0.00     0.000 C
ATOM     84  O5  NAG B   6      13.124  18.995  19.1360  0.00  0.00     0.000 O
BRANCH 80 87
ATOM     85   N  NAG B   6      10.092  21.010  19.6060  0.00  0.00     0.000 N
ATOM     87  HD  NAG B   6       9.771  21.754  19.3010  0.00  0.00     0.000 HD
ATOM     87   C  NAG B   6       8.916  21.287  19.0280  0.00  0.00     0.000 C
ATOM     88   C  NAG B   6       8.298  22.594  19.4120  0.00  0.00     0.000 C
ATOM     89   O  NAG B   6       8.361  20.527  18.2440  0.00  0.00     0.000 OA
ENDBRANCH 80 87
ATOM     90   O  NAG B   6      14.815  16.804  21.2230  0.00  0.00     0.000 O
ATOM     92  HD  NAG B   6      14.505  17.589  21.0240  0.00  0.00     0.000 HD
ATOM     92   O  NAG B   6      14.815  16.804  21.2230  0.00  0.00     0.000 O
ATOM     94  HD  NAG B   6      14.505  17.589  21.0240  0.00  0.00     0.000 HD
ENDBRANCH 78 81
ENDBRANCH 65 78
ENDBRANCH 64 68
ENDBRANCH 48 64
ENDBRANCH 47 50
ENDBRANCH 34 47
ENDBRANCH 33 37
ENDBRANCH 17 33
ENDBRANCH 16 19
ENDBRANCH 1 16
TORSDOF 16
ENDMDL
MODEL 23
REMARK VINA RESULT:      -5.5     10.218     13.492
ROOT
ATOM      1  C1  BDP B   1      10.880  21.193  36.0400  0.00  0.00     0.000 C
ATOM      2  C2  BDP B   1      10.698  22.599  36.5830  0.00  0.00     0.000 C
ATOM      3  C3  BDP B   1      11.310  23.645  35.6750  0.00  0.00     0.000 C
ATOM      4  C4  BDP B   1      11.651  23.133  34.2800  0.00  0.00     0.000 C
ATOM      5  C5  BDP B   1      12.384  21.795  34.3040  0.00  0.00     0.000 C
ATOM      6  O5  BDP B   1      12.211  21.105  35.5530  0.00  0.00     0.000 O
ATOM      7   O  BDP B   1       9.305  22.875  36.7620  0.00  0.00     0.000 O
ATOM      9  HD  BDP B   1       8.513  22.645  37.0260  0.00  0.00     0.000 HD
ATOM      9   O  BDP B   1      12.519  24.154  36.2600  0.00  0.00     0.000 O
ATOM     11  HD  BDP B   1      11.727  23.924  36.5230  0.00  0.00     0.000 HD
ATOM     11   O  BDP B   1      10.464  23.019  33.4850  0.00  0.00     0.000 O
ATOM     13  HD  BDP B   1       9.672  22.789  33.7490  0.00  0.00     0.000 HD
ENDROOT
BRANCH 5 13
ATOM     13   C  BDP B   1      13.829  22.080  34.0840  0.00  0.00     0.000 C
ATOM     14   O  BDP B   1      14.632  21.126  34.1330  0.00  0.00     0.000 OA
ATOM     15   O  BDP B   1      14.186  23.251  33.8330  0.00  0.00     0.000 OA
ENDBRANCH 5 13
BRANCH 1 16
ATOM     16  O3  NAG B   2       9.916  20.199  35.6980  0.00  0.00     0.000 O
BRANCH 16 19
ATOM     17  C1  NAG B   2       8.925  19.053  32.3870  0.00  0.00     0.000 C
ATOM     18  C2  NAG B   2       9.999  19.240  33.4600  0.00  0.00     0.000 C
ATOM     19  C3  NAG B   2       9.383  19.181  34.8500  0.00  0.00     0.000 C
ATOM     20  C4  NAG B   2       7.857  19.297  34.7990  0.00  0.00     0.000 C
ATOM     21  C5  NAG B   2       7.310  20.227  33.7070  0.00  0.00     0.000 C
ATOM     22  O5  NAG B   2       8.080  20.200  32.4990  0.00  0.00     0.000 O
ATOM     23   O  NAG B   2       7.306  17.986  34.6410  0.00  0.00     0.000 O
ATOM     25  HD  NAG B   2       7.906  17.726  34.0730  0.00  0.00     0.000 HD
ATOM     25   C  NAG B   2       7.241  21.674  34.2130  0.00  0.00     0.000 C
ATOM     26   O  NAG B   2       6.024  21.930  34.9290  0.00  0.00     0.000 O
ATOM     28  HD  NAG B   2       6.624  21.670  34.3610  0.00  0.00     0.000 HD
BRANCH 18 30
ATOM     28   N  NAG B   2      10.023  17.880  32.9250  0.00  0.00     0.000 N
ATOM     30  HD  NAG B   2       9.604  17.123  32.9640  0.00  0.00     0.000 HD
ATOM     30   C  NAG B   2      10.959  16.961  33.2040  0.00  0.00     0.000 C
ATOM     31   C  NAG B   2      10.768  15.637  32.5210  0.00  0.00     0.000 C
ATOM     32   O  NAG B   2      11.888  17.162  33.9510  0.00  0.00     0.000 OA
ENDBRANCH 18 30
BRANCH 17 33
ATOM     33  O4  BDP B   3       8.425  19.205  31.0410  0.00  0.00     0.000 O
BRANCH 33 37
ATOM     34  C1  BDP B   3      10.114  18.982  27.1240  0.00  0.00     0.000 C
ATOM     35  C2  BDP B   3      10.306  20.284  27.8930  0.00  0.00     0.000 C
ATOM     36  C3  BDP B   3      10.064  20.149  29.3920  0.00  0.00     0.000 C
ATOM     37  C4  BDP B   3       8.770  19.358  29.6330  0.00  0.00     0.000 C
ATOM     38  C5  BDP B   3       8.919  18.006  28.9100  0.00  0.00     0.000 C
ATOM     39  O5  BDP B   3       8.910  18.311  27.5150  0.00  0.00     0.000 O
ATOM     40   O  BDP B   3      11.631  20.730  27.5970  0.00  0.00     0.000 O
ATOM     42  HD  BDP B   3      11.213  21.006  26.8900  0.00  0.00     0.000 HD
ATOM     42   O  BDP B   3       9.981  21.474  29.9150  0.00  0.00     0.000 O
ATOM     44  HD  BDP B   3       9.564  21.750  29.2080  0.00  0.00     0.000 HD
BRANCH 38 44
ATOM     44   C  BDP B   3       7.840  17.016  29.2190  0.00  0.00     0.000 C
ATOM     45   O  BDP B   3       6.706  17.214  28.7290  0.00  0.00     0.000 OA
ATOM     46   O  BDP B   3       8.093  16.032  29.9480  0.00  0.00     0.000 OA
ENDBRANCH 38 44
BRANCH 34 47
ATOM     47  O3  NAG B   4       9.507  19.199  25.8510  0.00  0.00     0.000 O
BRANCH 47 50
ATOM     48  C1  NAG B   4      10.852  17.471  22.7930  0.00  0.00     0.000 C
ATOM     49  C2  NAG B   4      10.813  18.481  23.9260  0.00  0.00     0.000 C
ATOM     50  C3  NAG B   4       9.600  18.208  24.8070  0.00  0.00     0.000 C
ATOM     51  C4  NAG B   4       8.312  18.201  23.9990  0.00  0.00     0.000 C
ATOM     52  C5  NAG B   4       8.436  17.219  22.8340  0.00  0.00     0.000 C
ATOM     53  O5  NAG B   4       9.610  17.504  22.0630  0.00  0.00     0.000 O
ATOM     54   O  NAG B   4       7.227  17.834  24.8550  0.00  0.00     0.000 O
ATOM     56  HD  NAG B   4       6.960  18.170  24.1030  0.00  0.00     0.000 HD
ATOM     56   C  NAG B   4       7.211  17.277  21.9280  0.00  0.00     0.000 C
ATOM     57   O  NAG B   4       7.081  18.604  21.4020  0.00  0.00     0.000 O
ATOM     59  HD  NAG B   4       6.813  18.939  20.6490  0.00  0.00     0.000 HD
BRANCH 49 61
ATOM     59   N  NAG B   4      12.213  18.417  24.3500  0.00  0.00     0.000 N
ATOM     61  HD  NAG B   4      11.718  18.879  23.8100  0.00  0.00     0.000 HD
ATOM     61   O  NAG B   4      12.553  20.645  24.5020  0.00  0.00     0.000 OA
ATOM     62   C  NAG B   4      12.936  19.497  24.6710  0.00  0.00     0.000 C
ATOM     63   C  NAG B   4      14.272  19.221  25.2840  0.00  0.00     0.000 C
ENDBRANCH 49 61
BRANCH 48 64
ATOM     64  O4  BDP B   5      11.917  16.899  22.0390  0.00  0.00     0.000 O
BRANCH 64 68
ATOM     65  C1  BDP B   5      14.474  18.733  19.3060  0.00  0.00     0.000 C
ATOM     66  C2  BDP B   5      13.142  18.247  18.7510  0.00  0.00     0.000 C
ATOM     67  C3  BDP B   5      12.166  18.007  19.8960  0.00  0.00     0.000 C
ATOM     68  C4  BDP B   5      12.767  17.031  20.9010  0.00  0.00     0.000 C
ATOM     69  C5  BDP B   5      14.147  17.470  21.3740  0.00  0.00     0.000 C
ATOM     70  O5  BDP B   5      14.991  17.783  20.2520  0.00  0.00     0.000 O
ATOM     71   O  BDP B   5      12.632  19.206  17.8120  0.00  0.00     0.000 O
ATOM     73  HD  BDP B   5      12.361  19.826  17.2710  0.00  0.00     0.000 HD
ATOM     73   O  BDP B   5      10.931  17.475  19.4010  0.00  0.00     0.000 O
ATOM     75  HD  BDP B   5      10.661  18.094  18.8600  0.00  0.00     0.000 HD
BRANCH 69 75
ATOM     75   C  BDP B   5      14.759  16.340  22.1630  0.00  0.00     0.000 C
ATOM     76   O  BDP B   5      15.331  16.602  23.2400  0.00  0.00     0.000 OA
ATOM     77   O  BDP B   5      14.673  15.179  21.7210  0.00  0.00     0.000 OA
ENDBRANCH 69 75
BRANCH 65 78
ATOM     78  O3  NAG B   6      15.764  18.518  18.7280  0.00  0.00     0.000 O
BRANCH 78 81
ATOM     79  C1  NAG B   6      19.011  20.453  18.9360  0.00  0.00     0.000 C
ATOM     80  C2  NAG B   6      17.544  20.174  18.5730  0.00  0.00     0.000 C
ATOM     81  C3  NAG B   6      17.089  18.862  19.1890  0.00  0.00     0.000 C
ATOM     82  C4  NAG B   6      18.069  17.732  18.8550  0.00  0.00     0.000 C
ATOM     83  C5  NAG B   6      19.475  18.139  19.2800  0.00  0.00     0.000 C
ATOM     84  O5  NAG B   6      19.819  19.323  18.5590  0.00  0.00     0.000 O
BRANCH 80 87
ATOM     85   N  NAG B   6      16.773  21.343  18.9870  0.00  0.00     0.000 N
ATOM     87  HD  NAG B   6      16.535  22.166  18.8600  0.00  0.00     0.000 HD
ATOM     87   C  NAG B   6      15.765  21.865  18.2780  0.00  0.00     0.000 C
ATOM     88   C  NAG B   6      15.080  23.043  18.8940  0.00  0.00     0.000 C
ATOM     89   O  NAG B   6      15.403  21.413  17.1980  0.00  0.00     0.000 OA
ENDBRANCH 80 87
ATOM     90   O  NAG B   6      21.009  16.548  20.2610  0.00  0.00     0.000 O
ATOM     92  HD  NAG B   6      20.762  17.378  20.2260  0.00  0.00     0.000 HD
ATOM     92   O  NAG B   6      21.009  16.548  20.2610  0.00  0.00     0.000 O
ATOM     94  HD  NAG B   6      20.762  17.378  20.2260  0.00  0.00     0.000 HD
ENDBRANCH 78 81
ENDBRANCH 65 78
ENDBRANCH 64 68
ENDBRANCH 48 64
ENDBRANCH 47 50
ENDBRANCH 34 47
ENDBRANCH 33 37
ENDBRANCH 17 33
ENDBRANCH 16 19
ENDBRANCH 1 16
TORSDOF 16
ENDMDL
MODEL 24
REMARK VINA RESULT:      -5.3     15.271     27.435
ROOT
ATOM      1  C1  BDP B   1      14.980   6.223  44.8000  0.00  0.00     0.000 C
ATOM      2  C2  BDP B   1      14.962   5.175  43.7020  0.00  0.00     0.000 C
ATOM      3  C3  BDP B   1      16.356   4.717  43.3290  0.00  0.00     0.000 C
ATOM      4  C4  BDP B   1      17.430   5.112  44.3360  0.00  0.00     0.000 C
ATOM      5  C5  BDP B   1      17.328   6.572  44.7660  0.00  0.00     0.000 C
ATOM      6  O5  BDP B   1      16.031   7.128  44.4930  0.00  0.00     0.000 O
ATOM      7   O  BDP B   1      14.181   4.049  44.1160  0.00  0.00     0.000 O
ATOM      9  HD  BDP B   1      13.476   3.709  44.4860  0.00  0.00     0.000 HD
ATOM      9   O  BDP B   1      16.729   5.268  42.0560  0.00  0.00     0.000 O
ATOM     11  HD  BDP B   1      16.024   4.927  42.4260  0.00  0.00     0.000 HD
ATOM     11   O  BDP B   1      17.370   4.263  45.4890  0.00  0.00     0.000 O
ATOM     13  HD  BDP B   1      16.665   3.922  45.8590  0.00  0.00     0.000 HD
ENDROOT
BRANCH 5 13
ATOM     13   C  BDP B   1      18.367   7.327  44.0130  0.00  0.00     0.000 C
ATOM     14   O  BDP B   1      18.055   7.814  42.9060  0.00  0.00     0.000 OA
ATOM     15   O  BDP B   1      19.500   7.471  44.5180  0.00  0.00     0.000 OA
ENDBRANCH 5 13
BRANCH 1 16
ATOM     16  O3  NAG B   2      14.379   6.221  46.0930  0.00  0.00     0.000 O
BRANCH 16 19
ATOM     17  C1  NAG B   2      10.970   6.299  47.3700  0.00  0.00     0.000 C
ATOM     18  C2  NAG B   2      12.017   5.717  46.4200  0.00  0.00     0.000 C
ATOM     19  C3  NAG B   2      13.403   5.788  47.0430  0.00  0.00     0.000 C
ATOM     20  C4  NAG B   2      13.429   6.710  48.2660  0.00  0.00     0.000 C
ATOM     21  C5  NAG B   2      12.515   7.940  48.1740  0.00  0.00     0.000 C
ATOM     22  O5  NAG B   2      11.290   7.688  47.4760  0.00  0.00     0.000 O
ATOM     23   O  NAG B   2      13.089   5.939  49.4230  0.00  0.00     0.000 O
ATOM     25  HD  NAG B   2      12.466   5.487  49.0260  0.00  0.00     0.000 HD
ATOM     25   C  NAG B   2      13.241   9.103  47.4850  0.00  0.00     0.000 C
ATOM     26   O  NAG B   2      14.033   9.859  48.4120  0.00  0.00     0.000 O
ATOM     28  HD  NAG B   2      13.410   9.407  48.0150  0.00  0.00     0.000 HD
BRANCH 18 30
ATOM     28   N  NAG B   2      11.223   4.660  47.0440  0.00  0.00     0.000 N
ATOM     30  HD  NAG B   2      11.080   4.271  47.8040  0.00  0.00     0.000 HD
ATOM     30   C  NAG B   2      11.376   3.348  46.8140  0.00  0.00     0.000 C
ATOM     31   C  NAG B   2      10.429   2.460  47.5710  0.00  0.00     0.000 C
ATOM     32   O  NAG B   2      12.210   2.895  46.0650  0.00  0.00     0.000 OA
ENDBRANCH 18 30
BRANCH 17 33
ATOM     33  O4  BDP B   3       9.683   6.896  47.6410  0.00  0.00     0.000 O
BRANCH 33 37
ATOM     34  C1  BDP B   3       6.735   6.469  50.7010  0.00  0.00     0.000 C
ATOM     35  C2  BDP B   3       6.705   5.460  49.5600  0.00  0.00     0.000 C
ATOM     36  C3  BDP B   3       8.001   5.406  48.7580  0.00  0.00     0.000 C
ATOM     37  C4  BDP B   3       8.467   6.836  48.4410  0.00  0.00     0.000 C
ATOM     38  C5  BDP B   3       8.603   7.580  49.7830  0.00  0.00     0.000 C
ATOM     39  O5  BDP B   3       7.273   7.728  50.2800  0.00  0.00     0.000 O
ATOM     40   O  BDP B   3       6.382   4.199  50.1500  0.00  0.00     0.000 O
ATOM     42  HD  BDP B   3       5.592   4.550  50.0920  0.00  0.00     0.000 HD
ATOM     42   O  BDP B   3       7.719   4.665  47.5730  0.00  0.00     0.000 O
ATOM     44  HD  BDP B   3       6.930   5.016  47.5150  0.00  0.00     0.000 HD
BRANCH 38 44
ATOM     44   C  BDP B   3       9.258   8.922  49.6830  0.00  0.00     0.000 C
ATOM     45   O  BDP B   3       8.819   9.726  48.8300  0.00  0.00     0.000 OA
ATOM     46   O  BDP B   3      10.213   9.202  50.4390  0.00  0.00     0.000 OA
ENDBRANCH 38 44
BRANCH 34 47
ATOM     47  O3  NAG B   4       5.480   7.128  50.8640  0.00  0.00     0.000 O
BRANCH 47 50
ATOM     48  C1  NAG B   4       4.945   8.440  54.3480  0.00  0.00     0.000 C
ATOM     49  C2  NAG B   4       5.224   7.409  53.2680  0.00  0.00     0.000 C
ATOM     50  C3  NAG B   4       5.282   8.100  51.9110  0.00  0.00     0.000 C
ATOM     51  C4  NAG B   4       4.017   8.895  51.6330  0.00  0.00     0.000 C
ATOM     52  C5  NAG B   4       3.750   9.865  52.7840  0.00  0.00     0.000 C
ATOM     53  O5  NAG B   4       3.739   9.165  54.0350  0.00  0.00     0.000 O
ATOM     54   O  NAG B   4       4.174   9.605  50.4010  0.00  0.00     0.000 O
ATOM     56  HD  NAG B   4       3.352   9.586  50.6730  0.00  0.00     0.000 HD
ATOM     56   C  NAG B   4       2.422  10.591  52.6000  0.00  0.00     0.000 C
ATOM     57   O  NAG B   4       1.363   9.625  52.5550  0.00  0.00     0.000 O
ATOM     59  HD  NAG B   4       0.541   9.606  52.8270  0.00  0.00     0.000 HD
BRANCH 49 61
ATOM     59   N  NAG B   4       4.277   6.428  53.7990  0.00  0.00     0.000 N
ATOM     61  HD  NAG B   4       4.825   6.508  53.1330  0.00  0.00     0.000 HD
ATOM     61   O  NAG B   4       5.565   4.602  53.4700  0.00  0.00     0.000 OA
ATOM     62   C  NAG B   4       4.556   5.125  53.9210  0.00  0.00     0.000 C
ATOM     63   C  NAG B   4       3.552   4.316  54.6800  0.00  0.00     0.000 C
ENDBRANCH 49 61
BRANCH 48 64
ATOM     64  O4  BDP B   5       5.289   8.517  55.7280  0.00  0.00     0.000 O
BRANCH 64 68
ATOM     65  C1  BDP B   5       4.136   5.733  58.6080  0.00  0.00     0.000 C
ATOM     66  C2  BDP B   5       3.540   7.127  58.7510  0.00  0.00     0.000 C
ATOM     67  C3  BDP B   5       3.689   7.885  57.4390  0.00  0.00     0.000 C
ATOM     68  C4  BDP B   5       5.154   7.922  57.0180  0.00  0.00     0.000 C
ATOM     69  C5  BDP B   5       5.775   6.531  56.9780  0.00  0.00     0.000 C
ATOM     70  O5  BDP B   5       5.512   5.824  58.2030  0.00  0.00     0.000 O
ATOM     71   O  BDP B   5       2.164   7.023  59.1500  0.00  0.00     0.000 O
ATOM     73  HD  BDP B   5       1.335   6.904  59.3700  0.00  0.00     0.000 HD
ATOM     73   O  BDP B   5       3.204   9.226  57.5750  0.00  0.00     0.000 O
ATOM     75  HD  BDP B   5       2.375   9.107  57.7950  0.00  0.00     0.000 HD
BRANCH 69 75
ATOM     75   C  BDP B   5       7.264   6.682  56.7950  0.00  0.00     0.000 C
ATOM     76   O  BDP B   5       7.832   6.006  55.9140  0.00  0.00     0.000 OA
ATOM     77   O  BDP B   5       7.883   7.480  57.5230  0.00  0.00     0.000 OA
ENDBRANCH 69 75
BRANCH 65 78
ATOM     78  O3  NAG B   6       4.731   4.953  59.6490  0.00  0.00     0.000 O
BRANCH 78 81
ATOM     79  C1  NAG B   6       4.260   1.339  60.6720  0.00  0.00     0.000 C
ATOM     80  C2  NAG B   6       3.880   2.808  60.4310  0.00  0.00     0.000 C
ATOM     81  C3  NAG B   6       5.019   3.541  59.7410  0.00  0.00     0.000 C
ATOM     82  C4  NAG B   6       6.339   3.323  60.4870  0.00  0.00     0.000 C
ATOM     83  C5  NAG B   6       6.593   1.828  60.6420  0.00  0.00     0.000 C
ATOM     84  O5  NAG B   6       5.507   1.280  61.3890  0.00  0.00     0.000 O
BRANCH 80 87
ATOM     85   N  NAG B   6       2.619   2.806  59.6940  0.00  0.00     0.000 N
ATOM     87  HD  NAG B   6       1.760   2.694  59.6810  0.00  0.00     0.000 HD
ATOM     87   C  NAG B   6       1.619   3.667  59.9180  0.00  0.00     0.000 C
ATOM     88   C  NAG B   6       0.424   3.520  59.0310  0.00  0.00     0.000 C
ATOM     89   O  NAG B   6       1.667   4.537  60.7800  0.00  0.00     0.000 OA
ENDBRANCH 80 87
ATOM     90   O  NAG B   6       8.813   0.894  60.4240  0.00  0.00     0.000 O
ATOM     92  HD  NAG B   6       7.965   0.756  60.3220  0.00  0.00     0.000 HD
ATOM     92   O  NAG B   6       8.813   0.894  60.4240  0.00  0.00     0.000 O
ATOM     94  HD  NAG B   6       7.965   0.756  60.3220  0.00  0.00     0.000 HD
ENDBRANCH 78 81
ENDBRANCH 65 78
ENDBRANCH 64 68
ENDBRANCH 48 64
ENDBRANCH 47 50
ENDBRANCH 34 47
ENDBRANCH 33 37
ENDBRANCH 17 33
ENDBRANCH 16 19
ENDBRANCH 1 16
TORSDOF 16
ENDMDL
MODEL 25
REMARK VINA RESULT:      -5.3      2.959      4.831
ROOT
ATOM      1  C1  BDP B   1      10.710   9.746  39.1660  0.00  0.00     0.000 C
ATOM      2  C2  BDP B   1      10.974  10.266  40.5680  0.00  0.00     0.000 C
ATOM      3  C3  BDP B   1      10.814   9.185  41.6160  0.00  0.00     0.000 C
ATOM      4  C4  BDP B   1      10.780   7.770  41.0500  0.00  0.00     0.000 C
ATOM      5  C5  BDP B   1       9.853   7.639  39.8450  0.00  0.00     0.000 C
ATOM      6  O5  BDP B   1       9.564   8.912  39.2420  0.00  0.00     0.000 O
ATOM      7   O  BDP B   1      12.293  10.817  40.6430  0.00  0.00     0.000 O
ATOM      9  HD  BDP B   1      12.935  11.299  40.3170  0.00  0.00     0.000 HD
ATOM      9   O  BDP B   1       9.597   9.391  42.3500  0.00  0.00     0.000 O
ATOM     11  HD  BDP B   1      10.238   9.873  42.0240  0.00  0.00     0.000 HD
ATOM     11   O  BDP B   1      12.100   7.344  40.6920  0.00  0.00     0.000 O
ATOM     13  HD  BDP B   1      12.742   7.826  40.3660  0.00  0.00     0.000 HD
ENDROOT
BRANCH 5 13
ATOM     13   C  BDP B   1       8.591   7.014  40.3280  0.00  0.00     0.000 C
ATOM     14   O  BDP B   1       7.657   6.865  39.5120  0.00  0.00     0.000 OA
ATOM     15   O  BDP B   1       8.514   6.637  41.5170  0.00  0.00     0.000 OA
ENDBRANCH 5 13
BRANCH 1 16
ATOM     16  O3  NAG B   2      11.549   9.724  38.0130  0.00  0.00     0.000 O
BRANCH 16 19
ATOM     17  C1  NAG B   2      13.884  10.689  35.3910  0.00  0.00     0.000 C
ATOM     18  C2  NAG B   2      13.259   9.614  36.2810  0.00  0.00     0.000 C
ATOM     19  C3  NAG B   2      11.825   9.980  36.6340  0.00  0.00     0.000 C
ATOM     20  C4  NAG B   2      11.515  11.443  36.3080  0.00  0.00     0.000 C
ATOM     21  C5  NAG B   2      12.680  12.420  36.5250  0.00  0.00     0.000 C
ATOM     22  O5  NAG B   2      13.959  11.857  36.2120  0.00  0.00     0.000 O
ATOM     23   O  NAG B   2      11.063  11.521  34.9520  0.00  0.00     0.000 O
ATOM     25  HD  NAG B   2      11.641  10.950  34.6530  0.00  0.00     0.000 HD
ATOM     25   C  NAG B   2      12.705  12.918  37.9770  0.00  0.00     0.000 C
ATOM     26   O  NAG B   2      11.832  14.040  38.1680  0.00  0.00     0.000 O
ATOM     28  HD  NAG B   2      12.410  13.469  37.8690  0.00  0.00     0.000 HD
BRANCH 18 30
ATOM     28   N  NAG B   2      13.650   8.456  35.4790  0.00  0.00     0.000 N
ATOM     30  HD  NAG B   2      14.239   8.192  34.9020  0.00  0.00     0.000 HD
ATOM     30   C  NAG B   2      12.951   7.967  34.4440  0.00  0.00     0.000 C
ATOM     31   C  NAG B   2      13.558   6.760  33.7860  0.00  0.00     0.000 C
ATOM     32   O  NAG B   2      11.915   8.451  34.0520  0.00  0.00     0.000 OA
ENDBRANCH 18 30
BRANCH 17 33
ATOM     33  O4  BDP B   3      15.021  11.387  34.8380  0.00  0.00     0.000 O
BRANCH 33 37
ATOM     34  C1  BDP B   3      17.313  11.023  31.2530  0.00  0.00     0.000 C
ATOM     35  C2  BDP B   3      17.722  10.150  32.4320  0.00  0.00     0.000 C
ATOM     36  C3  BDP B   3      16.639  10.015  33.4970  0.00  0.00     0.000 C
ATOM     37  C4  BDP B   3      16.044  11.399  33.8000  0.00  0.00     0.000 C
ATOM     38  C5  BDP B   3      15.530  11.977  32.4680  0.00  0.00     0.000 C
ATOM     39  O5  BDP B   3      16.695  12.241  31.6860  0.00  0.00     0.000 O
ATOM     40   O  BDP B   3      18.099   8.886  31.8820  0.00  0.00     0.000 O
ATOM     42  HD  BDP B   3      18.824   9.338  31.7410  0.00  0.00     0.000 HD
ATOM     42   O  BDP B   3      17.262   9.442  34.6450  0.00  0.00     0.000 O
ATOM     44  HD  BDP B   3      17.987   9.895  34.5050  0.00  0.00     0.000 HD
BRANCH 38 44
ATOM     44   C  BDP B   3      14.720  13.229  32.6080  0.00  0.00     0.000 C
ATOM     45   O  BDP B   3      15.326  14.323  32.5940  0.00  0.00     0.000 OA
ATOM     46   O  BDP B   3      13.478  13.150  32.7350  0.00  0.00     0.000 OA
ENDBRANCH 38 44
BRANCH 34 47
ATOM     47  O3  NAG B   4      18.398  11.816  30.7740  0.00  0.00     0.000 O
BRANCH 47 50
ATOM     48  C1  NAG B   4      19.700  11.231  27.2940  0.00  0.00     0.000 C
ATOM     49  C2  NAG B   4      19.454  10.938  28.7640  0.00  0.00     0.000 C
ATOM     50  C3  NAG B   4      18.588  12.040  29.3620  0.00  0.00     0.000 C
ATOM     51  C4  NAG B   4      19.201  13.414  29.1440  0.00  0.00     0.000 C
ATOM     52  C5  NAG B   4      19.490  13.624  27.6570  0.00  0.00     0.000 C
ATOM     53  O5  NAG B   4      20.278  12.542  27.1450  0.00  0.00     0.000 O
ATOM     54   O  NAG B   4      18.295  14.410  29.6270  0.00  0.00     0.000 O
ATOM     56  HD  NAG B   4      19.089  14.724  29.4800  0.00  0.00     0.000 HD
ATOM     56   C  NAG B   4      20.220  14.940  27.4150  0.00  0.00     0.000 C
ATOM     57   O  NAG B   4      21.463  14.924  28.1290  0.00  0.00     0.000 O
ATOM     59  HD  NAG B   4      22.256  15.238  27.9820  0.00  0.00     0.000 HD
BRANCH 49 61
ATOM     59   N  NAG B   4      20.839  10.524  28.9930  0.00  0.00     0.000 N
ATOM     61  HD  NAG B   4      20.110  10.631  29.4470  0.00  0.00     0.000 HD
ATOM     61   O  NAG B   4      20.382   8.801  30.3800  0.00  0.00     0.000 OA
ATOM     62   C  NAG B   4      21.178   9.451  29.7180  0.00  0.00     0.000 C
ATOM     63   C  NAG B   4      22.621   9.062  29.6630  0.00  0.00     0.000 C
ENDBRANCH 49 61
BRANCH 48 64
ATOM     64  O4  BDP B   5      19.935  10.395  26.1650  0.00  0.00     0.000 O
BRANCH 64 68
ATOM     65  C1  BDP B   5      21.338   7.684  23.3270  0.00  0.00     0.000 C
ATOM     66  C2  BDP B   5      21.135   7.133  24.7320  0.00  0.00     0.000 C
ATOM     67  C3  BDP B   5      20.239   8.074  25.5270  0.00  0.00     0.000 C
ATOM     68  C4  BDP B   5      20.830   9.480  25.5340  0.00  0.00     0.000 C
ATOM     69  C5  BDP B   5      21.129   9.984  24.1280  0.00  0.00     0.000 C
ATOM     70  O5  BDP B   5      21.887   9.009  23.3910  0.00  0.00     0.000 O
ATOM     71   O  BDP B   5      20.580   5.811  24.6560  0.00  0.00     0.000 O
ATOM     73  HD  BDP B   5      20.228   5.026  24.5540  0.00  0.00     0.000 HD
ATOM     73   O  BDP B   5      20.098   7.614  26.8760  0.00  0.00     0.000 O
ATOM     75  HD  BDP B   5      19.746   6.830  26.7740  0.00  0.00     0.000 HD
BRANCH 69 75
ATOM     75   C  BDP B   5      21.924  11.260  24.2420  0.00  0.00     0.000 C
ATOM     76   O  BDP B   5      22.901  11.291  25.0180  0.00  0.00     0.000 OA
ATOM     77   O  BDP B   5      21.588  12.244  23.5570  0.00  0.00     0.000 OA
ENDBRANCH 69 75
BRANCH 65 78
ATOM     78  O3  NAG B   6      22.487   7.492  22.4980  0.00  0.00     0.000 O
BRANCH 78 81
ATOM     79  C1  NAG B   6      23.138   6.298  18.9650  0.00  0.00     0.000 C
ATOM     80  C2  NAG B   6      22.792   6.194  20.4590  0.00  0.00     0.000 C
ATOM     81  C3  NAG B   6      22.660   7.581  21.0670  0.00  0.00     0.000 C
ATOM     82  C4  NAG B   6      23.886   8.439  20.7400  0.00  0.00     0.000 C
ATOM     83  C5  NAG B   6      24.101   8.463  19.2310  0.00  0.00     0.000 C
ATOM     84  O5  NAG B   6      24.310   7.117  18.8030  0.00  0.00     0.000 O
BRANCH 80 87
ATOM     85   N  NAG B   6      21.636   5.304  20.5160  0.00  0.00     0.000 N
ATOM     87  HD  NAG B   6      21.307   4.503  20.5120  0.00  0.00     0.000 HD
ATOM     87   C  NAG B   6      21.398   4.449  21.5180  0.00  0.00     0.000 C
ATOM     88   C  NAG B   6      20.138   3.650  21.4040  0.00  0.00     0.000 C
ATOM     89   O  NAG B   6      22.144   4.324  22.4820  0.00  0.00     0.000 OA
ENDBRANCH 80 87
ATOM     90   O  NAG B   6      24.814  10.471  18.0870  0.00  0.00     0.000 O
ATOM     92  HD  NAG B   6      24.362   9.735  18.0280  0.00  0.00     0.000 HD
ATOM     92   O  NAG B   6      24.814  10.471  18.0870  0.00  0.00     0.000 O
ATOM     94  HD  NAG B   6      24.362   9.735  18.0280  0.00  0.00     0.000 HD
ENDBRANCH 78 81
ENDBRANCH 65 78
ENDBRANCH 64 68
ENDBRANCH 48 64
ENDBRANCH 47 50
ENDBRANCH 34 47
ENDBRANCH 33 37
ENDBRANCH 17 33
ENDBRANCH 16 19
ENDBRANCH 1 16
TORSDOF 16
ENDMDL
MODEL 26
REMARK VINA RESULT:      -5.3     14.772     17.794
ROOT
ATOM      1  C1  BDP B   1       8.837  19.565  32.5230  0.00  0.00     0.000 C
ATOM      2  C2  BDP B   1       8.311  19.142  33.8830  0.00  0.00     0.000 C
ATOM      3  C3  BDP B   1       7.435  20.204  34.5120  0.00  0.00     0.000 C
ATOM      4  C4  BDP B   1       6.977  21.287  33.5410  0.00  0.00     0.000 C
ATOM      5  C5  BDP B   1       8.114  21.822  32.6750  0.00  0.00     0.000 C
ATOM      6  O5  BDP B   1       9.236  20.923  32.6380  0.00  0.00     0.000 O
ATOM      7   O  BDP B   1       7.574  17.920  33.7610  0.00  0.00     0.000 O
ATOM      9  HD  BDP B   1       7.479  17.119  33.4470  0.00  0.00     0.000 HD
ATOM      9   O  BDP B   1       8.140  20.849  35.5840  0.00  0.00     0.000 O
ATOM     11  HD  BDP B   1       8.044  20.048  35.2700  0.00  0.00     0.000 HD
ATOM     11   O  BDP B   1       5.923  20.794  32.7040  0.00  0.00     0.000 O
ATOM     13  HD  BDP B   1       5.828  19.993  32.3900  0.00  0.00     0.000 HD
ENDROOT
BRANCH 5 13
ATOM     13   C  BDP B   1       8.535  23.126  33.2580  0.00  0.00     0.000 C
ATOM     14   O  BDP B   1       9.437  23.123  34.1200  0.00  0.00     0.000 OA
ATOM     15   O  BDP B   1       7.994  24.176  32.8500  0.00  0.00     0.000 OA
ENDBRANCH 5 13
BRANCH 1 16
ATOM     16  O3  NAG B   2       8.687  18.958  31.2410  0.00  0.00     0.000 O
BRANCH 16 19
ATOM     17  C1  NAG B   2       8.468  17.683  27.8380  0.00  0.00     0.000 C
ATOM     18  C2  NAG B   2       9.226  18.454  28.9190  0.00  0.00     0.000 C
ATOM     19  C3  NAG B   2       8.895  17.905  30.2990  0.00  0.00     0.000 C
ATOM     20  C4  NAG B   2       7.667  16.991  30.2670  0.00  0.00     0.000 C
ATOM     21  C5  NAG B   2       6.573  17.404  29.2740  0.00  0.00     0.000 C
ATOM     22  O5  NAG B   2       7.088  17.978  28.0660  0.00  0.00     0.000 O
ATOM     23   O  NAG B   2       8.101  15.657  29.9830  0.00  0.00     0.000 O
ATOM     25  HD  NAG B   2       8.685  15.898  29.3900  0.00  0.00     0.000 HD
ATOM     25   C  NAG B   2       5.607  18.408  29.9200  0.00  0.00     0.000 C
ATOM     26   O  NAG B   2       4.573  17.747  30.6620  0.00  0.00     0.000 O
ATOM     28  HD  NAG B   2       5.156  17.988  30.0690  0.00  0.00     0.000 HD
BRANCH 18 30
ATOM     28   N  NAG B   2      10.493  17.830  29.2990  0.00  0.00     0.000 N
ATOM     30  HD  NAG B   2      11.255  18.003  29.6710  0.00  0.00     0.000 HD
ATOM     30   C  NAG B   2      11.424  17.396  28.4370  0.00  0.00     0.000 C
ATOM     31   C  NAG B   2      12.637  16.780  29.0750  0.00  0.00     0.000 C
ATOM     32   O  NAG B   2      11.316  17.491  27.2370  0.00  0.00     0.000 OA
ENDBRANCH 18 30
BRANCH 17 33
ATOM     33  O4  BDP B   3       7.900  17.563  26.5160  0.00  0.00     0.000 O
BRANCH 33 37
ATOM     34  C1  BDP B   3       7.951  18.169  22.2880  0.00  0.00     0.000 C
ATOM     35  C2  BDP B   3       7.510  16.800  22.7900  0.00  0.00     0.000 C
ATOM     36  C3  BDP B   3       7.114  16.788  24.2630  0.00  0.00     0.000 C
ATOM     37  C4  BDP B   3       8.167  17.549  25.0830  0.00  0.00     0.000 C
ATOM     38  C5  BDP B   3       8.275  18.965  24.4860  0.00  0.00     0.000 C
ATOM     39  O5  BDP B   3       8.864  18.796  23.1970  0.00  0.00     0.000 O
ATOM     40   O  BDP B   3       6.440  16.387  21.9380  0.00  0.00     0.000 O
ATOM     42  HD  BDP B   3       7.120  16.180  21.4440  0.00  0.00     0.000 HD
ATOM     42   O  BDP B   3       7.026  15.418  24.6520  0.00  0.00     0.000 O
ATOM     44  HD  BDP B   3       7.706  15.211  24.1570  0.00  0.00     0.000 HD
BRANCH 38 44
ATOM     44   C  BDP B   3       9.096  19.918  25.2980  0.00  0.00     0.000 C
ATOM     45   O  BDP B   3      10.341  19.846  25.2020  0.00  0.00     0.000 OA
ATOM     46   O  BDP B   3       8.527  20.747  26.0410  0.00  0.00     0.000 OA
ENDBRANCH 38 44
BRANCH 34 47
ATOM     47  O3  NAG B   4       9.032  18.076  21.3620  0.00  0.00     0.000 O
BRANCH 47 50
ATOM     48  C1  NAG B   4       8.985  20.554  18.5330  0.00  0.00     0.000 C
ATOM     49  C2  NAG B   4       8.501  19.394  19.3850  0.00  0.00     0.000 C
ATOM     50  C3  NAG B   4       9.436  19.215  20.5750  0.00  0.00     0.000 C
ATOM     51  C4  NAG B   4      10.880  19.039  20.1310  0.00  0.00     0.000 C
ATOM     52  C5  NAG B   4      11.288  20.198  19.2210  0.00  0.00     0.000 C
ATOM     53  O5  NAG B   4      10.355  20.338  18.1420  0.00  0.00     0.000 O
ATOM     54   O  NAG B   4      11.720  18.985  21.2870  0.00  0.00     0.000 O
ATOM     56  HD  NAG B   4      12.124  18.722  20.5680  0.00  0.00     0.000 HD
ATOM     56   C  NAG B   4      12.688  19.991  18.6550  0.00  0.00     0.000 C
ATOM     57   O  NAG B   4      12.710  18.776  17.8940  0.00  0.00     0.000 O
ATOM     59  HD  NAG B   4      13.114  18.513  17.1750  0.00  0.00     0.000 HD
BRANCH 49 61
ATOM     59   N  NAG B   4       7.078  19.734  19.4250  0.00  0.00     0.000 N
ATOM     61  HD  NAG B   4       7.617  19.248  18.9530  0.00  0.00     0.000 HD
ATOM     61   O  NAG B   4       6.291  17.657  19.0180  0.00  0.00     0.000 OA
ATOM     62   C  NAG B   4       6.100  18.828  19.3120  0.00  0.00     0.000 C
ATOM     63   C  NAG B   4       4.718  19.328  19.5910  0.00  0.00     0.000 C
ENDBRANCH 49 61
BRANCH 48 64
ATOM     64  O4  BDP B   5       8.313  21.484  17.6880  0.00  0.00     0.000 O
BRANCH 64 68
ATOM     65  C1  BDP B   5       6.592  23.639  14.5630  0.00  0.00     0.000 C
ATOM     66  C2  BDP B   5       6.230  22.161  14.6330  0.00  0.00     0.000 C
ATOM     67  C3  BDP B   5       6.560  21.618  16.0170  0.00  0.00     0.000 C
ATOM     68  C4  BDP B   5       8.027  21.873  16.3450  0.00  0.00     0.000 C
ATOM     69  C5  BDP B   5       8.409  23.337  16.1720  0.00  0.00     0.000 C
ATOM     70  O5  BDP B   5       7.979  23.823  14.8880  0.00  0.00     0.000 O
ATOM     71   O  BDP B   5       4.841  21.990  14.3120  0.00  0.00     0.000 O
ATOM     73  HD  BDP B   5       3.996  21.945  14.1320  0.00  0.00     0.000 HD
ATOM     73   O  BDP B   5       6.299  20.211  16.0800  0.00  0.00     0.000 O
ATOM     75  HD  BDP B   5       5.453  20.166  15.9000  0.00  0.00     0.000 HD
BRANCH 69 75
ATOM     75   C  BDP B   5       9.908  23.451  16.2780  0.00  0.00     0.000 C
ATOM     76   O  BDP B   5      10.617  22.775  15.5050  0.00  0.00     0.000 OA
ATOM     77   O  BDP B   5      10.396  24.218  17.1280  0.00  0.00     0.000 OA
ENDBRANCH 69 75
BRANCH 65 78
ATOM     78  O3  NAG B   6       7.004  24.358  13.3970  0.00  0.00     0.000 O
BRANCH 78 81
ATOM     79  C1  NAG B   6       5.761  27.429  11.5650  0.00  0.00     0.000 C
ATOM     80  C2  NAG B   6       5.766  25.973  12.0570  0.00  0.00     0.000 C
ATOM     81  C3  NAG B   6       6.898  25.755  13.0480  0.00  0.00     0.000 C
ATOM     82  C4  NAG B   6       8.228  26.253  12.4740  0.00  0.00     0.000 C
ATOM     83  C5  NAG B   6       8.081  27.707  12.0410  0.00  0.00     0.000 C
ATOM     84  O5  NAG B   6       7.060  27.760  11.0430  0.00  0.00     0.000 O
BRANCH 80 87
ATOM     85   N  NAG B   6       4.410  25.716  12.5350  0.00  0.00     0.000 N
ATOM     87  HD  NAG B   6       3.580  25.532  12.3680  0.00  0.00     0.000 HD
ATOM     87   C  NAG B   6       3.780  24.541  12.4060  0.00  0.00     0.000 C
ATOM     88   C  NAG B   6       2.407  24.473  12.9940  0.00  0.00     0.000 C
ATOM     89   O  NAG B   6       4.286  23.569  11.8580  0.00  0.00     0.000 OA
ENDBRANCH 80 87
ATOM     90   O  NAG B   6       9.857  29.313  12.3750  0.00  0.00     0.000 O
ATOM     92  HD  NAG B   6       9.002  29.193  12.3200  0.00  0.00     0.000 HD
ATOM     92   O  NAG B   6       9.857  29.313  12.3750  0.00  0.00     0.000 O
ATOM     94  HD  NAG B   6       9.002  29.193  12.3200  0.00  0.00     0.000 HD
ENDBRANCH 78 81
ENDBRANCH 65 78
ENDBRANCH 64 68
ENDBRANCH 48 64
ENDBRANCH 47 50
ENDBRANCH 34 47
ENDBRANCH 33 37
ENDBRANCH 17 33
ENDBRANCH 16 19
ENDBRANCH 1 16
TORSDOF 16
ENDMDL
MODEL 27
REMARK VINA RESULT:      -5.2     12.330     17.279
ROOT
ATOM      1  C1  BDP B   1      31.904   3.503  23.7540  0.00  0.00     0.000 C
ATOM      2  C2  BDP B   1      32.646   4.719  24.2780  0.00  0.00     0.000 C
ATOM      3  C3  BDP B   1      32.605   5.876  23.3020  0.00  0.00     0.000 C
ATOM      4  C4  BDP B   1      31.566   5.720  22.1980  0.00  0.00     0.000 C
ATOM      5  C5  BDP B   1      31.591   4.338  21.5540  0.00  0.00     0.000 C
ATOM      6  O5  BDP B   1      32.249   3.365  22.3830  0.00  0.00     0.000 O
ATOM      7   O  BDP B   1      32.087   5.128  25.5310  0.00  0.00     0.000 O
ATOM      9  HD  BDP B   1      31.777   4.947  26.3190  0.00  0.00     0.000 HD
ATOM      9   O  BDP B   1      33.888   6.033  22.6750  0.00  0.00     0.000 O
ATOM     11  HD  BDP B   1      33.577   5.853  23.4630  0.00  0.00     0.000 HD
ATOM     11   O  BDP B   1      30.254   5.994  22.7040  0.00  0.00     0.000 O
ATOM     13  HD  BDP B   1      29.943   5.813  23.4920  0.00  0.00     0.000 HD
ENDROOT
BRANCH 5 13
ATOM     13   C  BDP B   1      32.317   4.467  20.2600  0.00  0.00     0.000 C
ATOM     14   O  BDP B   1      33.520   4.134  20.2230  0.00  0.00     0.000 OA
ATOM     15   O  BDP B   1      31.699   4.877  19.2540  0.00  0.00     0.000 OA
ENDBRANCH 5 13
BRANCH 1 16
ATOM     16  O3  NAG B   2      30.800   2.784  24.3000  0.00  0.00     0.000 O
BRANCH 16 19
ATOM     17  C1  NAG B   2      27.233   2.893  23.5790  0.00  0.00     0.000 C
ATOM     18  C2  NAG B   2      28.678   2.733  23.1050  0.00  0.00     0.000 C
ATOM     19  C3  NAG B   2      29.537   2.123  24.2020  0.00  0.00     0.000 C
ATOM     20  C4  NAG B   2      28.831   2.157  25.5600  0.00  0.00     0.000 C
ATOM     21  C5  NAG B   2      27.951   3.390  25.8070  0.00  0.00     0.000 C
ATOM     22  O5  NAG B   2      27.288   3.862  24.6280  0.00  0.00     0.000 O
ATOM     23   O  NAG B   2      28.046   0.967  25.6930  0.00  0.00     0.000 O
ATOM     25  HD  NAG B   2      27.768   0.974  24.8730  0.00  0.00     0.000 HD
ATOM     25   C  NAG B   2      28.783   4.539  26.3950  0.00  0.00     0.000 C
ATOM     26   O  NAG B   2      28.900   4.435  27.8210  0.00  0.00     0.000 O
ATOM     28  HD  NAG B   2      28.622   4.442  27.0010  0.00  0.00     0.000 HD
BRANCH 18 30
ATOM     28   N  NAG B   2      28.435   2.086  21.8160  0.00  0.00     0.000 N
ATOM     30  HD  NAG B   2      27.850   2.030  21.1800  0.00  0.00     0.000 HD
ATOM     30   C  NAG B   2      28.210   0.775  21.6450  0.00  0.00     0.000 C
ATOM     31   C  NAG B   2      27.998   0.351  20.2190  0.00  0.00     0.000 C
ATOM     32   O  NAG B   2      28.172  -0.018  22.5560  0.00  0.00     0.000 OA
ENDBRANCH 18 30
BRANCH 17 33
ATOM     33  O4  BDP B   3      25.926   3.504  23.5090  0.00  0.00     0.000 O
BRANCH 33 37
ATOM     34  C1  BDP B   3      23.076   5.967  21.4970  0.00  0.00     0.000 C
ATOM     35  C2  BDP B   3      22.534   4.805  22.3210  0.00  0.00     0.000 C
ATOM     36  C3  BDP B   3      23.537   4.248  23.3250  0.00  0.00     0.000 C
ATOM     37  C4  BDP B   3      24.901   4.070  22.6410  0.00  0.00     0.000 C
ATOM     38  C5  BDP B   3      25.305   5.439  22.0620  0.00  0.00     0.000 C
ATOM     39  O5  BDP B   3      24.389   5.692  20.9960  0.00  0.00     0.000 O
ATOM     40   O  BDP B   3      21.345   5.283  22.9520  0.00  0.00     0.000 O
ATOM     42  HD  BDP B   3      21.037   5.096  22.1650  0.00  0.00     0.000 HD
ATOM     42   O  BDP B   3      23.009   3.007  23.7880  0.00  0.00     0.000 O
ATOM     44  HD  BDP B   3      22.701   2.819  23.0000  0.00  0.00     0.000 HD
BRANCH 38 44
ATOM     44   C  BDP B   3      26.710   5.504  21.5490  0.00  0.00     0.000 C
ATOM     45   O  BDP B   3      27.025   4.743  20.6070  0.00  0.00     0.000 OA
ATOM     46   O  BDP B   3      27.521   6.303  22.0660  0.00  0.00     0.000 OA
ENDBRANCH 38 44
BRANCH 34 47
ATOM     47  O3  NAG B   4      22.618   5.922  20.1470  0.00  0.00     0.000 O
BRANCH 47 50
ATOM     48  C1  NAG B   4      21.769   9.024  18.1950  0.00  0.00     0.000 C
ATOM     49  C2  NAG B   4      21.559   7.895  19.1890  0.00  0.00     0.000 C
ATOM     50  C3  NAG B   4      22.820   7.040  19.2570  0.00  0.00     0.000 C
ATOM     51  C4  NAG B   4      23.225   6.529  17.8840  0.00  0.00     0.000 C
ATOM     52  C5  NAG B   4      23.351   7.702  16.9110  0.00  0.00     0.000 C
ATOM     53  O5  NAG B   4      22.152   8.486  16.9140  0.00  0.00     0.000 O
ATOM     54   O  NAG B   4      24.466   5.829  17.9950  0.00  0.00     0.000 O
ATOM     56  HD  NAG B   4      24.068   5.684  17.2400  0.00  0.00     0.000 HD
ATOM     56   C  NAG B   4      23.634   7.217  15.4940  0.00  0.00     0.000 C
ATOM     57   O  NAG B   4      22.556   6.375  15.0640  0.00  0.00     0.000 O
ATOM     59  HD  NAG B   4      22.158   6.230  14.3090  0.00  0.00     0.000 HD
BRANCH 49 61
ATOM     59   N  NAG B   4      21.073   8.566  20.3950  0.00  0.00     0.000 N
ATOM     61  HD  NAG B   4      20.751   8.222  19.6680  0.00  0.00     0.000 HD
ATOM     61   O  NAG B   4      19.284   7.231  20.7450  0.00  0.00     0.000 OA
ATOM     62   C  NAG B   4      20.025   8.134  21.1070  0.00  0.00     0.000 C
ATOM     63   C  NAG B   4      19.809   8.818  22.4200  0.00  0.00     0.000 C
ENDBRANCH 49 61
BRANCH 48 64
ATOM     64  O4  BDP B   5      21.240  10.343  18.1010  0.00  0.00     0.000 O
BRANCH 64 68
ATOM     65  C1  BDP B   5      20.646  14.468  18.1720  0.00  0.00     0.000 C
ATOM     66  C2  BDP B   5      20.848  13.847  16.7970  0.00  0.00     0.000 C
ATOM     67  C3  BDP B   5      20.621  12.343  16.8750  0.00  0.00     0.000 C
ATOM     68  C4  BDP B   5      21.535  11.729  17.9290  0.00  0.00     0.000 C
ATOM     69  C5  BDP B   5      21.406  12.424  19.2780  0.00  0.00     0.000 C
ATOM     70  O5  BDP B   5      21.524  13.849  19.1260  0.00  0.00     0.000 O
ATOM     71   O  BDP B   5      19.962  14.469  15.8530  0.00  0.00     0.000 O
ATOM     73  HD  BDP B   5      19.394  14.862  15.3310  0.00  0.00     0.000 HD
ATOM     73   O  BDP B   5      20.881  11.728  15.6080  0.00  0.00     0.000 O
ATOM     75  HD  BDP B   5      20.313  12.121  15.0850  0.00  0.00     0.000 HD
BRANCH 69 75
ATOM     75   C  BDP B   5      22.506  11.921  20.1780  0.00  0.00     0.000 C
ATOM     76   O  BDP B   5      23.689  12.189  19.8870  0.00  0.00     0.000 OA
ATOM     77   O  BDP B   5      22.203  11.256  21.1870  0.00  0.00     0.000 OA
ENDBRANCH 69 75
BRANCH 65 78
ATOM     78  O3  NAG B   6      21.293  15.640  18.6770  0.00  0.00     0.000 O
BRANCH 78 81
ATOM     79  C1  NAG B   6      20.931  18.148  21.4900  0.00  0.00     0.000 C
ATOM     80  C2  NAG B   6      20.680  17.509  20.1150  0.00  0.00     0.000 C
ATOM     81  C3  NAG B   6      21.397  16.172  20.0160  0.00  0.00     0.000 C
ATOM     82  C4  NAG B   6      22.871  16.314  20.4090  0.00  0.00     0.000 C
ATOM     83  C5  NAG B   6      22.968  16.946  21.7930  0.00  0.00     0.000 C
ATOM     84  O5  NAG B   6      22.348  18.231  21.7250  0.00  0.00     0.000 O
BRANCH 80 87
ATOM     85   N  NAG B   6      19.229  17.503  19.9490  0.00  0.00     0.000 N
ATOM     87  HD  NAG B   6      18.496  17.921  19.7550  0.00  0.00     0.000 HD
ATOM     87   C  NAG B   6      18.608  17.687  18.7780  0.00  0.00     0.000 C
ATOM     88   C  NAG B   6      17.115  17.609  18.8150  0.00  0.00     0.000 C
ATOM     89   O  NAG B   6      19.207  17.892  17.7290  0.00  0.00     0.000 OA
ENDBRANCH 80 87
ATOM     90   O  NAG B   6      24.625  16.224  23.3990  0.00  0.00     0.000 O
ATOM     92  HD  NAG B   6      23.832  16.553  23.2870  0.00  0.00     0.000 HD
ATOM     92   O  NAG B   6      24.625  16.224  23.3990  0.00  0.00     0.000 O
ATOM     94  HD  NAG B   6      23.832  16.553  23.2870  0.00  0.00     0.000 HD
ENDBRANCH 78 81
ENDBRANCH 65 78
ENDBRANCH 64 68
ENDBRANCH 48 64
ENDBRANCH 47 50
ENDBRANCH 34 47
ENDBRANCH 33 37
ENDBRANCH 17 33
ENDBRANCH 16 19
ENDBRANCH 1 16
TORSDOF 16
ENDMDL
MODEL 28
REMARK VINA RESULT:      -5.1     11.304     18.563
ROOT
ATOM      1  C1  BDP B   1      20.116  22.417  17.0040  0.00  0.00     0.000 C
ATOM      2  C2  BDP B   1      19.703  23.564  17.9090  0.00  0.00     0.000 C
ATOM      3  C3  BDP B   1      19.067  24.699  17.1350  0.00  0.00     0.000 C
ATOM      4  C4  BDP B   1      18.653  24.329  15.7160  0.00  0.00     0.000 C
ATOM      5  C5  BDP B   1      19.741  23.571  14.9620  0.00  0.00     0.000 C
ATOM      6  O5  BDP B   1      20.713  22.993  15.8500  0.00  0.00     0.000 O
ATOM      7   O  BDP B   1      18.793  23.092  18.9080  0.00  0.00     0.000 O
ATOM      9  HD  BDP B   1      18.549  22.507  19.4970  0.00  0.00     0.000 HD
ATOM      9   O  BDP B   1      19.978  25.806  17.0490  0.00  0.00     0.000 O
ATOM     11  HD  BDP B   1      19.735  25.220  17.6390  0.00  0.00     0.000 HD
ATOM     11   O  BDP B   1      17.447  23.554  15.7330  0.00  0.00     0.000 O
ATOM     13  HD  BDP B   1      17.203  22.969  16.3220  0.00  0.00     0.000 HD
ENDROOT
BRANCH 5 13
ATOM     13   C  BDP B   1      20.408  24.543  14.0540  0.00  0.00     0.000 C
ATOM     14   O  BDP B   1      19.929  25.694  13.9690  0.00  0.00     0.000 OA
ATOM     15   O  BDP B   1      21.431  24.190  13.4300  0.00  0.00     0.000 OA
ENDBRANCH 5 13
BRANCH 1 16
ATOM     16  O3  NAG B   2      19.730  21.044  17.0120  0.00  0.00     0.000 O
BRANCH 16 19
ATOM     17  C1  NAG B   2      20.346  17.854  18.6560  0.00  0.00     0.000 C
ATOM     18  C2  NAG B   2      20.192  19.374  18.7250  0.00  0.00     0.000 C
ATOM     19  C3  NAG B   2      19.235  19.865  17.6490  0.00  0.00     0.000 C
ATOM     20  C4  NAG B   2      18.963  18.786  16.5970  0.00  0.00     0.000 C
ATOM     21  C5  NAG B   2      20.157  17.878  16.2700  0.00  0.00     0.000 C
ATOM     22  O5  NAG B   2      20.987  17.599  17.4040  0.00  0.00     0.000 O
ATOM     23   O  NAG B   2      17.856  17.992  17.0360  0.00  0.00     0.000 O
ATOM     25  HD  NAG B   2      18.109  17.971  17.8640  0.00  0.00     0.000 HD
ATOM     25   C  NAG B   2      21.026  18.502  15.1690  0.00  0.00     0.000 C
ATOM     26   O  NAG B   2      20.531  18.189  13.8600  0.00  0.00     0.000 O
ATOM     28  HD  NAG B   2      20.784  18.168  14.6880  0.00  0.00     0.000 HD
BRANCH 18 30
ATOM     28   N  NAG B   2      19.473  18.719  19.8170  0.00  0.00     0.000 N
ATOM     30  HD  NAG B   2      18.794  18.206  19.9770  0.00  0.00     0.000 HD
ATOM     30   C  NAG B   2      18.751  19.354  20.7510  0.00  0.00     0.000 C
ATOM     31   C  NAG B   2      18.115  18.458  21.7750  0.00  0.00     0.000 C
ATOM     32   O  NAG B   2      18.606  20.554  20.7790  0.00  0.00     0.000 OA
ENDBRANCH 18 30
BRANCH 17 33
ATOM     33  O4  BDP B   3      21.066  16.630  18.9180  0.00  0.00     0.000 O
BRANCH 33 37
ATOM     34  C1  BDP B   3      21.666  12.511  19.8750  0.00  0.00     0.000 C
ATOM     35  C2  BDP B   3      20.495  12.851  18.9610  0.00  0.00     0.000 C
ATOM     36  C3  BDP B   3      20.592  14.237  18.3330  0.00  0.00     0.000 C
ATOM     37  C4  BDP B   3      20.983  15.260  19.4090  0.00  0.00     0.000 C
ATOM     38  C5  BDP B   3      22.303  14.777  20.0420  0.00  0.00     0.000 C
ATOM     39  O5  BDP B   3      21.972  13.591  20.7650  0.00  0.00     0.000 O
ATOM     40   O  BDP B   3      20.441  11.814  17.9780  0.00  0.00     0.000 O
ATOM     42  HD  BDP B   3      20.039  11.423  18.6380  0.00  0.00     0.000 HD
ATOM     42   O  BDP B   3      19.313  14.522  17.7690  0.00  0.00     0.000 O
ATOM     44  HD  BDP B   3      18.911  14.130  18.4290  0.00  0.00     0.000 HD
BRANCH 38 44
ATOM     44   C  BDP B   3      22.947  15.768  20.9610  0.00  0.00     0.000 C
ATOM     45   O  BDP B   3      24.011  16.308  20.5860  0.00  0.00     0.000 OA
ATOM     46   O  BDP B   3      22.416  16.026  22.0630  0.00  0.00     0.000 OA
ENDBRANCH 38 44
BRANCH 34 47
ATOM     47  O3  NAG B   4      21.252  11.767  21.0190  0.00  0.00     0.000 O
BRANCH 47 50
ATOM     48  C1  NAG B   4      22.992   8.490  21.6390  0.00  0.00     0.000 C
ATOM     49  C2  NAG B   4      22.106   9.489  20.9150  0.00  0.00     0.000 C
ATOM     50  C3  NAG B   4      22.141  10.823  21.6520  0.00  0.00     0.000 C
ATOM     51  C4  NAG B   4      21.755  10.665  23.1140  0.00  0.00     0.000 C
ATOM     52  C5  NAG B   4      22.633   9.599  23.7700  0.00  0.00     0.000 C
ATOM     53  O5  NAG B   4      22.587   8.381  23.0170  0.00  0.00     0.000 O
ATOM     54   O  NAG B   4      21.911  11.924  23.7750  0.00  0.00     0.000 O
ATOM     56  HD  NAG B   4      21.456  11.355  24.2430  0.00  0.00     0.000 HD
ATOM     56   C  NAG B   4      22.193   9.325  25.2030  0.00  0.00     0.000 C
ATOM     57   O  NAG B   4      20.835   8.864  25.1950  0.00  0.00     0.000 O
ATOM     59  HD  NAG B   4      20.380   8.295  25.6640  0.00  0.00     0.000 HD
BRANCH 49 61
ATOM     59   N  NAG B   4      20.828   8.786  20.8010  0.00  0.00     0.000 N
ATOM     61  HD  NAG B   4      21.193   9.519  20.5210  0.00  0.00     0.000 HD
ATOM     61   O  NAG B   4      20.504   9.165  18.5980  0.00  0.00     0.000 OA
ATOM     62   C  NAG B   4      20.177   8.622  19.6430  0.00  0.00     0.000 C
ATOM     63   C  NAG B   4      19.002   7.697  19.6860  0.00  0.00     0.000 C
ENDBRANCH 49 61
BRANCH 48 64
ATOM     64  O4  BDP B   5      23.746   7.365  21.1970  0.00  0.00     0.000 O
BRANCH 64 68
ATOM     65  C1  BDP B   5      24.997   6.665  17.2830  0.00  0.00     0.000 C
ATOM     66  C2  BDP B   5      23.767   5.891  17.7390  0.00  0.00     0.000 C
ATOM     67  C3  BDP B   5      23.183   6.544  18.9850  0.00  0.00     0.000 C
ATOM     68  C4  BDP B   5      24.246   6.640  20.0740  0.00  0.00     0.000 C
ATOM     69  C5  BDP B   5      25.515   7.322  19.5800  0.00  0.00     0.000 C
ATOM     70  O5  BDP B   5      25.960   6.732  18.3470  0.00  0.00     0.000 O
ATOM     71   O  BDP B   5      22.809   5.836  16.6700  0.00  0.00     0.000 O
ATOM     73  HD  BDP B   5      22.259   5.850  16.0010  0.00  0.00     0.000 HD
ATOM     73   O  BDP B   5      22.070   5.787  19.4750  0.00  0.00     0.000 O
ATOM     75  HD  BDP B   5      21.521   5.801  18.8060  0.00  0.00     0.000 HD
BRANCH 69 75
ATOM     75   C  BDP B   5      26.582   7.155  20.6320  0.00  0.00     0.000 C
ATOM     76   O  BDP B   5      26.863   6.005  21.0240  0.00  0.00     0.000 OA
ATOM     77   O  BDP B   5      27.154   8.168  21.0770  0.00  0.00     0.000 OA
ENDBRANCH 69 75
BRANCH 65 78
ATOM     78  O3  NAG B   6      26.130   6.129  16.5950  0.00  0.00     0.000 O
BRANCH 78 81
ATOM     79  C1  NAG B   6      27.860   6.832  13.3020  0.00  0.00     0.000 C
ATOM     80  C2  NAG B   6      26.765   6.319  14.2500  0.00  0.00     0.000 C
ATOM     81  C3  NAG B   6      27.069   6.736  15.6800  0.00  0.00     0.000 C
ATOM     82  C4  NAG B   6      28.500   6.352  16.0680  0.00  0.00     0.000 C
ATOM     83  C5  NAG B   6      29.475   6.937  15.0520  0.00  0.00     0.000 C
ATOM     84  O5  NAG B   6      29.145   6.392  13.7740  0.00  0.00     0.000 O
BRANCH 80 87
ATOM     85   N  NAG B   6      25.495   6.793  13.7070  0.00  0.00     0.000 N
ATOM     87  HD  NAG B   6      24.861   6.728  13.1210  0.00  0.00     0.000 HD
ATOM     87   C  NAG B   6      24.363   6.080  13.7170  0.00  0.00     0.000 C
ATOM     88   C  NAG B   6      23.161   6.761  13.1420  0.00  0.00     0.000 C
ATOM     89   O  NAG B   6      24.291   4.946  14.1770  0.00  0.00     0.000 OA
ENDBRANCH 80 87
ATOM     90   O  NAG B   6      31.611   7.846  15.7280  0.00  0.00     0.000 O
ATOM     92  HD  NAG B   6      30.963   7.889  15.1550  0.00  0.00     0.000 HD
ATOM     92   O  NAG B   6      31.611   7.846  15.7280  0.00  0.00     0.000 O
ATOM     94  HD  NAG B   6      30.963   7.889  15.1550  0.00  0.00     0.000 HD
ENDBRANCH 78 81
ENDBRANCH 65 78
ENDBRANCH 64 68
ENDBRANCH 48 64
ENDBRANCH 47 50
ENDBRANCH 34 47
ENDBRANCH 33 37
ENDBRANCH 17 33
ENDBRANCH 16 19
ENDBRANCH 1 16
TORSDOF 16
ENDMDL
MODEL 29
REMARK VINA RESULT:      -5.1      7.987     15.572
ROOT
ATOM      1  C1  BDP B   1      31.515  16.652  33.4660  0.00  0.00     0.000 C
ATOM      2  C2  BDP B   1      32.163  17.758  34.2790  0.00  0.00     0.000 C
ATOM      3  C3  BDP B   1      33.007  18.677  33.4220  0.00  0.00     0.000 C
ATOM      4  C4  BDP B   1      32.757  18.533  31.9250  0.00  0.00     0.000 C
ATOM      5  C5  BDP B   1      32.727  17.077  31.4680  0.00  0.00     0.000 C
ATOM      6  O5  BDP B   1      32.499  16.171  32.5610  0.00  0.00     0.000 O
ATOM      7   O  BDP B   1      31.156  18.520  34.9530  0.00  0.00     0.000 O
ATOM      9  HD  BDP B   1      30.426  18.573  35.4170  0.00  0.00     0.000 HD
ATOM      9   O  BDP B   1      34.401  18.423  33.6570  0.00  0.00     0.000 O
ATOM     11  HD  BDP B   1      33.672  18.476  34.1210  0.00  0.00     0.000 HD
ATOM     11   O  BDP B   1      31.533  19.180  31.5580  0.00  0.00     0.000 O
ATOM     13  HD  BDP B   1      30.803  19.233  32.0220  0.00  0.00     0.000 HD
ENDROOT
BRANCH 5 13
ATOM     13   C  BDP B   1      34.044  16.785  30.8400  0.00  0.00     0.000 C
ATOM     14   O  BDP B   1      34.163  15.729  30.1830  0.00  0.00     0.000 OA
ATOM     15   O  BDP B   1      34.974  17.610  30.9650  0.00  0.00     0.000 OA
ENDBRANCH 5 13
BRANCH 1 16
ATOM     16  O3  NAG B   2      30.141  16.314  33.2890  0.00  0.00     0.000 O
BRANCH 16 19
ATOM     17  C1  NAG B   2      27.185  14.668  31.9450  0.00  0.00     0.000 C
ATOM     18  C2  NAG B   2      27.919  15.330  33.1110  0.00  0.00     0.000 C
ATOM     19  C3  NAG B   2      28.891  16.385  32.6020  0.00  0.00     0.000 C
ATOM     20  C4  NAG B   2      29.122  16.262  31.0940  0.00  0.00     0.000 C
ATOM     21  C5  NAG B   2      29.123  14.827  30.5490  0.00  0.00     0.000 C
ATOM     22  O5  NAG B   2      28.194  13.964  31.2170  0.00  0.00     0.000 O
ATOM     23   O  NAG B   2      28.128  17.038  30.4170  0.00  0.00     0.000 O
ATOM     25  HD  NAG B   2      27.484  16.802  30.9450  0.00  0.00     0.000 HD
ATOM     25   C  NAG B   2      30.525  14.210  30.6500  0.00  0.00     0.000 C
ATOM     26   O  NAG B   2      31.340  14.555  29.5210  0.00  0.00     0.000 O
ATOM     28  HD  NAG B   2      30.695  14.319  30.0490  0.00  0.00     0.000 HD
BRANCH 18 30
ATOM     28   N  NAG B   2      26.604  15.942  32.9290  0.00  0.00     0.000 N
ATOM     30  HD  NAG B   2      26.193  16.557  32.4780  0.00  0.00     0.000 HD
ATOM     30   C  NAG B   2      25.977  16.700  33.8390  0.00  0.00     0.000 C
ATOM     31   C  NAG B   2      24.626  17.206  33.4180  0.00  0.00     0.000 C
ATOM     32   O  NAG B   2      26.449  16.973  34.9180  0.00  0.00     0.000 OA
ENDBRANCH 18 30
BRANCH 17 33
ATOM     33  O4  BDP B   3      26.443  13.577  31.3570  0.00  0.00     0.000 O
BRANCH 33 37
ATOM     34  C1  BDP B   3      23.812  11.629  28.6140  0.00  0.00     0.000 C
ATOM     35  C2  BDP B   3      24.585  12.837  28.0990  0.00  0.00     0.000 C
ATOM     36  C3  BDP B   3      25.785  13.208  28.9640  0.00  0.00     0.000 C
ATOM     37  C4  BDP B   3      25.373  13.196  30.4430  0.00  0.00     0.000 C
ATOM     38  C5  BDP B   3      24.803  11.797  30.7480  0.00  0.00     0.000 C
ATOM     39  O5  BDP B   3      23.576  11.714  30.0240  0.00  0.00     0.000 O
ATOM     40   O  BDP B   3      24.961  12.528  26.7550  0.00  0.00     0.000 O
ATOM     42  HD  BDP B   3      24.142  12.781  26.6330  0.00  0.00     0.000 HD
ATOM     42   O  BDP B   3      26.209  14.503  28.5410  0.00  0.00     0.000 O
ATOM     44  HD  BDP B   3      25.390  14.756  28.4180  0.00  0.00     0.000 HD
BRANCH 38 44
ATOM     44   C  BDP B   3      24.554  11.534  32.2010  0.00  0.00     0.000 C
ATOM     45   O  BDP B   3      23.531  12.033  32.7190  0.00  0.00     0.000 OA
ATOM     46   O  BDP B   3      25.361  10.834  32.8500  0.00  0.00     0.000 OA
ENDBRANCH 38 44
BRANCH 34 47
ATOM     47  O3  NAG B   4      22.405  11.778  28.4310  0.00  0.00     0.000 O
BRANCH 47 50
ATOM     48  C1  NAG B   4      20.455   9.129  26.6050  0.00  0.00     0.000 C
ATOM     49  C2  NAG B   4      21.410  10.298  26.7730  0.00  0.00     0.000 C
ATOM     50  C3  NAG B   4      21.554  10.627  28.2540  0.00  0.00     0.000 C
ATOM     51  C4  NAG B   4      20.204  10.890  28.9020  0.00  0.00     0.000 C
ATOM     52  C5  NAG B   4      19.264   9.712  28.6410  0.00  0.00     0.000 C
ATOM     53  O5  NAG B   4      19.196   9.430  27.2380  0.00  0.00     0.000 O
ATOM     54   O  NAG B   4      20.391  11.084  30.3070  0.00  0.00     0.000 O
ATOM     56  HD  NAG B   4      19.607  11.333  30.0370  0.00  0.00     0.000 HD
ATOM     56   C  NAG B   4      17.863   9.995  29.1690  0.00  0.00     0.000 C
ATOM     57   O  NAG B   4      17.341  11.157  28.5100  0.00  0.00     0.000 O
ATOM     59  HD  NAG B   4      16.556  11.406  28.2410  0.00  0.00     0.000 HD
BRANCH 49 61
ATOM     59   N  NAG B   4      22.466   9.848  25.8640  0.00  0.00     0.000 N
ATOM     61  HD  NAG B   4      21.756  10.345  25.8410  0.00  0.00     0.000 HD
ATOM     61   O  NAG B   4      22.786  11.826  24.8200  0.00  0.00     0.000 OA
ATOM     62   C  NAG B   4      23.110  10.664  25.0210  0.00  0.00     0.000 C
ATOM     63   C  NAG B   4      24.298  10.073  24.3300  0.00  0.00     0.000 C
ENDBRANCH 49 61
BRANCH 48 64
ATOM     64  O4  BDP B   5      20.348   8.097  25.6300  0.00  0.00     0.000 O
BRANCH 64 68
ATOM     65  C1  BDP B   5      21.120   8.260  21.5370  0.00  0.00     0.000 C
ATOM     66  C2  BDP B   5      19.729   8.704  21.9720  0.00  0.00     0.000 C
ATOM     67  C3  BDP B   5      19.730   9.002  23.4660  0.00  0.00     0.000 C
ATOM     68  C4  BDP B   5      20.221   7.786  24.2430  0.00  0.00     0.000 C
ATOM     69  C5  BDP B   5      21.566   7.282  23.7330  0.00  0.00     0.000 C
ATOM     70  O5  BDP B   5      21.536   7.120  22.3040  0.00  0.00     0.000 O
ATOM     71   O  BDP B   5      19.326   9.848  21.2030  0.00  0.00     0.000 O
ATOM     73  HD  BDP B   5      19.141  10.547  20.7260  0.00  0.00     0.000 HD
ATOM     73   O  BDP B   5      18.413   9.347  23.9100  0.00  0.00     0.000 O
ATOM     75  HD  BDP B   5      18.228  10.046  23.4340  0.00  0.00     0.000 HD
BRANCH 69 75
ATOM     75   C  BDP B   5      21.852   5.954  24.3850  0.00  0.00     0.000 C
ATOM     76   O  BDP B   5      23.036   5.654  24.6420  0.00  0.00     0.000 OA
ATOM     77   O  BDP B   5      20.901   5.196  24.6530  0.00  0.00     0.000 OA
ENDBRANCH 69 75
BRANCH 65 78
ATOM     78  O3  NAG B   6      21.429   7.367  20.4640  0.00  0.00     0.000 O
BRANCH 78 81
ATOM     79  C1  NAG B   6      23.112   7.683  17.0870  0.00  0.00     0.000 C
ATOM     80  C2  NAG B   6      22.008   7.841  18.1450  0.00  0.00     0.000 C
ATOM     81  C3  NAG B   6      22.505   7.366  19.5010  0.00  0.00     0.000 C
ATOM     82  C4  NAG B   6      23.113   5.963  19.3970  0.00  0.00     0.000 C
ATOM     83  C5  NAG B   6      24.196   5.957  18.3250  0.00  0.00     0.000 C
ATOM     84  O5  NAG B   6      23.582   6.323  17.0890  0.00  0.00     0.000 O
BRANCH 80 87
ATOM     85   N  NAG B   6      21.571   9.231  18.0490  0.00  0.00     0.000 N
ATOM     87  HD  NAG B   6      21.109   9.845  17.6480  0.00  0.00     0.000 HD
ATOM     87   C  NAG B   6      20.305   9.632  18.2240  0.00  0.00     0.000 C
ATOM     88   C  NAG B   6      20.070  11.105  18.1180  0.00  0.00     0.000 C
ATOM     89   O  NAG B   6      19.387   8.858  18.4700  0.00  0.00     0.000 OA
ENDBRANCH 80 87
ATOM     90   O  NAG B   6      26.247   4.706  18.6050  0.00  0.00     0.000 O
ATOM     92  HD  NAG B   6      25.875   5.403  18.2500  0.00  0.00     0.000 HD
ATOM     92   O  NAG B   6      26.247   4.706  18.6050  0.00  0.00     0.000 O
ATOM     94  HD  NAG B   6      25.875   5.403  18.2500  0.00  0.00     0.000 HD
ENDBRANCH 78 81
ENDBRANCH 65 78
ENDBRANCH 64 68
ENDBRANCH 48 64
ENDBRANCH 47 50
ENDBRANCH 34 47
ENDBRANCH 33 37
ENDBRANCH 17 33
ENDBRANCH 16 19
ENDBRANCH 1 16
TORSDOF 16
ENDMDL
MODEL 30
REMARK VINA RESULT:      -5.0      4.707     16.378
ROOT
ATOM      1  C1  BDP B   1      20.799  12.544  32.5370  0.00  0.00     0.000 C
ATOM      2  C2  BDP B   1      21.534  13.775  33.0350  0.00  0.00     0.000 C
ATOM      3  C3  BDP B   1      22.962  13.466  33.4310  0.00  0.00     0.000 C
ATOM      4  C4  BDP B   1      23.467  12.117  32.9310  0.00  0.00     0.000 C
ATOM      5  C5  BDP B   1      22.473  10.986  33.1770  0.00  0.00     0.000 C
ATOM      6  O5  BDP B   1      21.142  11.476  33.4080  0.00  0.00     0.000 O
ATOM      7   O  BDP B   1      21.525  14.789  32.0250  0.00  0.00     0.000 O
ATOM      9  HD  BDP B   1      21.118  15.249  31.4140  0.00  0.00     0.000 HD
ATOM      9   O  BDP B   1      23.086  13.474  34.8620  0.00  0.00     0.000 O
ATOM     11  HD  BDP B   1      22.680  13.934  34.2510  0.00  0.00     0.000 HD
ATOM     11   O  BDP B   1      23.783  12.188  31.5350  0.00  0.00     0.000 O
ATOM     13  HD  BDP B   1      23.376  12.648  30.9240  0.00  0.00     0.000 HD
ENDROOT
BRANCH 5 13
ATOM     13   C  BDP B   1      22.947  10.235  34.3720  0.00  0.00     0.000 C
ATOM     14   O  BDP B   1      24.144   9.881  34.4090  0.00  0.00     0.000 OA
ATOM     15   O  BDP B   1      22.146  10.007  35.3030  0.00  0.00     0.000 OA
ENDBRANCH 5 13
BRANCH 1 16
ATOM     16  O3  NAG B   2      20.166  12.284  31.2850  0.00  0.00     0.000 O
BRANCH 16 19
ATOM     17  C1  NAG B   2      16.828  10.875  30.9280  0.00  0.00     0.000 C
ATOM     18  C2  NAG B   2      17.741  12.053  31.2700  0.00  0.00     0.000 C
ATOM     19  C3  NAG B   2      19.033  11.979  30.4710  0.00  0.00     0.000 C
ATOM     20  C4  NAG B   2      19.220  10.606  29.8200  0.00  0.00     0.000 C
ATOM     21  C5  NAG B   2      18.706   9.418  30.6460  0.00  0.00     0.000 C
ATOM     22  O5  NAG B   2      17.522   9.716  31.3950  0.00  0.00     0.000 O
ATOM     23   O  NAG B   2      18.580  10.618  28.5400  0.00  0.00     0.000 O
ATOM     25  HD  NAG B   2      17.889  11.064  28.8110  0.00  0.00     0.000 HD
ATOM     25   C  NAG B   2      19.788   8.925  31.6170  0.00  0.00     0.000 C
ATOM     26   O  NAG B   2      20.684   7.998  30.9870  0.00  0.00     0.000 O
ATOM     28  HD  NAG B   2      19.992   8.443  31.2590  0.00  0.00     0.000 HD
BRANCH 18 30
ATOM     28   N  NAG B   2      16.623  12.476  30.4280  0.00  0.00     0.000 N
ATOM     30  HD  NAG B   2      16.303  12.397  29.6270  0.00  0.00     0.000 HD
ATOM     30   C  NAG B   2      16.419  13.728  29.9940  0.00  0.00     0.000 C
ATOM     31   C  NAG B   2      15.191  13.912  29.1480  0.00  0.00     0.000 C
ATOM     32   O  NAG B   2      17.160  14.650  30.2470  0.00  0.00     0.000 OA
ENDBRANCH 18 30
BRANCH 17 33
ATOM     33  O4  BDP B   3      15.748   9.967  31.2320  0.00  0.00     0.000 O
BRANCH 33 37
ATOM     34  C1  BDP B   3      12.375   8.767  33.5610  0.00  0.00     0.000 C
ATOM     35  C2  BDP B   3      12.297   8.542  32.0560  0.00  0.00     0.000 C
ATOM     36  C3  BDP B   3      13.654   8.590  31.3610  0.00  0.00     0.000 C
ATOM     37  C4  BDP B   3      14.445   9.806  31.8660  0.00  0.00     0.000 C
ATOM     38  C5  BDP B   3      14.543   9.684  33.3990  0.00  0.00     0.000 C
ATOM     39  O5  BDP B   3      13.216   9.880  33.8870  0.00  0.00     0.000 O
ATOM     40   O  BDP B   3      11.640   7.287  31.8730  0.00  0.00     0.000 O
ATOM     42  HD  BDP B   3      10.956   7.801  32.0070  0.00  0.00     0.000 HD
ATOM     42   O  BDP B   3      13.394   8.671  29.9610  0.00  0.00     0.000 O
ATOM     44  HD  BDP B   3      12.710   9.185  30.0950  0.00  0.00     0.000 HD
BRANCH 38 44
ATOM     44   C  BDP B   3      15.469  10.669  34.0410  0.00  0.00     0.000 C
ATOM     45   O  BDP B   3      16.489  10.225  34.6140  0.00  0.00     0.000 OA
ATOM     46   O  BDP B   3      15.205  11.890  33.9900  0.00  0.00     0.000 OA
ENDBRANCH 38 44
BRANCH 34 47
ATOM     47  O3  NAG B   4      11.274   9.535  34.0440  0.00  0.00     0.000 O
BRANCH 47 50
ATOM     48  C1  NAG B   4      10.116   8.357  37.4230  0.00  0.00     0.000 C
ATOM     49  C2  NAG B   4      10.491   8.247  35.9550  0.00  0.00     0.000 C
ATOM     50  C3  NAG B   4      10.976   9.602  35.4530  0.00  0.00     0.000 C
ATOM     51  C4  NAG B   4       9.947  10.692  35.7040  0.00  0.00     0.000 C
ATOM     52  C5  NAG B   4       9.557  10.709  37.1820  0.00  0.00     0.000 C
ATOM     53  O5  NAG B   4       9.142   9.403  37.6040  0.00  0.00     0.000 O
ATOM     54   O  NAG B   4      10.499  11.952  35.3130  0.00  0.00     0.000 O
ATOM     56  HD  NAG B   4       9.642  11.987  35.4350  0.00  0.00     0.000 HD
ATOM     56   C  NAG B   4       8.435  11.706  37.4480  0.00  0.00     0.000 C
ATOM     57   O  NAG B   4       7.287  11.336  36.6720  0.00  0.00     0.000 O
ATOM     59  HD  NAG B   4       6.431  11.371  36.7940  0.00  0.00     0.000 HD
BRANCH 49 61
ATOM     59   N  NAG B   4       9.300   7.502  35.5450  0.00  0.00     0.000 N
ATOM     61  HD  NAG B   4      10.025   7.816  35.1890  0.00  0.00     0.000 HD
ATOM     61   O  NAG B   4      10.354   6.026  34.1980  0.00  0.00     0.000 OA
ATOM     62   C  NAG B   4       9.343   6.416  34.7640  0.00  0.00     0.000 C
ATOM     63   C  NAG B   4       8.056   5.666  34.6280  0.00  0.00     0.000 C
ENDBRANCH 49 61
BRANCH 48 64
ATOM     64  O4  BDP B   5      10.126   7.423  38.4990  0.00  0.00     0.000 O
BRANCH 64 68
ATOM     65  C1  BDP B   5      11.824   8.075  42.2490  0.00  0.00     0.000 C
ATOM     66  C2  BDP B   5      12.635   7.213  41.2900  0.00  0.00     0.000 C
ATOM     67  C3  BDP B   5      12.128   7.414  39.8680  0.00  0.00     0.000 C
ATOM     68  C4  BDP B   5      10.635   7.115  39.7960  0.00  0.00     0.000 C
ATOM     69  C5  BDP B   5       9.841   7.903  40.8300  0.00  0.00     0.000 C
ATOM     70  O5  BDP B   5      10.428   7.760  42.1350  0.00  0.00     0.000 O
ATOM     71   O  BDP B   5      14.028   7.541  41.4080  0.00  0.00     0.000 O
ATOM     73  HD  BDP B   5      14.852   7.791  41.5040  0.00  0.00     0.000 HD
ATOM     73   O  BDP B   5      12.827   6.554  38.9590  0.00  0.00     0.000 O
ATOM     75  HD  BDP B   5      13.650   6.804  39.0550  0.00  0.00     0.000 HD
BRANCH 69 75
ATOM     75   C  BDP B   5       8.431   7.370  40.8500  0.00  0.00     0.000 C
ATOM     76   O  BDP B   5       7.498   8.129  40.5170  0.00  0.00     0.000 OA
ATOM     77   O  BDP B   5       8.237   6.190  41.1950  0.00  0.00     0.000 OA
ENDBRANCH 69 75
BRANCH 65 78
ATOM     78  O3  NAG B   6      11.545   7.786  43.6210  0.00  0.00     0.000 O
BRANCH 78 81
ATOM     79  C1  NAG B   6      11.393   9.637  46.9200  0.00  0.00     0.000 C
ATOM     80  C2  NAG B   6      12.034   8.915  45.7250  0.00  0.00     0.000 C
ATOM     81  C3  NAG B   6      10.982   8.597  44.6750  0.00  0.00     0.000 C
ATOM     82  C4  NAG B   6       9.783   7.879  45.3030  0.00  0.00     0.000 C
ATOM     83  C5  NAG B   6       9.244   8.712  46.4610  0.00  0.00     0.000 C
ATOM     84  O5  NAG B   6      10.294   8.852  47.4180  0.00  0.00     0.000 O
BRANCH 80 87
ATOM     85   N  NAG B   6      13.418   8.520  45.4770  0.00  0.00     0.000 N
ATOM     87  HD  NAG B   6      14.050   8.314  44.9220  0.00  0.00     0.000 HD
ATOM     87   C  NAG B   6      14.314   9.287  44.8430  0.00  0.00     0.000 C
ATOM     88   C  NAG B   6      15.690   8.713  44.7230  0.00  0.00     0.000 C
ATOM     89   O  NAG B   6      14.046  10.396  44.3960  0.00  0.00     0.000 OA
ENDBRANCH 80 87
ATOM     90   O  NAG B   6       6.871   8.905  46.8830  0.00  0.00     0.000 O
ATOM     92  HD  NAG B   6       7.643   9.293  46.9420  0.00  0.00     0.000 HD
ATOM     92   O  NAG B   6       6.871   8.905  46.8830  0.00  0.00     0.000 O
ATOM     94  HD  NAG B   6       7.643   9.293  46.9420  0.00  0.00     0.000 HD
ENDBRANCH 78 81
ENDBRANCH 65 78
ENDBRANCH 64 68
ENDBRANCH 48 64
ENDBRANCH 47 50
ENDBRANCH 34 47
ENDBRANCH 33 37
ENDBRANCH 17 33
ENDBRANCH 16 19
ENDBRANCH 1 16
TORSDOF 16
ENDMDL
MODEL 31
REMARK VINA RESULT:      -5.0     11.241     14.281
ROOT
ATOM      1  C1  BDP B   1      14.471  19.381  37.9920  0.00  0.00     0.000 C
ATOM      2  C2  BDP B   1      14.229  19.546  39.4810  0.00  0.00     0.000 C
ATOM      3  C3  BDP B   1      13.376  20.758  39.7890  0.00  0.00     0.000 C
ATOM      4  C4  BDP B   1      12.657  21.337  38.5760  0.00  0.00     0.000 C
ATOM      5  C5  BDP B   1      13.572  21.487  37.3640  0.00  0.00     0.000 C
ATOM      6  O5  BDP B   1      14.751  20.672  37.4710  0.00  0.00     0.000 O
ATOM      7   O  BDP B   1      13.603  18.371  40.0070  0.00  0.00     0.000 O
ATOM      9  HD  BDP B   1      13.532  17.510  40.0660  0.00  0.00     0.000 HD
ATOM      9   O  BDP B   1      14.189  21.800  40.3520  0.00  0.00     0.000 O
ATOM     11  HD  BDP B   1      14.119  20.939  40.4110  0.00  0.00     0.000 HD
ATOM     11   O  BDP B   1      11.527  20.526  38.2310  0.00  0.00     0.000 O
ATOM     13  HD  BDP B   1      11.457  19.665  38.2910  0.00  0.00     0.000 HD
ENDROOT
BRANCH 5 13
ATOM     13   C  BDP B   1      13.959  22.922  37.2790  0.00  0.00     0.000 C
ATOM     14   O  BDP B   1      13.421  23.725  38.0700  0.00  0.00     0.000 OA
ATOM     15   O  BDP B   1      14.821  23.271  36.4450  0.00  0.00     0.000 OA
ENDBRANCH 5 13
BRANCH 1 16
ATOM     16  O3  NAG B   2      14.162  18.297  37.1170  0.00  0.00     0.000 O
BRANCH 16 19
ATOM     17  C1  NAG B   2      12.323  18.040  33.9850  0.00  0.00     0.000 C
ATOM     18  C2  NAG B   2      13.403  18.707  34.8390  0.00  0.00     0.000 C
ATOM     19  C3  NAG B   2      13.996  17.711  35.8250  0.00  0.00     0.000 C
ATOM     20  C4  NAG B   2      13.140  16.446  35.9370  0.00  0.00     0.000 C
ATOM     21  C5  NAG B   2      11.626  16.670  35.8200  0.00  0.00     0.000 C
ATOM     22  O5  NAG B   2      11.275  17.709  34.8990  0.00  0.00     0.000 O
ATOM     23   O  NAG B   2      13.572  15.516  34.9390  0.00  0.00     0.000 O
ATOM     25  HD  NAG B   2      13.675  16.117  34.3230  0.00  0.00     0.000 HD
ATOM     25   C  NAG B   2      11.021  17.005  37.1910  0.00  0.00     0.000 C
ATOM     26   O  NAG B   2      10.708  15.821  37.9370  0.00  0.00     0.000 O
ATOM     28  HD  NAG B   2      10.811  16.421  37.3220  0.00  0.00     0.000 HD
BRANCH 18 30
ATOM     28   N  NAG B   2      13.927  18.351  33.5210  0.00  0.00     0.000 N
ATOM     30  HD  NAG B   2      14.229  17.681  33.0640  0.00  0.00     0.000 HD
ATOM     30   C  NAG B   2      15.110  18.749  33.0320  0.00  0.00     0.000 C
ATOM     31   C  NAG B   2      15.419  18.259  31.6460  0.00  0.00     0.000 C
ATOM     32   O  NAG B   2      15.886  19.443  33.6470  0.00  0.00     0.000 OA
ENDBRANCH 18 30
BRANCH 17 33
ATOM     33  O4  BDP B   3      11.150  18.088  33.1450  0.00  0.00     0.000 O
BRANCH 33 37
ATOM     34  C1  BDP B   3      10.334  17.508  28.9920  0.00  0.00     0.000 C
ATOM     35  C2  BDP B   3      10.936  18.846  29.4040  0.00  0.00     0.000 C
ATOM     36  C3  BDP B   3      11.581  18.827  30.7860  0.00  0.00     0.000 C
ATOM     37  C4  BDP B   3      10.642  18.125  31.7790  0.00  0.00     0.000 C
ATOM     38  C5  BDP B   3      10.348  16.721  31.2170  0.00  0.00     0.000 C
ATOM     39  O5  BDP B   3       9.556  16.931  30.0480  0.00  0.00     0.000 O
ATOM     40   O  BDP B   3      11.866  19.198  28.3780  0.00  0.00     0.000 O
ATOM     42  HD  BDP B   3      11.124  19.448  28.0070  0.00  0.00     0.000 HD
ATOM     42   O  BDP B   3      11.816  20.186  31.1470  0.00  0.00     0.000 O
ATOM     44  HD  BDP B   3      11.074  20.436  30.7760  0.00  0.00     0.000 HD
BRANCH 38 44
ATOM     44   C  BDP B   3       9.624  15.815  32.1640  0.00  0.00     0.000 C
ATOM     45   O  BDP B   3      10.301  14.998  32.8250  0.00  0.00     0.000 OA
ATOM     46   O  BDP B   3       8.380  15.895  32.2670  0.00  0.00     0.000 OA
ENDBRANCH 38 44
BRANCH 34 47
ATOM     47  O3  NAG B   4       9.117  17.670  28.2660  0.00  0.00     0.000 O
BRANCH 47 50
ATOM     48  C1  NAG B   4       8.465  16.607  24.7180  0.00  0.00     0.000 C
ATOM     49  C2  NAG B   4       8.891  17.530  25.8460  0.00  0.00     0.000 C
ATOM     50  C3  NAG B   4       8.781  16.790  27.1740  0.00  0.00     0.000 C
ATOM     51  C4  NAG B   4       7.385  16.227  27.3870  0.00  0.00     0.000 C
ATOM     52  C5  NAG B   4       6.984  15.365  26.1900  0.00  0.00     0.000 C
ATOM     53  O5  NAG B   4       7.140  16.102  24.9700  0.00  0.00     0.000 O
ATOM     54   O  NAG B   4       7.372  15.456  28.5910  0.00  0.00     0.000 O
ATOM     56  HD  NAG B   4       6.576  15.633  28.3000  0.00  0.00     0.000 HD
ATOM     56   C  NAG B   4       5.542  14.886  26.3100  0.00  0.00     0.000 C
ATOM     57   O  NAG B   4       4.674  16.026  26.3700  0.00  0.00     0.000 O
ATOM     59  HD  NAG B   4       3.878  16.203  26.0790  0.00  0.00     0.000 HD
BRANCH 49 61
ATOM     59   N  NAG B   4      10.139  18.063  25.2980  0.00  0.00     0.000 N
ATOM     61  HD  NAG B   4       9.297  18.263  25.3100  0.00  0.00     0.000 HD
ATOM     61   O  NAG B   4       9.738  20.235  25.7720  0.00  0.00     0.000 OA
ATOM     62   C  NAG B   4      10.486  19.353  25.3740  0.00  0.00     0.000 C
ATOM     63   C  NAG B   4      11.886  19.673  24.9540  0.00  0.00     0.000 C
ENDBRANCH 49 61
BRANCH 48 64
ATOM     64  O4  BDP B   5       8.834  16.521  23.3440  0.00  0.00     0.000 O
BRANCH 64 68
ATOM     65  C1  BDP B   5       8.005  19.285  20.3380  0.00  0.00     0.000 C
ATOM     66  C2  BDP B   5       6.994  18.158  20.5040  0.00  0.00     0.000 C
ATOM     67  C3  BDP B   5       7.180  17.501  21.8660  0.00  0.00     0.000 C
ATOM     68  C4  BDP B   5       8.618  17.021  22.0260  0.00  0.00     0.000 C
ATOM     69  C5  BDP B   5       9.627  18.129  21.7540  0.00  0.00     0.000 C
ATOM     70  O5  BDP B   5       9.339  18.781  20.5050  0.00  0.00     0.000 O
ATOM     71   O  BDP B   5       5.665  18.674  20.3410  0.00  0.00     0.000 O
ATOM     73  HD  BDP B   5       4.885  19.041  20.2540  0.00  0.00     0.000 HD
ATOM     73   O  BDP B   5       6.291  16.387  22.0120  0.00  0.00     0.000 O
ATOM     75  HD  BDP B   5       5.511  16.754  21.9250  0.00  0.00     0.000 HD
BRANCH 69 75
ATOM     75   C  BDP B   5      11.002  17.513  21.6950  0.00  0.00     0.000 C
ATOM     76   O  BDP B   5      11.505  17.066  22.7450  0.00  0.00     0.000 OA
ATOM     77   O  BDP B   5      11.594  17.464  20.6010  0.00  0.00     0.000 OA
ENDBRANCH 69 75
BRANCH 65 78
ATOM     78  O3  NAG B   6       8.574  19.740  19.1070  0.00  0.00     0.000 O
BRANCH 78 81
ATOM     79  C1  NAG B   6       8.511  22.874  16.9840  0.00  0.00     0.000 C
ATOM     80  C2  NAG B   6       8.009  21.545  17.5710  0.00  0.00     0.000 C
ATOM     81  C3  NAG B   6       8.954  21.059  18.6580  0.00  0.00     0.000 C
ATOM     82  C4  NAG B   6      10.401  21.045  18.1570  0.00  0.00     0.000 C
ATOM     83  C5  NAG B   6      10.765  22.424  17.6180  0.00  0.00     0.000 C
ATOM     84  O5  NAG B   6       9.872  22.717  16.5430  0.00  0.00     0.000 O
BRANCH 80 87
ATOM     85   N  NAG B   6       6.617  21.793  17.9370  0.00  0.00     0.000 N
ATOM     87  HD  NAG B   6       5.785  21.865  17.7090  0.00  0.00     0.000 HD
ATOM     87   C  NAG B   6       5.647  20.874  17.8590  0.00  0.00     0.000 C
ATOM     88   C  NAG B   6       4.294  21.318  18.3150  0.00  0.00     0.000 C
ATOM     89   O  NAG B   6       5.839  19.732  17.4570  0.00  0.00     0.000 OA
ENDBRANCH 80 87
ATOM     90   O  NAG B   6      12.953  23.387  17.9820  0.00  0.00     0.000 O
ATOM     92  HD  NAG B   6      12.109  23.547  17.8690  0.00  0.00     0.000 HD
ATOM     92   O  NAG B   6      12.953  23.387  17.9820  0.00  0.00     0.000 O
ATOM     94  HD  NAG B   6      12.109  23.547  17.8690  0.00  0.00     0.000 HD
ENDBRANCH 78 81
ENDBRANCH 65 78
ENDBRANCH 64 68
ENDBRANCH 48 64
ENDBRANCH 47 50
ENDBRANCH 34 47
ENDBRANCH 33 37
ENDBRANCH 17 33
ENDBRANCH 16 19
ENDBRANCH 1 16
TORSDOF 16
ENDMDL
MODEL 32
REMARK VINA RESULT:      -4.8     10.239     12.949
ROOT
ATOM      1  C1  BDP B   1      14.726  17.046  39.7060  0.00  0.00     0.000 C
ATOM      2  C2  BDP B   1      14.847  17.699  41.0710  0.00  0.00     0.000 C
ATOM      3  C3  BDP B   1      14.746  19.208  40.9930  0.00  0.00     0.000 C
ATOM      4  C4  BDP B   1      14.202  19.726  39.6660  0.00  0.00     0.000 C
ATOM      5  C5  BDP B   1      14.859  19.063  38.4590  0.00  0.00     0.000 C
ATOM      6  O5  BDP B   1      15.501  17.823  38.8040  0.00  0.00     0.000 O
ATOM      7   O  BDP B   1      13.831  17.194  41.9440  0.00  0.00     0.000 O
ATOM      9  HD  BDP B   1      13.366  16.540  42.2710  0.00  0.00     0.000 HD
ATOM      9   O  BDP B   1      16.041  19.796  41.1930  0.00  0.00     0.000 O
ATOM     11  HD  BDP B   1      15.576  19.142  41.5200  0.00  0.00     0.000 HD
ATOM     11   O  BDP B   1      12.782  19.545  39.6040  0.00  0.00     0.000 O
ATOM     13  HD  BDP B   1      12.318  18.891  39.9300  0.00  0.00     0.000 HD
ENDROOT
BRANCH 5 13
ATOM     13   C  BDP B   1      15.868  20.019  37.9260  0.00  0.00     0.000 C
ATOM     14   O  BDP B   1      16.343  20.871  38.7060  0.00  0.00     0.000 OA
ATOM     15   O  BDP B   1      16.224  19.924  36.7320  0.00  0.00     0.000 OA
ENDBRANCH 5 13
BRANCH 1 16
ATOM     16  O3  NAG B   2      13.793  16.084  39.2170  0.00  0.00     0.000 O
BRANCH 16 19
ATOM     17  C1  NAG B   2      11.961  15.373  36.1530  0.00  0.00     0.000 C
ATOM     18  C2  NAG B   2      13.256  15.771  36.8620  0.00  0.00     0.000 C
ATOM     19  C3  NAG B   2      13.320  15.147  38.2480  0.00  0.00     0.000 C
ATOM     20  C4  NAG B   2      11.961  14.594  38.6850  0.00  0.00     0.000 C
ATOM     21  C5  NAG B   2      10.746  15.405  38.2140  0.00  0.00     0.000 C
ATOM     22  O5  NAG B   2      10.915  15.981  36.9130  0.00  0.00     0.000 O
ATOM     23   O  NAG B   2      11.851  13.243  38.2250  0.00  0.00     0.000 O
ATOM     25  HD  NAG B   2      12.214  13.402  37.4550  0.00  0.00     0.000 HD
ATOM     25   C  NAG B   2      10.426  16.529  39.2100  0.00  0.00     0.000 C
ATOM     26   O  NAG B   2       9.600  16.065  40.2870  0.00  0.00     0.000 O
ATOM     28  HD  NAG B   2       9.962  16.224  39.5170  0.00  0.00     0.000 HD
BRANCH 18 30
ATOM     28   N  NAG B   2      13.506  14.771  35.8240  0.00  0.00     0.000 N
ATOM     30  HD  NAG B   2      13.362  13.940  35.6280  0.00  0.00     0.000 HD
ATOM     30   C  NAG B   2      14.707  14.255  35.5280  0.00  0.00     0.000 C
ATOM     31   C  NAG B   2      14.705  13.249  34.4120  0.00  0.00     0.000 C
ATOM     32   O  NAG B   2      15.724  14.558  36.1080  0.00  0.00     0.000 OA
ENDBRANCH 18 30
BRANCH 17 33
ATOM     33  O4  BDP B   3      10.933  15.580  35.1600  0.00  0.00     0.000 O
BRANCH 33 37
ATOM     34  C1  BDP B   3      10.508  16.803  31.0900  0.00  0.00     0.000 C
ATOM     35  C2  BDP B   3      11.203  17.772  32.0400  0.00  0.00     0.000 C
ATOM     36  C3  BDP B   3      11.691  17.119  33.3280  0.00  0.00     0.000 C
ATOM     37  C4  BDP B   3      10.581  16.224  33.9000  0.00  0.00     0.000 C
ATOM     38  C5  BDP B   3      10.199  15.211  32.8040  0.00  0.00     0.000 C
ATOM     39  O5  BDP B   3       9.564  15.975  31.7780  0.00  0.00     0.000 O
ATOM     40   O  BDP B   3      12.270  18.364  31.2960  0.00  0.00     0.000 O
ATOM     42  HD  BDP B   3      11.604  18.842  31.0180  0.00  0.00     0.000 HD
ATOM     42   O  BDP B   3      12.031  18.179  34.2210  0.00  0.00     0.000 O
ATOM     44  HD  BDP B   3      11.365  18.657  33.9420  0.00  0.00     0.000 HD
BRANCH 38 44
ATOM     44   C  BDP B   3       9.285  14.118  33.2620  0.00  0.00     0.000 C
ATOM     45   O  BDP B   3       8.106  14.423  33.5470  0.00  0.00     0.000 OA
ATOM     46   O  BDP B   3       9.716  12.947  33.3470  0.00  0.00     0.000 OA
ENDBRANCH 38 44
BRANCH 34 47
ATOM     47  O3  NAG B   4       9.401  17.409  30.4260  0.00  0.00     0.000 O
BRANCH 47 50
ATOM     48  C1  NAG B   4       9.007  16.943  26.7140  0.00  0.00     0.000 C
ATOM     49  C2  NAG B   4       9.612  17.476  28.0010  0.00  0.00     0.000 C
ATOM     50  C3  NAG B   4       8.885  16.864  29.1940  0.00  0.00     0.000 C
ATOM     51  C4  NAG B   4       7.386  17.106  29.1200  0.00  0.00     0.000 C
ATOM     52  C5  NAG B   4       6.847  16.614  27.7770  0.00  0.00     0.000 C
ATOM     53  O5  NAG B   4       7.588  17.195  26.6970  0.00  0.00     0.000 O
ATOM     54   O  NAG B   4       6.750  16.421  30.2020  0.00  0.00     0.000 O
ATOM     56  HD  NAG B   4       6.228  16.995  29.8180  0.00  0.00     0.000 HD
ATOM     56   C  NAG B   4       5.369  16.953  27.6160  0.00  0.00     0.000 C
ATOM     57   O  NAG B   4       5.206  18.376  27.6850  0.00  0.00     0.000 O
ATOM     59  HD  NAG B   4       4.684  18.950  27.3010  0.00  0.00     0.000 HD
BRANCH 49 61
ATOM     59   N  NAG B   4      11.018  17.337  27.6220  0.00  0.00     0.000 N
ATOM     61  HD  NAG B   4      10.399  17.942  27.6110  0.00  0.00     0.000 HD
ATOM     61   O  NAG B   4      11.708  19.344  28.3960  0.00  0.00     0.000 OA
ATOM     62   C  NAG B   4      11.955  18.247  27.9160  0.00  0.00     0.000 C
ATOM     63   C  NAG B   4      13.366  17.835  27.6400  0.00  0.00     0.000 C
ENDBRANCH 49 61
BRANCH 48 64
ATOM     64  O4  BDP B   5       9.540  16.716  25.4130  0.00  0.00     0.000 O
BRANCH 64 68
ATOM     65  C1  BDP B   5       8.039  18.057  21.7640  0.00  0.00     0.000 C
ATOM     66  C2  BDP B   5       7.518  16.709  22.2440  0.00  0.00     0.000 C
ATOM     67  C3  BDP B   5       7.798  16.553  23.7330  0.00  0.00     0.000 C
ATOM     68  C4  BDP B   5       9.287  16.732  24.0090  0.00  0.00     0.000 C
ATOM     69  C5  BDP B   5       9.825  18.035  23.4330  0.00  0.00     0.000 C
ATOM     70  O5  BDP B   5       9.441  18.176  22.0540  0.00  0.00     0.000 O
ATOM     71   O  BDP B   5       6.116  16.603  21.9540  0.00  0.00     0.000 O
ATOM     73  HD  BDP B   5       5.269  16.599  21.7740  0.00  0.00     0.000 HD
ATOM     73   O  BDP B   5       7.385  15.259  24.1900  0.00  0.00     0.000 O
ATOM     75  HD  BDP B   5       6.538  15.255  24.0100  0.00  0.00     0.000 HD
BRANCH 69 75
ATOM     75   C  BDP B   5      11.329  18.013  23.5370  0.00  0.00     0.000 C
ATOM     76   O  BDP B   5      11.881  18.723  24.4020  0.00  0.00     0.000 OA
ATOM     77   O  BDP B   5      11.976  17.287  22.7610  0.00  0.00     0.000 OA
ENDBRANCH 69 75
BRANCH 65 78
ATOM     78  O3  NAG B   6       8.517  18.363  20.4510  0.00  0.00     0.000 O
BRANCH 78 81
ATOM     79  C1  NAG B   6       7.947  20.958  17.7540  0.00  0.00     0.000 C
ATOM     80  C2  NAG B   6       7.683  19.695  18.5890  0.00  0.00     0.000 C
ATOM     81  C3  NAG B   6       8.657  19.620  19.7530  0.00  0.00     0.000 C
ATOM     82  C4  NAG B   6      10.101  19.790  19.2680  0.00  0.00     0.000 C
ATOM     83  C5  NAG B   6      10.217  21.084  18.4700  0.00  0.00     0.000 C
ATOM     84  O5  NAG B   6       9.329  20.986  17.3560  0.00  0.00     0.000 O
BRANCH 80 87
ATOM     85   N  NAG B   6       6.239  19.733  18.8040  0.00  0.00     0.000 N
ATOM     87  HD  NAG B   6       5.437  19.545  18.5360  0.00  0.00     0.000 HD
ATOM     87   C  NAG B   6       5.481  18.646  18.9970  0.00  0.00     0.000 C
ATOM     88   C  NAG B   6       4.027  18.903  19.2340  0.00  0.00     0.000 C
ATOM     89   O  NAG B   6       5.934  17.507  18.9980  0.00  0.00     0.000 OA
ENDBRANCH 80 87
ATOM     90   O  NAG B   6      12.166  22.505  18.6430  0.00  0.00     0.000 O
ATOM     92  HD  NAG B   6      11.313  22.473  18.4980  0.00  0.00     0.000 HD
ATOM     92   O  NAG B   6      12.166  22.505  18.6430  0.00  0.00     0.000 O
ATOM     94  HD  NAG B   6      11.313  22.473  18.4980  0.00  0.00     0.000 HD
ENDBRANCH 78 81
ENDBRANCH 65 78
ENDBRANCH 64 68
ENDBRANCH 48 64
ENDBRANCH 47 50
ENDBRANCH 34 47
ENDBRANCH 33 37
ENDBRANCH 17 33
ENDBRANCH 16 19
ENDBRANCH 1 16
TORSDOF 16
ENDMDL
MODEL 33
REMARK VINA RESULT:      -4.8      5.819      8.315
ROOT
ATOM      1  C1  BDP B   1      15.790  16.237  41.0950  0.00  0.00     0.000 C
ATOM      2  C2  BDP B   1      15.098  16.517  42.4170  0.00  0.00     0.000 C
ATOM      3  C3  BDP B   1      15.087  17.993  42.7530  0.00  0.00     0.000 C
ATOM      4  C4  BDP B   1      15.432  18.900  41.5780  0.00  0.00     0.000 C
ATOM      5  C5  BDP B   1      16.661  18.427  40.8070  0.00  0.00     0.000 C
ATOM      6  O5  BDP B   1      16.958  17.043  41.0590  0.00  0.00     0.000 O
ATOM      7   O  BDP B   1      13.755  16.022  42.3790  0.00  0.00     0.000 O
ATOM      9  HD  BDP B   1      13.177  15.409  42.1780  0.00  0.00     0.000 HD
ATOM      9   O  BDP B   1      16.028  18.264  43.8040  0.00  0.00     0.000 O
ATOM     11  HD  BDP B   1      15.449  17.651  43.6030  0.00  0.00     0.000 HD
ATOM     11   O  BDP B   1      14.315  19.010  40.6870  0.00  0.00     0.000 O
ATOM     13  HD  BDP B   1      13.737  18.397  40.4860  0.00  0.00     0.000 HD
ENDROOT
BRANCH 5 13
ATOM     13   C  BDP B   1      17.806  19.274  41.2410  0.00  0.00     0.000 C
ATOM     14   O  BDP B   1      18.031  20.328  40.6110  0.00  0.00     0.000 OA
ATOM     15   O  BDP B   1      18.484  18.920  42.2290  0.00  0.00     0.000 OA
ENDBRANCH 5 13
BRANCH 1 16
ATOM     16  O3  NAG B   2      15.305  15.609  39.9100  0.00  0.00     0.000 O
BRANCH 16 19
ATOM     17  C1  NAG B   2      15.769  13.687  36.8530  0.00  0.00     0.000 C
ATOM     18  C2  NAG B   2      16.199  14.036  38.2780  0.00  0.00     0.000 C
ATOM     19  C3  NAG B   2      14.999  14.467  39.1080  0.00  0.00     0.000 C
ATOM     20  C4  NAG B   2      13.779  14.763  38.2320  0.00  0.00     0.000 C
ATOM     21  C5  NAG B   2      14.094  15.397  36.8690  0.00  0.00     0.000 C
ATOM     22  O5  NAG B   2      15.312  14.918  36.2870  0.00  0.00     0.000 O
ATOM     23   O  NAG B   2      13.048  13.547  38.0440  0.00  0.00     0.000 O
ATOM     25  HD  NAG B   2      13.754  13.056  37.9420  0.00  0.00     0.000 HD
ATOM     25   C  NAG B   2      14.176  16.925  36.9900  0.00  0.00     0.000 C
ATOM     26   O  NAG B   2      12.882  17.536  36.8860  0.00  0.00     0.000 O
ATOM     28  HD  NAG B   2      13.588  17.045  36.7840  0.00  0.00     0.000 HD
BRANCH 18 30
ATOM     28   N  NAG B   2      16.070  12.588  38.1170  0.00  0.00     0.000 N
ATOM     30  HD  NAG B   2      15.483  11.951  38.1130  0.00  0.00     0.000 HD
ATOM     30   C  NAG B   2      16.520  11.676  38.9900  0.00  0.00     0.000 C
ATOM     31   C  NAG B   2      16.276  10.247  38.5940  0.00  0.00     0.000 C
ATOM     32   O  NAG B   2      17.077  11.961  40.0240  0.00  0.00     0.000 OA
ENDBRANCH 18 30
BRANCH 17 33
ATOM     33  O4  BDP B   3      16.039  13.504  35.4460  0.00  0.00     0.000 O
BRANCH 33 37
ATOM     34  C1  BDP B   3      17.450  11.587  31.8990  0.00  0.00     0.000 C
ATOM     35  C2  BDP B   3      15.973  11.427  32.2380  0.00  0.00     0.000 C
ATOM     36  C3  BDP B   3      15.461  12.453  33.2410  0.00  0.00     0.000 C
ATOM     37  C4  BDP B   3      16.456  12.571  34.4060  0.00  0.00     0.000 C
ATOM     38  C5  BDP B   3      17.827  12.931  33.8020  0.00  0.00     0.000 C
ATOM     39  O5  BDP B   3      18.245  11.774  33.0770  0.00  0.00     0.000 O
ATOM     40   O  BDP B   3      15.270  11.487  30.9950  0.00  0.00     0.000 O
ATOM     42  HD  BDP B   3      15.536  10.663  30.9820  0.00  0.00     0.000 HD
ATOM     42   O  BDP B   3      14.183  11.996  33.6790  0.00  0.00     0.000 O
ATOM     44  HD  BDP B   3      14.449  11.172  33.6660  0.00  0.00     0.000 HD
BRANCH 38 44
ATOM     44   C  BDP B   3      18.870  13.301  34.8100  0.00  0.00     0.000 C
ATOM     45   O  BDP B   3      19.353  14.453  34.7570  0.00  0.00     0.000 OA
ATOM     46   O  BDP B   3      19.227  12.462  35.6660  0.00  0.00     0.000 OA
ENDBRANCH 38 44
BRANCH 34 47
ATOM     47  O3  NAG B   4      18.100  10.328  31.7350  0.00  0.00     0.000 O
BRANCH 47 50
ATOM     48  C1  NAG B   4      20.421   9.884  28.8080  0.00  0.00     0.000 C
ATOM     49  C2  NAG B   4      19.096  10.061  29.5290  0.00  0.00     0.000 C
ATOM     50  C3  NAG B   4      19.351  10.226  31.0230  0.00  0.00     0.000 C
ATOM     51  C4  NAG B   4      20.161   9.067  31.5840  0.00  0.00     0.000 C
ATOM     52  C5  NAG B   4      21.447   8.894  30.7760  0.00  0.00     0.000 C
ATOM     53  O5  NAG B   4      21.147   8.778  29.3790  0.00  0.00     0.000 O
ATOM     54   O  NAG B   4      20.459   9.330  32.9580  0.00  0.00     0.000 O
ATOM     56  HD  NAG B   4      20.608   8.506  32.7350  0.00  0.00     0.000 HD
ATOM     56   C  NAG B   4      22.224   7.664  31.2300  0.00  0.00     0.000 C
ATOM     57   O  NAG B   4      21.405   6.500  31.0500  0.00  0.00     0.000 O
ATOM     59  HD  NAG B   4      21.554   5.677  30.8280  0.00  0.00     0.000 HD
BRANCH 49 61
ATOM     59   N  NAG B   4      18.476  11.055  28.6520  0.00  0.00     0.000 N
ATOM     61  HD  NAG B   4      18.506  10.193  28.7400  0.00  0.00     0.000 HD
ATOM     61   O  NAG B   4      16.450  10.067  28.5110  0.00  0.00     0.000 OA
ATOM     62   C  NAG B   4      17.192  11.011  28.2800  0.00  0.00     0.000 C
ATOM     63   C  NAG B   4      16.684  12.221  27.5620  0.00  0.00     0.000 C
ENDBRANCH 49 61
BRANCH 48 64
ATOM     64  O4  BDP B   5      20.860  10.208  27.4930  0.00  0.00     0.000 O
BRANCH 64 68
ATOM     65  C1  BDP B   5      20.377  10.363  23.3560  0.00  0.00     0.000 C
ATOM     66  C2  BDP B   5      19.629   9.247  24.0730  0.00  0.00     0.000 C
ATOM     67  C3  BDP B   5      19.542   9.563  25.5610  0.00  0.00     0.000 C
ATOM     68  C4  BDP B   5      20.938   9.787  26.1320  0.00  0.00     0.000 C
ATOM     69  C5  BDP B   5      21.721  10.830  25.3440  0.00  0.00     0.000 C
ATOM     70  O5  BDP B   5      21.679  10.537  23.9360  0.00  0.00     0.000 O
ATOM     71   O  BDP B   5      18.327   9.086  23.4890  0.00  0.00     0.000 O
ATOM     73  HD  BDP B   5      17.548   9.045  23.1130  0.00  0.00     0.000 HD
ATOM     73   O  BDP B   5      18.910   8.489  26.2670  0.00  0.00     0.000 O
ATOM     75  HD  BDP B   5      18.131   8.447  25.8920  0.00  0.00     0.000 HD
BRANCH 69 75
ATOM     75   C  BDP B   5      23.151  10.808  25.8200  0.00  0.00     0.000 C
ATOM     76   O  BDP B   5      23.828  11.853  25.7340  0.00  0.00     0.000 OA
ATOM     77   O  BDP B   5      23.615   9.752  26.2900  0.00  0.00     0.000 OA
ENDBRANCH 69 75
BRANCH 65 78
ATOM     78  O3  NAG B   6      21.171  10.228  22.1740  0.00  0.00     0.000 O
BRANCH 78 81
ATOM     79  C1  NAG B   6      21.925  11.498  18.6870  0.00  0.00     0.000 C
ATOM     80  C2  NAG B   6      21.399  10.539  19.7680  0.00  0.00     0.000 C
ATOM     81  C3  NAG B   6      21.519  11.177  21.1420  0.00  0.00     0.000 C
ATOM     82  C4  NAG B   6      22.938  11.707  21.3750  0.00  0.00     0.000 C
ATOM     83  C5  NAG B   6      23.319  12.650  20.2400  0.00  0.00     0.000 C
ATOM     84  O5  NAG B   6      23.263  11.906  19.0220  0.00  0.00     0.000 O
BRANCH 80 87
ATOM     85   N  NAG B   6      20.585   9.406  20.1990  0.00  0.00     0.000 N
ATOM     87  HD  NAG B   6      19.826   9.091  20.4730  0.00  0.00     0.000 HD
ATOM     87   C  NAG B   6      19.533   8.936  19.5170  0.00  0.00     0.000 C
ATOM     88   C  NAG B   6      18.853   7.744  20.1130  0.00  0.00     0.000 C
ATOM     89   O  NAG B   6      19.146   9.428  18.4640  0.00  0.00     0.000 OA
ENDBRANCH 80 87
ATOM     90   O  NAG B   6      24.596  14.664  20.6440  0.00  0.00     0.000 O
ATOM     92  HD  NAG B   6      23.997  14.282  20.1470  0.00  0.00     0.000 HD
ATOM     92   O  NAG B   6      24.596  14.664  20.6440  0.00  0.00     0.000 O
ATOM     94  HD  NAG B   6      23.997  14.282  20.1470  0.00  0.00     0.000 HD
ENDBRANCH 78 81
ENDBRANCH 65 78
ENDBRANCH 64 68
ENDBRANCH 48 64
ENDBRANCH 47 50
ENDBRANCH 34 47
ENDBRANCH 33 37
ENDBRANCH 17 33
ENDBRANCH 16 19
ENDBRANCH 1 16
TORSDOF 16
ENDMDL
MODEL 34
REMARK VINA RESULT:      -4.8     11.412     15.194
ROOT
ATOM      1  C1  BDP B   1      14.705  21.481  38.0990  0.00  0.00     0.000 C
ATOM      2  C2  BDP B   1      13.590  22.199  38.8380  0.00  0.00     0.000 C
ATOM      3  C3  BDP B   1      12.936  23.266  37.9860  0.00  0.00     0.000 C
ATOM      4  C4  BDP B   1      13.266  23.164  36.5010  0.00  0.00     0.000 C
ATOM      5  C5  BDP B   1      14.755  22.958  36.2410  0.00  0.00     0.000 C
ATOM      6  O5  BDP B   1      15.447  22.473  37.4040  0.00  0.00     0.000 O
ATOM      7   O  BDP B   1      12.603  21.254  39.2670  0.00  0.00     0.000 O
ATOM      9  HD  BDP B   1      12.381  20.495  39.6190  0.00  0.00     0.000 HD
ATOM      9   O  BDP B   1      13.341  24.568  38.4350  0.00  0.00     0.000 O
ATOM     11  HD  BDP B   1      13.119  23.809  38.7880  0.00  0.00     0.000 HD
ATOM     11   O  BDP B   1      12.518  22.104  35.8940  0.00  0.00     0.000 O
ATOM     13  HD  BDP B   1      12.296  21.345  36.2470  0.00  0.00     0.000 HD
ENDROOT
BRANCH 5 13
ATOM     13   C  BDP B   1      15.318  24.276  35.8350  0.00  0.00     0.000 C
ATOM     14   O  BDP B   1      15.598  25.098  36.7320  0.00  0.00     0.000 OA
ATOM     15   O  BDP B   1      15.516  24.505  34.6230  0.00  0.00     0.000 OA
ENDBRANCH 5 13
BRANCH 1 16
ATOM     16  O3  NAG B   2      14.872  20.099  37.7890  0.00  0.00     0.000 O
BRANCH 16 19
ATOM     17  C1  NAG B   2      14.542  18.387  34.5920  0.00  0.00     0.000 C
ATOM     18  C2  NAG B   2      15.202  19.459  35.4610  0.00  0.00     0.000 C
ATOM     19  C3  NAG B   2      15.229  19.024  36.9190  0.00  0.00     0.000 C
ATOM     20  C4  NAG B   2      14.307  17.827  37.1710  0.00  0.00     0.000 C
ATOM     21  C5  NAG B   2      13.015  17.815  36.3430  0.00  0.00     0.000 C
ATOM     22  O5  NAG B   2      13.180  18.343  35.0220  0.00  0.00     0.000 O
ATOM     23   O  NAG B   2      15.047  16.626  36.9330  0.00  0.00     0.000 O
ATOM     25  HD  NAG B   2      15.454  16.931  36.2330  0.00  0.00     0.000 HD
ATOM     25   C  NAG B   2      11.909  18.609  37.0540  0.00  0.00     0.000 C
ATOM     26   O  NAG B   2      11.210  17.804  38.0130  0.00  0.00     0.000 O
ATOM     28  HD  NAG B   2      11.616  18.110  37.3120  0.00  0.00     0.000 HD
BRANCH 18 30
ATOM     28   N  NAG B   2      16.448  19.760  34.7570  0.00  0.00     0.000 N
ATOM     30  HD  NAG B   2      16.778  19.854  33.9620  0.00  0.00     0.000 HD
ATOM     30   C  NAG B   2      17.517  18.952  34.7100  0.00  0.00     0.000 C
ATOM     31   C  NAG B   2      18.682  19.491  33.9300  0.00  0.00     0.000 C
ATOM     32   O  NAG B   2      17.556  17.867  35.2410  0.00  0.00     0.000 OA
ENDBRANCH 18 30
BRANCH 17 33
ATOM     33  O4  BDP B   3      13.852  17.958  33.3990  0.00  0.00     0.000 O
BRANCH 33 37
ATOM     34  C1  BDP B   3      10.742  17.645  30.4880  0.00  0.00     0.000 C
ATOM     35  C2  BDP B   3      11.221  19.046  30.8480  0.00  0.00     0.000 C
ATOM     36  C3  BDP B   3      12.577  19.068  31.5440  0.00  0.00     0.000 C
ATOM     37  C4  BDP B   3      12.607  17.994  32.6430  0.00  0.00     0.000 C
ATOM     38  C5  BDP B   3      12.280  16.646  31.9730  0.00  0.00     0.000 C
ATOM     39  O5  BDP B   3      10.910  16.732  31.5790  0.00  0.00     0.000 O
ATOM     40   O  BDP B   3      11.226  19.792  29.6300  0.00  0.00     0.000 O
ATOM     42  HD  BDP B   3      10.386  19.837  29.8350  0.00  0.00     0.000 HD
ATOM     42   O  BDP B   3      12.742  20.380  32.0800  0.00  0.00     0.000 O
ATOM     44  HD  BDP B   3      11.902  20.425  32.2850  0.00  0.00     0.000 HD
BRANCH 38 44
ATOM     44   C  BDP B   3      12.479  15.452  32.8550  0.00  0.00     0.000 C
ATOM     45   O  BDP B   3      11.745  15.339  33.8610  0.00  0.00     0.000 OA
ATOM     46   O  BDP B   3      13.362  14.614  32.5700  0.00  0.00     0.000 OA
ENDBRANCH 38 44
BRANCH 34 47
ATOM     47  O3  NAG B   4       9.334  17.500  30.6640  0.00  0.00     0.000 O
BRANCH 47 50
ATOM     48  C1  NAG B   4       7.344  15.800  27.9620  0.00  0.00     0.000 C
ATOM     49  C2  NAG B   4       8.166  16.898  28.6140  0.00  0.00     0.000 C
ATOM     50  C3  NAG B   4       8.608  16.445  30.0010  0.00  0.00     0.000 C
ATOM     51  C4  NAG B   4       7.422  16.029  30.8570  0.00  0.00     0.000 C
ATOM     52  C5  NAG B   4       6.594  14.975  30.1210  0.00  0.00     0.000 C
ATOM     53  O5  NAG B   4       6.238  15.443  28.8140  0.00  0.00     0.000 O
ATOM     54   O  NAG B   4       7.904  15.514  32.1010  0.00  0.00     0.000 O
ATOM     56  HD  NAG B   4       7.055  15.683  32.1160  0.00  0.00     0.000 HD
ATOM     56   C  NAG B   4       5.329  14.626  30.8950  0.00  0.00     0.000 C
ATOM     57   O  NAG B   4       4.535  15.810  31.0520  0.00  0.00     0.000 O
ATOM     59  HD  NAG B   4       3.685  15.978  31.0680  0.00  0.00     0.000 HD
BRANCH 49 61
ATOM     59   N  NAG B   4       9.072  17.227  27.5130  0.00  0.00     0.000 N
ATOM     61  HD  NAG B   4       8.305  17.484  27.8220  0.00  0.00     0.000 HD
ATOM     61   O  NAG B   4       8.863  19.472  27.6510  0.00  0.00     0.000 OA
ATOM     62   C  NAG B   4       9.398  18.481  27.1760  0.00  0.00     0.000 C
ATOM     63   C  NAG B   4      10.498  18.616  26.1710  0.00  0.00     0.000 C
ENDBRANCH 49 61
BRANCH 48 64
ATOM     64  O4  BDP B   5       7.138  15.418  26.6050  0.00  0.00     0.000 O
BRANCH 64 68
ATOM     65  C1  BDP B   5       5.324  17.652  23.5900  0.00  0.00     0.000 C
ATOM     66  C2  BDP B   5       4.403  16.743  24.3930  0.00  0.00     0.000 C
ATOM     67  C3  BDP B   5       5.087  16.338  25.6920  0.00  0.00     0.000 C
ATOM     68  C4  BDP B   5       6.433  15.685  25.3940  0.00  0.00     0.000 C
ATOM     69  C5  BDP B   5       7.309  16.555  24.5030  0.00  0.00     0.000 C
ATOM     70  O5  BDP B   5       6.576  16.993  23.3450  0.00  0.00     0.000 O
ATOM     71   O  BDP B   5       3.157  17.414  24.6370  0.00  0.00     0.000 O
ATOM     73  HD  BDP B   5       2.434  17.871  24.7730  0.00  0.00     0.000 HD
ATOM     73   O  BDP B   5       4.269  15.420  26.4270  0.00  0.00     0.000 O
ATOM     75  HD  BDP B   5       3.546  15.877  26.5620  0.00  0.00     0.000 HD
BRANCH 69 75
ATOM     75   C  BDP B   5       8.499  15.739  24.0660  0.00  0.00     0.000 C
ATOM     76   O  BDP B   5       9.589  16.317  23.8840  0.00  0.00     0.000 OA
ATOM     77   O  BDP B   5       8.361  14.512  23.9030  0.00  0.00     0.000 OA
ENDBRANCH 69 75
BRANCH 65 78
ATOM     78  O3  NAG B   6       5.367  17.773  22.1660  0.00  0.00     0.000 O
BRANCH 78 81
ATOM     79  C1  NAG B   6       4.993  20.551  19.6210  0.00  0.00     0.000 C
ATOM     80  C2  NAG B   6       4.552  19.500  20.6530  0.00  0.00     0.000 C
ATOM     81  C3  NAG B   6       5.767  18.865  21.3100  0.00  0.00     0.000 C
ATOM     82  C4  NAG B   6       6.760  18.366  20.2550  0.00  0.00     0.000 C
ATOM     83  C5  NAG B   6       7.116  19.511  19.3130  0.00  0.00     0.000 C
ATOM     84  O5  NAG B   6       5.909  19.949  18.6890  0.00  0.00     0.000 O
BRANCH 80 87
ATOM     85   N  NAG B   6       3.138  19.261  20.9270  0.00  0.00     0.000 N
ATOM     87  HD  NAG B   6       2.522  18.858  21.3830  0.00  0.00     0.000 HD
ATOM     87   C  NAG B   6       2.529  19.601  22.0700  0.00  0.00     0.000 C
ATOM     88   C  NAG B   6       1.065  19.301  22.1390  0.00  0.00     0.000 C
ATOM     89   O  NAG B   6       3.112  20.138  23.0040  0.00  0.00     0.000 OA
ENDBRANCH 80 87
ATOM     90   O  NAG B   6       9.365  19.805  18.4740  0.00  0.00     0.000 O
ATOM     92  HD  NAG B   6       8.627  20.198  18.7000  0.00  0.00     0.000 HD
ATOM     92   O  NAG B   6       9.365  19.805  18.4740  0.00  0.00     0.000 O
ATOM     94  HD  NAG B   6       8.627  20.198  18.7000  0.00  0.00     0.000 HD
ENDBRANCH 78 81
ENDBRANCH 65 78
ENDBRANCH 64 68
ENDBRANCH 48 64
ENDBRANCH 47 50
ENDBRANCH 34 47
ENDBRANCH 33 37
ENDBRANCH 17 33
ENDBRANCH 16 19
ENDBRANCH 1 16
TORSDOF 16
ENDMDL
MODEL 35
REMARK VINA RESULT:      -4.7     11.633     14.966
ROOT
ATOM      1  C1  BDP B   1      12.166  21.360  37.4190  0.00  0.00     0.000 C
ATOM      2  C2  BDP B   1      10.810  21.544  38.0770  0.00  0.00     0.000 C
ATOM      3  C3  BDP B   1      10.003  22.644  37.4200  0.00  0.00     0.000 C
ATOM      4  C4  BDP B   1      10.538  23.080  36.0610  0.00  0.00     0.000 C
ATOM      5  C5  BDP B   1      12.046  23.307  36.0650  0.00  0.00     0.000 C
ATOM      6  O5  BDP B   1      12.689  22.658  37.1760  0.00  0.00     0.000 O
ATOM      7   O  BDP B   1      10.076  20.316  38.0320  0.00  0.00     0.000 O
ATOM      9  HD  BDP B   1      10.029  19.456  38.1190  0.00  0.00     0.000 HD
ATOM      9   O  BDP B   1       9.971  23.802  38.2690  0.00  0.00     0.000 O
ATOM     11  HD  BDP B   1       9.924  22.942  38.3560  0.00  0.00     0.000 HD
ATOM     11   O  BDP B   1      10.196  22.116  35.0570  0.00  0.00     0.000 O
ATOM     13  HD  BDP B   1      10.149  21.256  35.1450  0.00  0.00     0.000 HD
ENDROOT
BRANCH 5 13
ATOM     13   C  BDP B   1      12.271  24.776  36.1440  0.00  0.00     0.000 C
ATOM     14   O  BDP B   1      12.258  25.315  37.2700  0.00  0.00     0.000 OA
ATOM     15   O  BDP B   1      12.490  25.415  35.0920  0.00  0.00     0.000 OA
ENDBRANCH 5 13
BRANCH 1 16
ATOM     16  O3  NAG B   2      12.747  20.215  36.7980  0.00  0.00     0.000 O
BRANCH 16 19
ATOM     17  C1  NAG B   2      13.209  19.478  33.2630  0.00  0.00     0.000 C
ATOM     18  C2  NAG B   2      13.452  20.382  34.4720  0.00  0.00     0.000 C
ATOM     19  C3  NAG B   2      13.474  19.564  35.7550  0.00  0.00     0.000 C
ATOM     20  C4  NAG B   2      12.918  18.154  35.5390  0.00  0.00     0.000 C
ATOM     21  C5  NAG B   2      11.762  18.057  34.5340  0.00  0.00     0.000 C
ATOM     22  O5  NAG B   2      11.884  18.969  33.4360  0.00  0.00     0.000 O
ATOM     23   O  NAG B   2      13.991  17.300  35.1290  0.00  0.00     0.000 O
ATOM     25  HD  NAG B   2      14.352  17.888  34.6060  0.00  0.00     0.000 HD
ATOM     25   C  NAG B   2      10.417  18.306  35.2300  0.00  0.00     0.000 C
ATOM     26   O  NAG B   2       9.896  17.108  35.8240  0.00  0.00     0.000 O
ATOM     28  HD  NAG B   2      10.258  17.696  35.3010  0.00  0.00     0.000 HD
BRANCH 18 30
ATOM     28   N  NAG B   2      14.704  20.102  33.7690  0.00  0.00     0.000 N
ATOM     30  HD  NAG B   2      15.311  19.493  33.6720  0.00  0.00     0.000 HD
ATOM     30   C  NAG B   2      15.872  20.715  34.0090  0.00  0.00     0.000 C
ATOM     31   C  NAG B   2      17.013  20.258  33.1450  0.00  0.00     0.000 C
ATOM     32   O  NAG B   2      16.017  21.566  34.8550  0.00  0.00     0.000 OA
ENDBRANCH 18 30
BRANCH 17 33
ATOM     33  O4  BDP B   3      12.780  19.253  31.9020  0.00  0.00     0.000 O
BRANCH 33 37
ATOM     34  C1  BDP B   3      10.136  18.701  28.5930  0.00  0.00     0.000 C
ATOM     35  C2  BDP B   3       9.980  19.982  29.4040  0.00  0.00     0.000 C
ATOM     36  C3  BDP B   3      11.191  20.308  30.2710  0.00  0.00     0.000 C
ATOM     37  C4  BDP B   3      11.646  19.041  31.0110  0.00  0.00     0.000 C
ATOM     38  C5  BDP B   3      11.924  17.963  29.9450  0.00  0.00     0.000 C
ATOM     39  O5  BDP B   3      10.651  17.630  29.3930  0.00  0.00     0.000 O
ATOM     40   O  BDP B   3       9.695  21.019  28.4620  0.00  0.00     0.000 O
ATOM     42  HD  BDP B   3       8.909  20.664  28.5440  0.00  0.00     0.000 HD
ATOM     42   O  BDP B   3      10.784  21.333  31.1750  0.00  0.00     0.000 O
ATOM     44  HD  BDP B   3       9.998  20.978  31.2580  0.00  0.00     0.000 HD
BRANCH 38 44
ATOM     44   C  BDP B   3      12.588  16.729  30.4710  0.00  0.00     0.000 C
ATOM     45   O  BDP B   3      13.611  16.318  29.8810  0.00  0.00     0.000 OA
ATOM     46   O  BDP B   3      12.110  16.148  31.4700  0.00  0.00     0.000 OA
ENDBRANCH 38 44
BRANCH 34 47
ATOM     47  O3  NAG B   4       8.914  17.970  28.5090  0.00  0.00     0.000 O
BRANCH 47 50
ATOM     48  C1  NAG B   4       8.351  16.584  25.0580  0.00  0.00     0.000 C
ATOM     49  C2  NAG B   4       8.634  17.639  26.1130  0.00  0.00     0.000 C
ATOM     50  C3  NAG B   4       8.713  16.976  27.4840  0.00  0.00     0.000 C
ATOM     51  C4  NAG B   4       7.457  16.176  27.7920  0.00  0.00     0.000 C
ATOM     52  C5  NAG B   4       7.185  15.182  26.6630  0.00  0.00     0.000 C
ATOM     53  O5  NAG B   4       7.155  15.856  25.3990  0.00  0.00     0.000 O
ATOM     54   O  NAG B   4       7.634  15.493  29.0350  0.00  0.00     0.000 O
ATOM     56  HD  NAG B   4       6.808  15.499  28.7720  0.00  0.00     0.000 HD
ATOM     56   C  NAG B   4       5.866  14.449  26.8760  0.00  0.00     0.000 C
ATOM     57   O  NAG B   4       4.800  15.407  26.9130  0.00  0.00     0.000 O
ATOM     59  HD  NAG B   4       3.975  15.414  26.6500  0.00  0.00     0.000 HD
BRANCH 49 61
ATOM     59   N  NAG B   4       7.691  18.596  25.5330  0.00  0.00     0.000 N
ATOM     61  HD  NAG B   4       8.221  18.539  26.2150  0.00  0.00     0.000 HD
ATOM     61   O  NAG B   4       8.949  20.445  25.8510  0.00  0.00     0.000 OA
ATOM     62   C  NAG B   4       7.959  19.899  25.3860  0.00  0.00     0.000 C
ATOM     63   C  NAG B   4       6.967  20.677  24.5810  0.00  0.00     0.000 C
ENDBRANCH 49 61
BRANCH 48 64
ATOM     64  O4  BDP B   5       8.681  16.483  23.6760  0.00  0.00     0.000 O
BRANCH 64 68
ATOM     65  C1  BDP B   5       8.048  19.468  20.8370  0.00  0.00     0.000 C
ATOM     66  C2  BDP B   5       7.089  18.286  20.7870  0.00  0.00     0.000 C
ATOM     67  C3  BDP B   5       7.154  17.518  22.1010  0.00  0.00     0.000 C
ATOM     68  C4  BDP B   5       8.589  17.090  22.3880  0.00  0.00     0.000 C
ATOM     69  C5  BDP B   5       9.561  18.262  22.3330  0.00  0.00     0.000 C
ATOM     70  O5  BDP B   5       9.381  19.011  21.1180  0.00  0.00     0.000 O
ATOM     71   O  BDP B   5       5.761  18.755  20.5120  0.00  0.00     0.000 O
ATOM     73  HD  BDP B   5       4.977  19.093  20.3650  0.00  0.00     0.000 HD
ATOM     73   O  BDP B   5       6.317  16.357  22.0460  0.00  0.00     0.000 O
ATOM     75  HD  BDP B   5       5.533  16.695  21.8990  0.00  0.00     0.000 HD
BRANCH 69 75
ATOM     75   C  BDP B   5      10.965  17.716  22.3840  0.00  0.00     0.000 C
ATOM     76   O  BDP B   5      11.617  17.838  23.4400  0.00  0.00     0.000 OA
ATOM     77   O  BDP B   5      11.432  17.156  21.3750  0.00  0.00     0.000 OA
ENDBRANCH 69 75
BRANCH 65 78
ATOM     78  O3  NAG B   6       8.728  20.058  19.7260  0.00  0.00     0.000 O
BRANCH 78 81
ATOM     79  C1  NAG B   6       9.121  23.629  18.5320  0.00  0.00     0.000 C
ATOM     80  C2  NAG B   6       8.402  22.308  18.8510  0.00  0.00     0.000 C
ATOM     81  C3  NAG B   6       9.347  21.352  19.5600  0.00  0.00     0.000 C
ATOM     82  C4  NAG B   6      10.661  21.208  18.7830  0.00  0.00     0.000 C
ATOM     83  C5  NAG B   6      11.265  22.588  18.5510  0.00  0.00     0.000 C
ATOM     84  O5  NAG B   6      10.324  23.350  17.7940  0.00  0.00     0.000 O
BRANCH 80 87
ATOM     85   N  NAG B   6       7.199  22.652  19.6040  0.00  0.00     0.000 N
ATOM     87  HD  NAG B   6       6.393  22.969  19.6240  0.00  0.00     0.000 HD
ATOM     87   C  NAG B   6       6.015  22.049  19.4400  0.00  0.00     0.000 C
ATOM     88   C  NAG B   6       4.915  22.525  20.3350  0.00  0.00     0.000 C
ATOM     89   O  NAG B   6       5.828  21.153  18.6260  0.00  0.00     0.000 OA
ENDBRANCH 80 87
ATOM     90   O  NAG B   6      13.651  22.962  18.6870  0.00  0.00     0.000 O
ATOM     92  HD  NAG B   6      12.864  23.307  18.7950  0.00  0.00     0.000 HD
ATOM     92   O  NAG B   6      13.651  22.962  18.6870  0.00  0.00     0.000 O
ATOM     94  HD  NAG B   6      12.864  23.307  18.7950  0.00  0.00     0.000 HD
ENDBRANCH 78 81
ENDBRANCH 65 78
ENDBRANCH 64 68
ENDBRANCH 48 64
ENDBRANCH 47 50
ENDBRANCH 34 47
ENDBRANCH 33 37
ENDBRANCH 17 33
ENDBRANCH 16 19
ENDBRANCH 1 16
TORSDOF 16
ENDMDL
MODEL 36
REMARK VINA RESULT:      -4.7     11.080     15.001
ROOT
ATOM      1  C1  BDP B   1      15.679  21.980  37.1490  0.00  0.00     0.000 C
ATOM      2  C2  BDP B   1      14.924  23.293  37.2560  0.00  0.00     0.000 C
ATOM      3  C3  BDP B   1      14.881  24.035  35.9370  0.00  0.00     0.000 C
ATOM      4  C4  BDP B   1      15.272  23.186  34.7330  0.00  0.00     0.000 C
ATOM      5  C5  BDP B   1      16.540  22.372  34.9710  0.00  0.00     0.000 C
ATOM      6  O5  BDP B   1      16.839  22.232  36.3700  0.00  0.00     0.000 O
ATOM      7   O  BDP B   1      13.589  23.051  37.7140  0.00  0.00     0.000 O
ATOM      9  HD  BDP B   1      13.027  22.656  38.2420  0.00  0.00     0.000 HD
ATOM      9   O  BDP B   1      15.770  25.163  35.9810  0.00  0.00     0.000 O
ATOM     11  HD  BDP B   1      15.208  24.769  36.5090  0.00  0.00     0.000 HD
ATOM     11   O  BDP B   1      14.197  22.311  34.3690  0.00  0.00     0.000 O
ATOM     13  HD  BDP B   1      13.634  21.917  34.8970  0.00  0.00     0.000 HD
ENDROOT
BRANCH 5 13
ATOM     13   C  BDP B   1      17.655  23.083  34.2870  0.00  0.00     0.000 C
ATOM     14   O  BDP B   1      17.980  22.705  33.1420  0.00  0.00     0.000 OA
ATOM     15   O  BDP B   1      18.207  24.044  34.8640  0.00  0.00     0.000 OA
ENDBRANCH 5 13
BRANCH 1 16
ATOM     16  O3  NAG B   2      15.256  20.643  37.4100  0.00  0.00     0.000 O
BRANCH 16 19
ATOM     17  C1  NAG B   2      14.504  18.009  35.0120  0.00  0.00     0.000 C
ATOM     18  C2  NAG B   2      15.493  18.998  35.6290  0.00  0.00     0.000 C
ATOM     19  C3  NAG B   2      15.153  19.255  37.0890  0.00  0.00     0.000 C
ATOM     20  C4  NAG B   2      13.752  18.746  37.4430  0.00  0.00     0.000 C
ATOM     21  C5  NAG B   2      12.707  18.885  36.3280  0.00  0.00     0.000 C
ATOM     22  O5  NAG B   2      13.245  18.687  35.0150  0.00  0.00     0.000 O
ATOM     23   O  NAG B   2      13.855  17.376  37.8440  0.00  0.00     0.000 O
ATOM     25  HD  NAG B   2      14.431  17.167  37.2320  0.00  0.00     0.000 HD
ATOM     25   C  NAG B   2      12.041  20.268  36.3810  0.00  0.00     0.000 C
ATOM     26   O  NAG B   2      10.943  20.293  37.3040  0.00  0.00     0.000 O
ATOM     28  HD  NAG B   2      11.520  20.085  36.6920  0.00  0.00     0.000 HD
BRANCH 18 30
ATOM     28   N  NAG B   2      16.806  18.463  35.2690  0.00  0.00     0.000 N
ATOM     30  HD  NAG B   2      17.233  18.081  34.6200  0.00  0.00     0.000 HD
ATOM     30   C  NAG B   2      17.357  17.361  35.7970  0.00  0.00     0.000 C
ATOM     31   C  NAG B   2      18.723  17.022  35.2690  0.00  0.00     0.000 C
ATOM     32   O  NAG B   2      16.810  16.676  36.6300  0.00  0.00     0.000 OA
ENDBRANCH 18 30
BRANCH 17 33
ATOM     33  O4  BDP B   3      13.827  17.417  33.8820  0.00  0.00     0.000 O
BRANCH 33 37
ATOM     34  C1  BDP B   3      11.965  17.383  30.0380  0.00  0.00     0.000 C
ATOM     35  C2  BDP B   3      12.832  18.588  30.3820  0.00  0.00     0.000 C
ATOM     36  C3  BDP B   3      13.780  18.345  31.5510  0.00  0.00     0.000 C
ATOM     37  C4  BDP B   3      13.017  17.660  32.6950  0.00  0.00     0.000 C
ATOM     38  C5  BDP B   3      12.400  16.369  32.1240  0.00  0.00     0.000 C
ATOM     39  O5  BDP B   3      11.389  16.795  31.2100  0.00  0.00     0.000 O
ATOM     40   O  BDP B   3      13.530  18.934  29.1830  0.00  0.00     0.000 O
ATOM     42  HD  BDP B   3      12.764  19.308  29.0300  0.00  0.00     0.000 HD
ATOM     42   O  BDP B   3      14.286  19.621  31.9400  0.00  0.00     0.000 O
ATOM     44  HD  BDP B   3      13.520  19.996  31.7870  0.00  0.00     0.000 HD
BRANCH 38 44
ATOM     44   C  BDP B   3      11.803  15.460  33.1530  0.00  0.00     0.000 C
ATOM     45   O  BDP B   3      12.301  14.321  33.2880  0.00  0.00     0.000 OA
ATOM     46   O  BDP B   3      10.836  15.856  33.8390  0.00  0.00     0.000 OA
ENDBRANCH 38 44
BRANCH 34 47
ATOM     47  O3  NAG B   4      10.646  17.766  29.6550  0.00  0.00     0.000 O
BRANCH 47 50
ATOM     48  C1  NAG B   4       9.182  17.173  26.2420  0.00  0.00     0.000 C
ATOM     49  C2  NAG B   4       9.982  17.888  27.3160  0.00  0.00     0.000 C
ATOM     50  C3  NAG B   4       9.947  17.071  28.6030  0.00  0.00     0.000 C
ATOM     51  C4  NAG B   4       8.520  16.784  29.0440  0.00  0.00     0.000 C
ATOM     52  C5  NAG B   4       7.745  16.129  27.9000  0.00  0.00     0.000 C
ATOM     53  O5  NAG B   4       7.842  16.924  26.7110  0.00  0.00     0.000 O
ATOM     54   O  NAG B   4       8.550  15.928  30.1890  0.00  0.00     0.000 O
ATOM     56  HD  NAG B   4       7.772  16.287  30.0610  0.00  0.00     0.000 HD
ATOM     56   C  NAG B   4       6.277  15.941  28.2630  0.00  0.00     0.000 C
ATOM     57   O  NAG B   4       5.696  17.222  28.5410  0.00  0.00     0.000 O
ATOM     59  HD  NAG B   4       4.918  17.581  28.4130  0.00  0.00     0.000 HD
BRANCH 49 61
ATOM     59   N  NAG B   4      11.166  18.223  26.5240  0.00  0.00     0.000 N
ATOM     61  HD  NAG B   4      10.411  18.583  26.7480  0.00  0.00     0.000 HD
ATOM     61   O  NAG B   4      11.362  20.363  27.2200  0.00  0.00     0.000 OA
ATOM     62   C  NAG B   4      11.794  19.403  26.5990  0.00  0.00     0.000 C
ATOM     63   C  NAG B   4      13.104  19.486  25.8810  0.00  0.00     0.000 C
ENDBRANCH 49 61
BRANCH 48 64
ATOM     64  O4  BDP B   5       9.282  17.135  24.8210  0.00  0.00     0.000 O
BRANCH 64 68
ATOM     65  C1  BDP B   5       8.775  17.904  20.7560  0.00  0.00     0.000 C
ATOM     66  C2  BDP B   5      10.177  18.126  21.3070  0.00  0.00     0.000 C
ATOM     67  C3  BDP B   5      10.320  17.415  22.6470  0.00  0.00     0.000 C
ATOM     68  C4  BDP B   5       9.236  17.887  23.6100  0.00  0.00     0.000 C
ATOM     69  C5  BDP B   5       7.841  17.760  23.0120  0.00  0.00     0.000 C
ATOM     70  O5  BDP B   5       7.795  18.358  21.7040  0.00  0.00     0.000 O
ATOM     71   O  BDP B   5      11.147  17.664  20.3550  0.00  0.00     0.000 O
ATOM     73  HD  BDP B   5      11.689  17.352  19.7560  0.00  0.00     0.000 HD
ATOM     73   O  BDP B   5      11.607  17.675  23.2200  0.00  0.00     0.000 O
ATOM     75  HD  BDP B   5      12.148  17.363  22.6200  0.00  0.00     0.000 HD
BRANCH 69 75
ATOM     75   C  BDP B   5       6.869  18.467  23.9220  0.00  0.00     0.000 C
ATOM     76   O  BDP B   5       7.140  19.623  24.3070  0.00  0.00     0.000 OA
ATOM     77   O  BDP B   5       5.824  17.881  24.2610  0.00  0.00     0.000 OA
ENDBRANCH 69 75
BRANCH 65 78
ATOM     78  O3  NAG B   6       8.043  18.798  19.9140  0.00  0.00     0.000 O
BRANCH 78 81
ATOM     79  C1  NAG B   6       5.203  19.681  17.5700  0.00  0.00     0.000 C
ATOM     80  C2  NAG B   6       6.507  19.877  18.3590  0.00  0.00     0.000 C
ATOM     81  C3  NAG B   6       6.906  18.582  19.0490  0.00  0.00     0.000 C
ATOM     82  C4  NAG B   6       5.735  18.011  19.8570  0.00  0.00     0.000 C
ATOM     83  C5  NAG B   6       4.521  17.859  18.9490  0.00  0.00     0.000 C
ATOM     84  O5  NAG B   6       4.190  19.154  18.4470  0.00  0.00     0.000 O
BRANCH 80 87
ATOM     85   N  NAG B   6       7.919  20.247  18.3240  0.00  0.00     0.000 N
ATOM     87  HD  NAG B   6       8.646  20.382  17.8730  0.00  0.00     0.000 HD
ATOM     87   C  NAG B   6       8.390  21.350  17.7280  0.00  0.00     0.000 C
ATOM     88   C  NAG B   6       9.866  21.565  17.8340  0.00  0.00     0.000 C
ATOM     89   O  NAG B   6       7.672  22.151  17.1410  0.00  0.00     0.000 OA
ENDBRANCH 80 87
ATOM     90   O  NAG B   6       3.035  15.959  19.1330  0.00  0.00     0.000 O
ATOM     92  HD  NAG B   6       3.377  16.553  18.6030  0.00  0.00     0.000 HD
ATOM     92   O  NAG B   6       3.035  15.959  19.1330  0.00  0.00     0.000 O
ATOM     94  HD  NAG B   6       3.377  16.553  18.6030  0.00  0.00     0.000 HD
ENDBRANCH 78 81
ENDBRANCH 65 78
ENDBRANCH 64 68
ENDBRANCH 48 64
ENDBRANCH 47 50
ENDBRANCH 34 47
ENDBRANCH 33 37
ENDBRANCH 17 33
ENDBRANCH 16 19
ENDBRANCH 1 16
TORSDOF 16
ENDMDL
MODEL 37
REMARK VINA RESULT:      -4.6     11.516     15.405
ROOT
ATOM      1  C1  BDP B   1      14.957  22.369  36.8590  0.00  0.00     0.000 C
ATOM      2  C2  BDP B   1      13.767  23.193  37.3190  0.00  0.00     0.000 C
ATOM      3  C3  BDP B   1      13.360  24.227  36.2910  0.00  0.00     0.000 C
ATOM      4  C4  BDP B   1      13.965  24.003  34.9100  0.00  0.00     0.000 C
ATOM      5  C5  BDP B   1      15.460  23.705  34.9620  0.00  0.00     0.000 C
ATOM      6  O5  BDP B   1      15.881  23.270  36.2660  0.00  0.00     0.000 O
ATOM      7   O  BDP B   1      12.659  22.332  37.6000  0.00  0.00     0.000 O
ATOM      9  HD  BDP B   1      12.325  21.612  37.9470  0.00  0.00     0.000 HD
ATOM      9   O  BDP B   1      13.752  25.537  36.7320  0.00  0.00     0.000 O
ATOM     11  HD  BDP B   1      13.418  24.817  37.0780  0.00  0.00     0.000 HD
ATOM     11   O  BDP B   1      13.283  22.941  34.2320  0.00  0.00     0.000 O
ATOM     13  HD  BDP B   1      12.949  22.221  34.5790  0.00  0.00     0.000 HD
ENDROOT
BRANCH 5 13
ATOM     13   C  BDP B   1      16.173  24.960  34.5970  0.00  0.00     0.000 C
ATOM     14   O  BDP B   1      16.489  25.746  35.5140  0.00  0.00     0.000 OA
ATOM     15   O  BDP B   1      16.453  25.173  33.3980  0.00  0.00     0.000 OA
ENDBRANCH 5 13
BRANCH 1 16
ATOM     16  O3  NAG B   2      15.094  20.962  36.6730  0.00  0.00     0.000 O
BRANCH 16 19
ATOM     17  C1  NAG B   2      15.205  19.135  33.5250  0.00  0.00     0.000 C
ATOM     18  C2  NAG B   2      15.803  20.167  34.4810  0.00  0.00     0.000 C
ATOM     19  C3  NAG B   2      15.483  19.809  35.9250  0.00  0.00     0.000 C
ATOM     20  C4  NAG B   2      14.390  18.741  36.0150  0.00  0.00     0.000 C
ATOM     21  C5  NAG B   2      13.298  18.833  34.9400  0.00  0.00     0.000 C
ATOM     22  O5  NAG B   2      13.788  19.269  33.6670  0.00  0.00     0.000 O
ATOM     23   O  NAG B   2      15.009  17.451  35.9680  0.00  0.00     0.000 O
ATOM     25  HD  NAG B   2      15.583  17.671  35.3580  0.00  0.00     0.000 HD
ATOM     25   C  NAG B   2      12.179  19.785  35.3860  0.00  0.00     0.000 C
ATOM     26   O  NAG B   2      11.207  19.116  36.2030  0.00  0.00     0.000 O
ATOM     28  HD  NAG B   2      11.781  19.336  35.5930  0.00  0.00     0.000 HD
BRANCH 18 30
ATOM     28   N  NAG B   2      16.833  19.272  33.9560  0.00  0.00     0.000 N
ATOM     30  HD  NAG B   2      17.117  18.456  34.0040  0.00  0.00     0.000 HD
ATOM     30   C  NAG B   2      18.141  19.360  34.2360  0.00  0.00     0.000 C
ATOM     31   C  NAG B   2      19.001  18.328  33.5630  0.00  0.00     0.000 C
ATOM     32   O  NAG B   2      18.610  20.194  34.9750  0.00  0.00     0.000 OA
ENDBRANCH 18 30
BRANCH 17 33
ATOM     33  O4  BDP B   3      14.721  18.725  32.2280  0.00  0.00     0.000 O
BRANCH 33 37
ATOM     34  C1  BDP B   3      12.656  18.960  28.4960  0.00  0.00     0.000 C
ATOM     35  C2  BDP B   3      13.517  20.154  28.8930  0.00  0.00     0.000 C
ATOM     36  C3  BDP B   3      14.531  19.839  29.9870  0.00  0.00     0.000 C
ATOM     37  C4  BDP B   3      13.843  19.045  31.1080  0.00  0.00     0.000 C
ATOM     38  C5  BDP B   3      13.222  17.790  30.4660  0.00  0.00     0.000 C
ATOM     39  O5  BDP B   3      12.155  18.266  29.6440  0.00  0.00     0.000 O
ATOM     40   O  BDP B   3      14.143  20.612  27.6920  0.00  0.00     0.000 O
ATOM     42  HD  BDP B   3      13.363  20.980  27.6100  0.00  0.00     0.000 HD
ATOM     42   O  BDP B   3      15.032  21.090  30.4530  0.00  0.00     0.000 O
ATOM     44  HD  BDP B   3      14.253  21.458  30.3720  0.00  0.00     0.000 HD
BRANCH 38 44
ATOM     44   C  BDP B   3      12.698  16.787  31.4460  0.00  0.00     0.000 C
ATOM     45   O  BDP B   3      11.640  17.061  32.0540  0.00  0.00     0.000 OA
ATOM     46   O  BDP B   3      13.321  15.719  31.6300  0.00  0.00     0.000 OA
ENDBRANCH 38 44
BRANCH 34 47
ATOM     47  O3  NAG B   4      11.311  19.342  28.2150  0.00  0.00     0.000 O
BRANCH 47 50
ATOM     48  C1  NAG B   4       9.628  17.927  25.1640  0.00  0.00     0.000 C
ATOM     49  C2  NAG B   4      10.600  18.785  25.9550  0.00  0.00     0.000 C
ATOM     50  C3  NAG B   4      10.443  18.489  27.4420  0.00  0.00     0.000 C
ATOM     51  C4  NAG B   4       9.006  18.676  27.9010  0.00  0.00     0.000 C
ATOM     52  C5  NAG B   4       8.068  17.845  27.0260  0.00  0.00     0.000 C
ATOM     53  O5  NAG B   4       8.284  18.141  25.6400  0.00  0.00     0.000 O
ATOM     54   O  NAG B   4       8.900  18.282  29.2720  0.00  0.00     0.000 O
ATOM     56  HD  NAG B   4       8.210  18.728  28.9990  0.00  0.00     0.000 HD
ATOM     56   C  NAG B   4       6.608  18.104  27.3760  0.00  0.00     0.000 C
ATOM     57   O  NAG B   4       6.318  19.494  27.1730  0.00  0.00     0.000 O
ATOM     59  HD  NAG B   4       5.628  19.940  26.9000  0.00  0.00     0.000 HD
BRANCH 49 61
ATOM     59   N  NAG B   4      11.816  18.567  25.1700  0.00  0.00     0.000 N
ATOM     61  HD  NAG B   4      11.155  19.125  25.2030  0.00  0.00     0.000 HD
ATOM     61   O  NAG B   4      12.461  20.728  25.0620  0.00  0.00     0.000 OA
ATOM     62   C  NAG B   4      12.676  19.543  24.8560  0.00  0.00     0.000 C
ATOM     63   C  NAG B   4      13.963  19.097  24.2380  0.00  0.00     0.000 C
ENDBRANCH 49 61
BRANCH 48 64
ATOM     64  O4  BDP B   5       9.664  17.381  23.8490  0.00  0.00     0.000 O
BRANCH 64 68
ATOM     65  C1  BDP B   5       6.996  18.277  20.7740  0.00  0.00     0.000 C
ATOM     66  C2  BDP B   5       6.751  16.966  21.5090  0.00  0.00     0.000 C
ATOM     67  C3  BDP B   5       7.497  16.976  22.8370  0.00  0.00     0.000 C
ATOM     68  C4  BDP B   5       8.980  17.242  22.6040  0.00  0.00     0.000 C
ATOM     69  C5  BDP B   5       9.215  18.500  21.7780  0.00  0.00     0.000 C
ATOM     70  O5  BDP B   5       8.406  18.482  20.5880  0.00  0.00     0.000 O
ATOM     71   O  BDP B   5       5.340  16.774  21.6940  0.00  0.00     0.000 O
ATOM     73  HD  BDP B   5       4.482  16.718  21.7970  0.00  0.00     0.000 HD
ATOM     73   O  BDP B   5       7.342  15.721  23.5100  0.00  0.00     0.000 O
ATOM     75  HD  BDP B   5       6.484  15.664  23.6130  0.00  0.00     0.000 HD
BRANCH 69 75
ATOM     75   C  BDP B   5      10.672  18.549  21.3950  0.00  0.00     0.000 C
ATOM     76   O  BDP B   5      11.392  19.440  21.8890  0.00  0.00     0.000 OA
ATOM     77   O  BDP B   5      11.116  17.699  20.6010  0.00  0.00     0.000 OA
ENDBRANCH 69 75
BRANCH 65 78
ATOM     78  O3  NAG B   6       7.013  18.465  19.3560  0.00  0.00     0.000 O
BRANCH 78 81
ATOM     79  C1  NAG B   6       5.081  20.476  16.7950  0.00  0.00     0.000 C
ATOM     80  C2  NAG B   6       5.366  19.335  17.7850  0.00  0.00     0.000 C
ATOM     81  C3  NAG B   6       6.659  19.602  18.5380  0.00  0.00     0.000 C
ATOM     82  C4  NAG B   6       7.800  19.922  17.5670  0.00  0.00     0.000 C
ATOM     83  C5  NAG B   6       7.385  21.074  16.6600  0.00  0.00     0.000 C
ATOM     84  O5  NAG B   6       6.223  20.661  15.9400  0.00  0.00     0.000 O
BRANCH 80 87
ATOM     85   N  NAG B   6       4.444  18.215  17.9490  0.00  0.00     0.000 N
ATOM     87  HD  NAG B   6       4.213  17.489  18.3610  0.00  0.00     0.000 HD
ATOM     87   C  NAG B   6       3.679  18.027  19.0320  0.00  0.00     0.000 C
ATOM     88   C  NAG B   6       2.775  16.836  18.9880  0.00  0.00     0.000 C
ATOM     89   O  NAG B   6       3.694  18.778  19.9990  0.00  0.00     0.000 OA
ENDBRANCH 80 87
ATOM     90   O  NAG B   6       8.952  22.798  16.0080  0.00  0.00     0.000 O
ATOM     92  HD  NAG B   6       8.123  22.608  16.1740  0.00  0.00     0.000 HD
ATOM     92   O  NAG B   6       8.952  22.798  16.0080  0.00  0.00     0.000 O
ATOM     94  HD  NAG B   6       8.123  22.608  16.1740  0.00  0.00     0.000 HD
ENDBRANCH 78 81
ENDBRANCH 65 78
ENDBRANCH 64 68
ENDBRANCH 48 64
ENDBRANCH 47 50
ENDBRANCH 34 47
ENDBRANCH 33 37
ENDBRANCH 17 33
ENDBRANCH 16 19
ENDBRANCH 1 16
TORSDOF 16
ENDMDL
MODEL 38
REMARK VINA RESULT:      -4.6      7.069     13.974
ROOT
ATOM      1  C1  BDP B   1      22.697  14.896  43.0910  0.00  0.00     0.000 C
ATOM      2  C2  BDP B   1      24.080  14.304  42.8840  0.00  0.00     0.000 C
ATOM      3  C3  BDP B   1      24.302  13.066  43.7270  0.00  0.00     0.000 C
ATOM      4  C4  BDP B   1      23.025  12.477  44.3140  0.00  0.00     0.000 C
ATOM      5  C5  BDP B   1      22.125  13.532  44.9490  0.00  0.00     0.000 C
ATOM      6  O5  BDP B   1      22.435  14.858  44.4860  0.00  0.00     0.000 O
ATOM      7   O  BDP B   1      24.270  13.985  41.5010  0.00  0.00     0.000 O
ATOM      9  HD  BDP B   1      24.201  14.179  40.6600  0.00  0.00     0.000 HD
ATOM      9   O  BDP B   1      25.185  13.369  44.8180  0.00  0.00     0.000 O
ATOM     11  HD  BDP B   1      25.115  13.564  43.9770  0.00  0.00     0.000 HD
ATOM     11   O  BDP B   1      22.297  11.762  43.3080  0.00  0.00     0.000 O
ATOM     13  HD  BDP B   1      22.227  11.956  42.4670  0.00  0.00     0.000 HD
ENDROOT
BRANCH 5 13
ATOM     13   C  BDP B   1      22.326  13.454  46.4220  0.00  0.00     0.000 C
ATOM     14   O  BDP B   1      23.039  12.533  46.8720  0.00  0.00     0.000 OA
ATOM     15   O  BDP B   1      21.802  14.321  47.1530  0.00  0.00     0.000 OA
ENDBRANCH 5 13
BRANCH 1 16
ATOM     16  O3  NAG B   2      21.644  15.139  42.1610  0.00  0.00     0.000 O
BRANCH 16 19
ATOM     17  C1  NAG B   2      20.180  13.525  39.2450  0.00  0.00     0.000 C
ATOM     18  C2  NAG B   2      20.733  13.443  40.6680  0.00  0.00     0.000 C
ATOM     19  C3  NAG B   2      20.493  14.749  41.4110  0.00  0.00     0.000 C
ATOM     20  C4  NAG B   2      20.090  15.878  40.4580  0.00  0.00     0.000 C
ATOM     21  C5  NAG B   2      20.765  15.840  39.0800  0.00  0.00     0.000 C
ATOM     22  O5  NAG B   2      20.979  14.512  38.5880  0.00  0.00     0.000 O
ATOM     23   O  NAG B   2      18.667  15.856  40.3030  0.00  0.00     0.000 O
ATOM     25  HD  NAG B   2      18.615  14.992  40.2640  0.00  0.00     0.000 HD
ATOM     25   C  NAG B   2      22.113  16.572  39.1170  0.00  0.00     0.000 C
ATOM     26   O  NAG B   2      21.957  17.984  38.9140  0.00  0.00     0.000 O
ATOM     28  HD  NAG B   2      21.905  17.120  38.8760  0.00  0.00     0.000 HD
BRANCH 18 30
ATOM     28   N  NAG B   2      19.452  12.746  40.5610  0.00  0.00     0.000 N
ATOM     30  HD  NAG B   2      18.599  12.887  40.5120  0.00  0.00     0.000 HD
ATOM     30   C  NAG B   2      18.903  11.996  41.5280  0.00  0.00     0.000 C
ATOM     31   C  NAG B   2      17.583  11.373  41.1720  0.00  0.00     0.000 C
ATOM     32   O  NAG B   2      19.414  11.828  42.6110  0.00  0.00     0.000 OA
ENDBRANCH 18 30
BRANCH 17 33
ATOM     33  O4  BDP B   3      20.134  13.097  37.8660  0.00  0.00     0.000 O
BRANCH 33 37
ATOM     34  C1  BDP B   3      17.197  11.480  35.2200  0.00  0.00     0.000 C
ATOM     35  C2  BDP B   3      17.768  10.547  36.2820  0.00  0.00     0.000 C
ATOM     36  C3  BDP B   3      18.464  11.277  37.4250  0.00  0.00     0.000 C
ATOM     37  C4  BDP B   3      19.387  12.363  36.8520  0.00  0.00     0.000 C
ATOM     38  C5  BDP B   3      18.520  13.283  35.9720  0.00  0.00     0.000 C
ATOM     39  O5  BDP B   3      18.138  12.493  34.8460  0.00  0.00     0.000 O
ATOM     40   O  BDP B   3      16.676   9.745  36.7380  0.00  0.00     0.000 O
ATOM     42  HD  BDP B   3      16.883   9.325  36.0090  0.00  0.00     0.000 HD
ATOM     42   O  BDP B   3      19.193  10.292  38.1560  0.00  0.00     0.000 O
ATOM     44  HD  BDP B   3      19.400   9.872  37.4270  0.00  0.00     0.000 HD
BRANCH 38 44
ATOM     44   C  BDP B   3      19.211  14.527  35.5080  0.00  0.00     0.000 C
ATOM     45   O  BDP B   3      20.072  14.416  34.6080  0.00  0.00     0.000 OA
ATOM     46   O  BDP B   3      18.916  15.627  36.0230  0.00  0.00     0.000 OA
ENDBRANCH 38 44
BRANCH 34 47
ATOM     47  O3  NAG B   4      17.343  10.945  33.9060  0.00  0.00     0.000 O
BRANCH 47 50
ATOM     48  C1  NAG B   4      14.305   9.935  31.9310  0.00  0.00     0.000 C
ATOM     49  C2  NAG B   4      15.374   9.832  33.0050  0.00  0.00     0.000 C
ATOM     50  C3  NAG B   4      16.280  11.056  32.9370  0.00  0.00     0.000 C
ATOM     51  C4  NAG B   4      16.875  11.235  31.5490  0.00  0.00     0.000 C
ATOM     52  C5  NAG B   4      15.759  11.261  30.5050  0.00  0.00     0.000 C
ATOM     53  O5  NAG B   4      14.922  10.106  30.6400  0.00  0.00     0.000 O
ATOM     54   O  NAG B   4      17.625  12.452  31.5180  0.00  0.00     0.000 O
ATOM     56  HD  NAG B   4      17.788  11.942  30.8370  0.00  0.00     0.000 HD
ATOM     56   C  NAG B   4      16.324  11.314  29.0910  0.00  0.00     0.000 C
ATOM     57   O  NAG B   4      17.137  10.154  28.8690  0.00  0.00     0.000 O
ATOM     59  HD  NAG B   4      17.300   9.644  28.1880  0.00  0.00     0.000 HD
BRANCH 49 61
ATOM     59   N  NAG B   4      15.606   8.409  32.7520  0.00  0.00     0.000 N
ATOM     61  HD  NAG B   4      15.919   9.039  33.2580  0.00  0.00     0.000 HD
ATOM     61   O  NAG B   4      15.857   7.787  34.9080  0.00  0.00     0.000 OA
ATOM     62   C  NAG B   4      15.754   7.502  33.7240  0.00  0.00     0.000 C
ATOM     63   C  NAG B   4      15.766   6.074  33.2800  0.00  0.00     0.000 C
ENDBRANCH 49 61
BRANCH 48 64
ATOM     64  O4  BDP B   5      12.969   9.449  31.8420  0.00  0.00     0.000 O
BRANCH 64 68
ATOM     65  C1  BDP B   5      11.611   5.907  33.5700  0.00  0.00     0.000 C
ATOM     66  C2  BDP B   5      11.735   5.904  32.0520  0.00  0.00     0.000 C
ATOM     67  C3  BDP B   5      12.623   7.059  31.6080  0.00  0.00     0.000 C
ATOM     68  C4  BDP B   5      12.076   8.378  32.1440  0.00  0.00     0.000 C
ATOM     69  C5  BDP B   5      11.855   8.339  33.6500  0.00  0.00     0.000 C
ATOM     70  O5  BDP B   5      11.100   7.172  34.0210  0.00  0.00     0.000 O
ATOM     71   O  BDP B   5      12.251   4.639  31.6140  0.00  0.00     0.000 O
ATOM     73  HD  BDP B   5      12.584   3.866  31.4050  0.00  0.00     0.000 HD
ATOM     73   O  BDP B   5      12.690   7.121  30.1790  0.00  0.00     0.000 O
ATOM     75  HD  BDP B   5      13.022   6.349  29.9700  0.00  0.00     0.000 HD
BRANCH 69 75
ATOM     75   C  BDP B   5      11.095   9.578  34.0500  0.00  0.00     0.000 C
ATOM     76   O  BDP B   5       9.905   9.694  33.6910  0.00  0.00     0.000 OA
ATOM     77   O  BDP B   5      11.672  10.448  34.7280  0.00  0.00     0.000 OA
ENDBRANCH 69 75
BRANCH 65 78
ATOM     78  O3  NAG B   6      10.494   5.441  34.3320  0.00  0.00     0.000 O
BRANCH 78 81
ATOM     79  C1  NAG B   6       9.967   2.930  37.1160  0.00  0.00     0.000 C
ATOM     80  C2  NAG B   6      10.231   3.434  35.6880  0.00  0.00     0.000 C
ATOM     81  C3  NAG B   6      10.399   4.945  35.6850  0.00  0.00     0.000 C
ATOM     82  C4  NAG B   6       9.234   5.625  36.4110  0.00  0.00     0.000 C
ATOM     83  C5  NAG B   6       9.098   5.038  37.8120  0.00  0.00     0.000 C
ATOM     84  O5  NAG B   6       8.846   3.639  37.6720  0.00  0.00     0.000 O
BRANCH 80 87
ATOM     85   N  NAG B   6      10.328   2.623  34.4770  0.00  0.00     0.000 N
ATOM     87  HD  NAG B   6      10.560   2.542  33.6470  0.00  0.00     0.000 HD
ATOM     87   C  NAG B   6      11.484   2.238  33.9240  0.00  0.00     0.000 C
ATOM     88   C  NAG B   6      11.366   1.380  32.7040  0.00  0.00     0.000 C
ATOM     89   O  NAG B   6      12.579   2.545  34.3800  0.00  0.00     0.000 OA
ENDBRANCH 80 87
ATOM     90   O  NAG B   6       8.542   6.423  39.7140  0.00  0.00     0.000 O
ATOM     92  HD  NAG B   6       8.960   5.716  39.4410  0.00  0.00     0.000 HD
ATOM     92   O  NAG B   6       8.542   6.423  39.7140  0.00  0.00     0.000 O
ATOM     94  HD  NAG B   6       8.960   5.716  39.4410  0.00  0.00     0.000 HD
ENDBRANCH 78 81
ENDBRANCH 65 78
ENDBRANCH 64 68
ENDBRANCH 48 64
ENDBRANCH 47 50
ENDBRANCH 34 47
ENDBRANCH 33 37
ENDBRANCH 17 33
ENDBRANCH 16 19
ENDBRANCH 1 16
TORSDOF 16
ENDMDL
MODEL 39
REMARK VINA RESULT:      -4.6      9.517     16.190
ROOT
ATOM      1  C1  BDP B   1      31.229  15.599  31.9230  0.00  0.00     0.000 C
ATOM      2  C2  BDP B   1      30.645  15.646  33.3240  0.00  0.00     0.000 C
ATOM      3  C3  BDP B   1      31.133  16.847  34.1050  0.00  0.00     0.000 C
ATOM      4  C4  BDP B   1      31.797  17.919  33.2470  0.00  0.00     0.000 C
ATOM      5  C5  BDP B   1      32.806  17.342  32.2590  0.00  0.00     0.000 C
ATOM      6  O5  BDP B   1      32.604  15.936  32.0360  0.00  0.00     0.000 O
ATOM      7   O  BDP B   1      29.215  15.666  33.2540  0.00  0.00     0.000 O
ATOM      9  HD  BDP B   1      28.467  15.381  32.9250  0.00  0.00     0.000 HD
ATOM      9   O  BDP B   1      32.085  16.432  35.0980  0.00  0.00     0.000 O
ATOM     11  HD  BDP B   1      31.336  16.147  34.7690  0.00  0.00     0.000 HD
ATOM     11   O  BDP B   1      30.807  18.676  32.5410  0.00  0.00     0.000 O
ATOM     13  HD  BDP B   1      30.058  18.392  32.2120  0.00  0.00     0.000 HD
ENDROOT
BRANCH 5 13
ATOM     13   C  BDP B   1      34.162  17.571  32.8300  0.00  0.00     0.000 C
ATOM     14   O  BDP B   1      34.768  18.614  32.5100  0.00  0.00     0.000 OA
ATOM     15   O  BDP B   1      34.635  16.732  33.6260  0.00  0.00     0.000 OA
ENDBRANCH 5 13
BRANCH 1 16
ATOM     16  O3  NAG B   2      30.586  15.590  30.6500  0.00  0.00     0.000 O
BRANCH 16 19
ATOM     17  C1  NAG B   2      28.115  13.855  28.6160  0.00  0.00     0.000 C
ATOM     18  C2  NAG B   2      28.586  14.374  29.9750  0.00  0.00     0.000 C
ATOM     19  C3  NAG B   2      29.435  15.625  29.8050  0.00  0.00     0.000 C
ATOM     20  C4  NAG B   2      29.869  15.823  28.3500  0.00  0.00     0.000 C
ATOM     21  C5  NAG B   2      30.161  14.531  27.5760  0.00  0.00     0.000 C
ATOM     22  O5  NAG B   2      29.304  13.442  27.9400  0.00  0.00     0.000 O
ATOM     23   O  NAG B   2      28.857  16.576  27.6730  0.00  0.00     0.000 O
ATOM     25  HD  NAG B   2      28.197  16.161  28.0500  0.00  0.00     0.000 HD
ATOM     25   C  NAG B   2      31.620  14.096  27.7800  0.00  0.00     0.000 C
ATOM     26   O  NAG B   2      32.504  14.753  26.8620  0.00  0.00     0.000 O
ATOM     28  HD  NAG B   2      31.844  14.338  27.2390  0.00  0.00     0.000 HD
BRANCH 18 30
ATOM     28   N  NAG B   2      27.160  14.630  29.7770  0.00  0.00     0.000 N
ATOM     30  HD  NAG B   2      26.608  15.075  29.2800  0.00  0.00     0.000 HD
ATOM     30   C  NAG B   2      26.377  15.313  30.6250  0.00  0.00     0.000 C
ATOM     31   C  NAG B   2      24.940  15.431  30.2030  0.00  0.00     0.000 C
ATOM     32   O  NAG B   2      26.781  15.809  31.6510  0.00  0.00     0.000 OA
ENDBRANCH 18 30
BRANCH 17 33
ATOM     33  O4  BDP B   3      27.632  12.808  27.7460  0.00  0.00     0.000 O
BRANCH 33 37
ATOM     34  C1  BDP B   3      24.844  10.500  25.4790  0.00  0.00     0.000 C
ATOM     35  C2  BDP B   3      25.556  11.638  24.7580  0.00  0.00     0.000 C
ATOM     36  C3  BDP B   3      26.809  12.127  25.4760  0.00  0.00     0.000 C
ATOM     37  C4  BDP B   3      26.505  12.304  26.9720  0.00  0.00     0.000 C
ATOM     38  C5  BDP B   3      25.984  10.952  27.4950  0.00  0.00     0.000 C
ATOM     39  O5  BDP B   3      24.709  10.765  26.8810  0.00  0.00     0.000 O
ATOM     40   O  BDP B   3      25.839  11.160  23.4410  0.00  0.00     0.000 O
ATOM     42  HD  BDP B   3      25.009  11.388  23.3480  0.00  0.00     0.000 HD
ATOM     42   O  BDP B   3      27.178  13.360  24.8600  0.00  0.00     0.000 O
ATOM     44  HD  BDP B   3      26.348  13.588  24.7670  0.00  0.00     0.000 HD
BRANCH 38 44
ATOM     44   C  BDP B   3      25.845  10.876  28.9840  0.00  0.00     0.000 C
ATOM     45   O  BDP B   3      25.128  11.732  29.5490  0.00  0.00     0.000 OA
ATOM     46   O  BDP B   3      26.440   9.976  29.6160  0.00  0.00     0.000 OA
ENDBRANCH 38 44
BRANCH 34 47
ATOM     47  O3  NAG B   4      23.425  10.612  25.3840  0.00  0.00     0.000 O
BRANCH 47 50
ATOM     48  C1  NAG B   4      21.394   8.115  23.4370  0.00  0.00     0.000 C
ATOM     49  C2  NAG B   4      22.318   9.300  23.6570  0.00  0.00     0.000 C
ATOM     50  C3  NAG B   4      22.603   9.451  25.1470  0.00  0.00     0.000 C
ATOM     51  C4  NAG B   4      21.319   9.565  25.9540  0.00  0.00     0.000 C
ATOM     52  C5  NAG B   4      20.401   8.384  25.6380  0.00  0.00     0.000 C
ATOM     53  O5  NAG B   4      20.197   8.273  24.2240  0.00  0.00     0.000 O
ATOM     54   O  NAG B   4      21.645   9.594  27.3460  0.00  0.00     0.000 O
ATOM     56  HD  NAG B   4      20.828   9.835  27.1890  0.00  0.00     0.000 HD
ATOM     56   C  NAG B   4      19.053   8.529  26.3340  0.00  0.00     0.000 C
ATOM     57   O  NAG B   4      18.423   9.736  25.8840  0.00  0.00     0.000 O
ATOM     59  HD  NAG B   4      17.606   9.977  25.7270  0.00  0.00     0.000 HD
BRANCH 49 61
ATOM     59   N  NAG B   4      21.609  10.283  22.8370  0.00  0.00     0.000 N
ATOM     61  HD  NAG B   4      22.333  10.232  23.3080  0.00  0.00     0.000 HD
ATOM     61   O  NAG B   4      23.425  11.123  21.7890  0.00  0.00     0.000 OA
ATOM     62   C  NAG B   4      22.212  11.055  21.9240  0.00  0.00     0.000 C
ATOM     63   C  NAG B   4      21.300  11.840  21.0360  0.00  0.00     0.000 C
ENDBRANCH 49 61
BRANCH 48 64
ATOM     64  O4  BDP B   5      21.223   7.207  22.3530  0.00  0.00     0.000 O
BRANCH 64 68
ATOM     65  C1  BDP B   5      21.577   8.056  18.2880  0.00  0.00     0.000 C
ATOM     66  C2  BDP B   5      20.174   8.161  18.8720  0.00  0.00     0.000 C
ATOM     67  C3  BDP B   5      20.257   8.254  20.3900  0.00  0.00     0.000 C
ATOM     68  C4  BDP B   5      21.030   7.063  20.9470  0.00  0.00     0.000 C
ATOM     69  C5  BDP B   5      22.391   6.901  20.2830  0.00  0.00     0.000 C
ATOM     70  O5  BDP B   5      22.262   6.926  18.8510  0.00  0.00     0.000 O
ATOM     71   O  BDP B   5      19.501   9.297  18.3070  0.00  0.00     0.000 O
ATOM     73  HD  BDP B   5      19.149  10.004  17.9510  0.00  0.00     0.000 HD
ATOM     73   O  BDP B   5      18.945   8.275  20.9650  0.00  0.00     0.000 O
ATOM     75  HD  BDP B   5      18.593   8.982  20.6090  0.00  0.00     0.000 HD
BRANCH 69 75
ATOM     75   C  BDP B   5      22.973   5.578  20.7130  0.00  0.00     0.000 C
ATOM     76   O  BDP B   5      23.858   5.570  21.5930  0.00  0.00     0.000 OA
ATOM     77   O  BDP B   5      22.553   4.533  20.1830  0.00  0.00     0.000 OA
ENDBRANCH 69 75
BRANCH 65 78
ATOM     78  O3  NAG B   6      21.945   7.389  17.0780  0.00  0.00     0.000 O
BRANCH 78 81
ATOM     79  C1  NAG B   6      25.200   7.485  15.1470  0.00  0.00     0.000 C
ATOM     80  C2  NAG B   6      23.919   8.028  15.8010  0.00  0.00     0.000 C
ATOM     81  C3  NAG B   6      23.224   6.930  16.5890  0.00  0.00     0.000 C
ATOM     82  C4  NAG B   6      23.036   5.676  15.7290  0.00  0.00     0.000 C
ATOM     83  C5  NAG B   6      24.383   5.245  15.1600  0.00  0.00     0.000 C
ATOM     84  O5  NAG B   6      24.880   6.322  14.3640  0.00  0.00     0.000 O
BRANCH 80 87
ATOM     85   N  NAG B   6      23.362   9.376  15.7420  0.00  0.00     0.000 N
ATOM     87  HD  NAG B   6      22.838   9.984  16.0670  0.00  0.00     0.000 HD
ATOM     87   C  NAG B   6      23.579  10.317  16.6700  0.00  0.00     0.000 C
ATOM     88   C  NAG B   6      22.945  11.646  16.4060  0.00  0.00     0.000 C
ATOM     89   O  NAG B   6      24.261  10.126  17.6690  0.00  0.00     0.000 OA
ENDBRANCH 80 87
ATOM     90   O  NAG B   6      24.990   2.912  14.9740  0.00  0.00     0.000 O
ATOM     92  HD  NAG B   6      25.279   3.720  15.0890  0.00  0.00     0.000 HD
ATOM     92   O  NAG B   6      24.990   2.912  14.9740  0.00  0.00     0.000 O
ATOM     94  HD  NAG B   6      25.279   3.720  15.0890  0.00  0.00     0.000 HD
ENDBRANCH 78 81
ENDBRANCH 65 78
ENDBRANCH 64 68
ENDBRANCH 48 64
ENDBRANCH 47 50
ENDBRANCH 34 47
ENDBRANCH 33 37
ENDBRANCH 17 33
ENDBRANCH 16 19
ENDBRANCH 1 16
TORSDOF 16
ENDMDL
MODEL 40
REMARK VINA RESULT:      -4.5     15.666     24.359
ROOT
ATOM      1  C1  BDP B   1      17.405  32.592  20.5590  0.00  0.00     0.000 C
ATOM      2  C2  BDP B   1      17.853  32.578  22.0090  0.00  0.00     0.000 C
ATOM      3  C3  BDP B   1      18.562  33.858  22.3990  0.00  0.00     0.000 C
ATOM      4  C4  BDP B   1      18.373  35.000  21.4070  0.00  0.00     0.000 C
ATOM      5  C5  BDP B   1      18.581  34.566  19.9600  0.00  0.00     0.000 C
ATOM      6  O5  BDP B   1      18.473  33.141  19.8000  0.00  0.00     0.000 O
ATOM      7   O  BDP B   1      16.723  32.375  22.8650  0.00  0.00     0.000 O
ATOM      9  HD  BDP B   1      15.984  31.971  23.0640  0.00  0.00     0.000 HD
ATOM      9   O  BDP B   1      19.973  33.618  22.5230  0.00  0.00     0.000 O
ATOM     11  HD  BDP B   1      19.234  33.213  22.7220  0.00  0.00     0.000 HD
ATOM     11   O  BDP B   1      17.071  35.580  21.5550  0.00  0.00     0.000 O
ATOM     13  HD  BDP B   1      16.332  35.175  21.7540  0.00  0.00     0.000 HD
ENDROOT
BRANCH 5 13
ATOM     13   C  BDP B   1      19.943  35.014  19.5570  0.00  0.00     0.000 C
ATOM     14   O  BDP B   1      20.045  36.075  18.9060  0.00  0.00     0.000 OA
ATOM     15   O  BDP B   1      20.933  34.335  19.9020  0.00  0.00     0.000 OA
ENDBRANCH 5 13
BRANCH 1 16
ATOM     16  O3  NAG B   2      16.106  32.455  19.9880  0.00  0.00     0.000 O
BRANCH 16 19
ATOM     17  C1  NAG B   2      14.412  29.250  19.6530  0.00  0.00     0.000 C
ATOM     18  C2  NAG B   2      14.769  30.480  20.4870  0.00  0.00     0.000 C
ATOM     19  C3  NAG B   2      14.962  31.696  19.5930  0.00  0.00     0.000 C
ATOM     20  C4  NAG B   2      15.089  31.300  18.1190  0.00  0.00     0.000 C
ATOM     21  C5  NAG B   2      15.821  29.976  17.8600  0.00  0.00     0.000 C
ATOM     22  O5  NAG B   2      15.573  28.984  18.8630  0.00  0.00     0.000 O
ATOM     23   O  NAG B   2      13.778  31.250  17.5470  0.00  0.00     0.000 O
ATOM     25  HD  NAG B   2      13.415  30.876  18.2390  0.00  0.00     0.000 HD
ATOM     25   C  NAG B   2      17.335  30.205  17.7610  0.00  0.00     0.000 C
ATOM     26   O  NAG B   2      17.729  30.590  16.4360  0.00  0.00     0.000 O
ATOM     28  HD  NAG B   2      17.366  30.216  17.1280  0.00  0.00     0.000 HD
BRANCH 18 30
ATOM     28   N  NAG B   2      13.326  30.673  20.3440  0.00  0.00     0.000 N
ATOM     30  HD  NAG B   2      12.737  31.246  20.0710  0.00  0.00     0.000 HD
ATOM     30   C  NAG B   2      12.467  30.823  21.3620  0.00  0.00     0.000 C
ATOM     31   C  NAG B   2      11.031  30.995  20.9560  0.00  0.00     0.000 C
ATOM     32   O  NAG B   2      12.804  30.829  22.5230  0.00  0.00     0.000 OA
ENDBRANCH 18 30
BRANCH 17 33
ATOM     33  O4  BDP B   3      14.333  27.822  19.4540  0.00  0.00     0.000 O
BRANCH 33 37
ATOM     34  C1  BDP B   3      12.382  24.111  18.6370  0.00  0.00     0.000 C
ATOM     35  C2  BDP B   3      13.487  24.543  17.6800  0.00  0.00     0.000 C
ATOM     36  C3  BDP B   3      14.402  25.620  18.2510  0.00  0.00     0.000 C
ATOM     37  C4  BDP B   3      13.552  26.718  18.9080  0.00  0.00     0.000 C
ATOM     38  C5  BDP B   3      12.667  26.037  19.9700  0.00  0.00     0.000 C
ATOM     39  O5  BDP B   3      11.736  25.238  19.2400  0.00  0.00     0.000 O
ATOM     40   O  BDP B   3      14.202  23.355  17.3330  0.00  0.00     0.000 O
ATOM     42  HD  BDP B   3      13.524  23.289  16.7980  0.00  0.00     0.000 HD
ATOM     42   O  BDP B   3      15.170  26.126  17.1590  0.00  0.00     0.000 O
ATOM     44  HD  BDP B   3      14.492  26.061  16.6240  0.00  0.00     0.000 HD
BRANCH 38 44
ATOM     44   C  BDP B   3      11.930  26.986  20.8630  0.00  0.00     0.000 C
ATOM     45   O  BDP B   3      12.362  27.151  22.0250  0.00  0.00     0.000 OA
ATOM     46   O  BDP B   3      10.918  27.580  20.4320  0.00  0.00     0.000 OA
ENDBRANCH 38 44
BRANCH 34 47
ATOM     47  O3  NAG B   4      11.157  23.851  17.9540  0.00  0.00     0.000 O
BRANCH 47 50
ATOM     48  C1  NAG B   4       9.251  20.686  18.6610  0.00  0.00     0.000 C
ATOM     49  C2  NAG B   4      10.361  21.554  18.0950  0.00  0.00     0.000 C
ATOM     50  C3  NAG B   4      10.150  22.998  18.5360  0.00  0.00     0.000 C
ATOM     51  C4  NAG B   4       8.770  23.505  18.1490  0.00  0.00     0.000 C
ATOM     52  C5  NAG B   4       7.698  22.555  18.6850  0.00  0.00     0.000 C
ATOM     53  O5  NAG B   4       7.968  21.211  18.2660  0.00  0.00     0.000 O
ATOM     54   O  NAG B   4       8.590  24.820  18.6810  0.00  0.00     0.000 O
ATOM     56  HD  NAG B   4       7.993  24.616  18.0870  0.00  0.00     0.000 HD
ATOM     56   C  NAG B   4       6.309  22.963  18.2100  0.00  0.00     0.000 C
ATOM     57   O  NAG B   4       6.277  22.933  16.7760  0.00  0.00     0.000 O
ATOM     59  HD  NAG B   4       5.680  22.729  16.1830  0.00  0.00     0.000 HD
BRANCH 49 61
ATOM     59   N  NAG B   4      11.459  20.633  18.3920  0.00  0.00     0.000 N
ATOM     61  HD  NAG B   4      10.936  20.829  17.7300  0.00  0.00     0.000 HD
ATOM     61   O  NAG B   4      12.548  20.865  16.4270  0.00  0.00     0.000 OA
ATOM     62   C  NAG B   4      12.491  20.425  17.5660  0.00  0.00     0.000 C
ATOM     63   C  NAG B   4      13.618  19.619  18.1290  0.00  0.00     0.000 C
ENDBRANCH 49 61
BRANCH 48 64
ATOM     64  O4  BDP B   5       9.190  19.314  19.0400  0.00  0.00     0.000 O
BRANCH 64 68
ATOM     65  C1  BDP B   5       8.396  17.943  22.8950  0.00  0.00     0.000 C
ATOM     66  C2  BDP B   5       9.685  17.439  22.2600  0.00  0.00     0.000 C
ATOM     67  C3  BDP B   5      10.056  18.327  21.0790  0.00  0.00     0.000 C
ATOM     68  C4  BDP B   5       8.902  18.385  20.0840  0.00  0.00     0.000 C
ATOM     69  C5  BDP B   5       7.592  18.789  20.7460  0.00  0.00     0.000 C
ATOM     70  O5  BDP B   5       7.347  17.986  21.9150  0.00  0.00     0.000 O
ATOM     71   O  BDP B   5      10.727  17.406  23.2470  0.00  0.00     0.000 O
ATOM     73  HD  BDP B   5      11.323  17.424  23.8750  0.00  0.00     0.000 HD
ATOM     73   O  BDP B   5      11.224  17.824  20.4200  0.00  0.00     0.000 O
ATOM     75  HD  BDP B   5      11.820  17.843  21.0480  0.00  0.00     0.000 HD
BRANCH 69 75
ATOM     75   C  BDP B   5       6.476  18.585  19.7530  0.00  0.00     0.000 C
ATOM     76   O  BDP B   5       5.560  19.430  19.6980  0.00  0.00     0.000 OA
ATOM     77   O  BDP B   5       6.503  17.584  19.0130  0.00  0.00     0.000 OA
ENDBRANCH 69 75
BRANCH 65 78
ATOM     78  O3  NAG B   6       7.418  17.152  23.5750  0.00  0.00     0.000 O
BRANCH 78 81
ATOM     79  C1  NAG B   6       5.613  17.375  26.8960  0.00  0.00     0.000 C
ATOM     80  C2  NAG B   6       6.784  17.141  25.9280  0.00  0.00     0.000 C
ATOM     81  C3  NAG B   6       6.378  17.511  24.5110  0.00  0.00     0.000 C
ATOM     82  C4  NAG B   6       5.065  16.825  24.1220  0.00  0.00     0.000 C
ATOM     83  C5  NAG B   6       3.996  17.153  25.1580  0.00  0.00     0.000 C
ATOM     84  O5  NAG B   6       4.454  16.667  26.4210  0.00  0.00     0.000 O
BRANCH 80 87
ATOM     85   N  NAG B   6       7.914  17.847  26.5260  0.00  0.00     0.000 N
ATOM     87  HD  NAG B   6       8.559  17.874  27.1030  0.00  0.00     0.000 HD
ATOM     87   C  NAG B   6       9.185  17.436  26.4400  0.00  0.00     0.000 C
ATOM     88   C  NAG B   6      10.199  18.320  27.0930  0.00  0.00     0.000 C
ATOM     89   O  NAG B   6       9.518  16.411  25.8560  0.00  0.00     0.000 OA
ENDBRANCH 80 87
ATOM     90   O  NAG B   6       1.702  17.574  24.5190  0.00  0.00     0.000 O
ATOM     92  HD  NAG B   6       2.331  17.749  25.0880  0.00  0.00     0.000 HD
ATOM     92   O  NAG B   6       1.702  17.574  24.5190  0.00  0.00     0.000 O
ATOM     94  HD  NAG B   6       2.331  17.749  25.0880  0.00  0.00     0.000 HD
ENDBRANCH 78 81
ENDBRANCH 65 78
ENDBRANCH 64 68
ENDBRANCH 48 64
ENDBRANCH 47 50
ENDBRANCH 34 47
ENDBRANCH 33 37
ENDBRANCH 17 33
ENDBRANCH 16 19
ENDBRANCH 1 16
TORSDOF 16
ENDMDL
MODEL 41
REMARK VINA RESULT:      -4.5     14.903     23.453
ROOT
ATOM      1  C1  BDP B   1      19.111  30.943  22.0870  0.00  0.00     0.000 C
ATOM      2  C2  BDP B   1      19.706  29.746  22.8090  0.00  0.00     0.000 C
ATOM      3  C3  BDP B   1      20.189  30.101  24.1990  0.00  0.00     0.000 C
ATOM      4  C4  BDP B   1      19.673  31.441  24.7130  0.00  0.00     0.000 C
ATOM      5  C5  BDP B   1      19.806  32.559  23.6830  0.00  0.00     0.000 C
ATOM      6  O5  BDP B   1      19.963  32.049  22.3480  0.00  0.00     0.000 O
ATOM      7   O  BDP B   1      18.737  28.696  22.8890  0.00  0.00     0.000 O
ATOM      9  HD  BDP B   1      18.118  28.205  22.5350  0.00  0.00     0.000 HD
ATOM      9   O  BDP B   1      21.624  30.148  24.2220  0.00  0.00     0.000 O
ATOM     11  HD  BDP B   1      21.004  29.658  23.8690  0.00  0.00     0.000 HD
ATOM     11   O  BDP B   1      18.306  31.325  25.1270  0.00  0.00     0.000 O
ATOM     13  HD  BDP B   1      17.687  30.834  24.7730  0.00  0.00     0.000 HD
ENDROOT
BRANCH 5 13
ATOM     13   C  BDP B   1      21.001  33.363  24.0570  0.00  0.00     0.000 C
ATOM     14   O  BDP B   1      20.821  34.432  24.6760  0.00  0.00     0.000 OA
ATOM     15   O  BDP B   1      22.138  32.935  23.7660  0.00  0.00     0.000 OA
ENDBRANCH 5 13
BRANCH 1 16
ATOM     16  O3  NAG B   2      17.810  31.142  21.5390  0.00  0.00     0.000 O
BRANCH 16 19
ATOM     17  C1  NAG B   2      15.542  28.438  20.6440  0.00  0.00     0.000 C
ATOM     18  C2  NAG B   2      16.008  29.505  21.6360  0.00  0.00     0.000 C
ATOM     19  C3  NAG B   2      16.615  30.690  20.9000  0.00  0.00     0.000 C
ATOM     20  C4  NAG B   2      16.908  30.358  19.4340  0.00  0.00     0.000 C
ATOM     21  C5  NAG B   2      17.366  28.917  19.1710  0.00  0.00     0.000 C
ATOM     22  O5  NAG B   2      16.736  27.955  20.0250  0.00  0.00     0.000 O
ATOM     23   O  NAG B   2      15.737  30.644  18.6610  0.00  0.00     0.000 O
ATOM     25  HD  NAG B   2      15.186  30.326  19.2490  0.00  0.00     0.000 HD
ATOM     25   C  NAG B   2      18.888  28.795  19.3330  0.00  0.00     0.000 C
ATOM     26   O  NAG B   2      19.581  29.151  18.1280  0.00  0.00     0.000 O
ATOM     28  HD  NAG B   2      19.030  28.834  18.7160  0.00  0.00     0.000 HD
BRANCH 18 30
ATOM     28   N  NAG B   2      14.675  29.382  22.2240  0.00  0.00     0.000 N
ATOM     30  HD  NAG B   2      13.928  28.951  22.1410  0.00  0.00     0.000 HD
ATOM     30   C  NAG B   2      13.720  30.321  22.1650  0.00  0.00     0.000 C
ATOM     31   C  NAG B   2      12.436  29.961  22.8580  0.00  0.00     0.000 C
ATOM     32   O  NAG B   2      13.860  31.379  21.5970  0.00  0.00     0.000 OA
ENDBRANCH 18 30
BRANCH 17 33
ATOM     33  O4  BDP B   3      15.189  27.080  20.3020  0.00  0.00     0.000 O
BRANCH 33 37
ATOM     34  C1  BDP B   3      12.736  23.904  18.8400  0.00  0.00     0.000 C
ATOM     35  C2  BDP B   3      13.927  24.316  17.9830  0.00  0.00     0.000 C
ATOM     36  C3  BDP B   3      14.972  25.129  18.7390  0.00  0.00     0.000 C
ATOM     37  C4  BDP B   3      14.272  26.217  19.5670  0.00  0.00     0.000 C
ATOM     38  C5  BDP B   3      13.258  25.511  20.4870  0.00  0.00     0.000 C
ATOM     39  O5  BDP B   3      12.244  24.999  19.6220  0.00  0.00     0.000 O
ATOM     40   O  BDP B   3      14.468  23.108  17.4440  0.00  0.00     0.000 O
ATOM     42  HD  BDP B   3      13.807  23.239  16.8980  0.00  0.00     0.000 HD
ATOM     42   O  BDP B   3      15.845  25.687  17.7590  0.00  0.00     0.000 O
ATOM     44  HD  BDP B   3      15.185  25.817  17.2140  0.00  0.00     0.000 HD
BRANCH 38 44
ATOM     44   C  BDP B   3      12.639  26.398  21.5230  0.00  0.00     0.000 C
ATOM     45   O  BDP B   3      13.216  26.496  22.6280  0.00  0.00     0.000 OA
ATOM     46   O  BDP B   3      11.579  27.007  21.2620  0.00  0.00     0.000 OA
ENDBRANCH 38 44
BRANCH 34 47
ATOM     47  O3  NAG B   4      11.511  23.954  18.1110  0.00  0.00     0.000 O
BRANCH 47 50
ATOM     48  C1  NAG B   4       9.109  21.073  18.3980  0.00  0.00     0.000 C
ATOM     49  C2  NAG B   4      10.371  21.807  17.9780  0.00  0.00     0.000 C
ATOM     50  C3  NAG B   4      10.353  23.217  18.5550  0.00  0.00     0.000 C
ATOM     51  C4  NAG B   4       9.091  23.968  18.1580  0.00  0.00     0.000 C
ATOM     52  C5  NAG B   4       7.858  23.150  18.5430  0.00  0.00     0.000 C
ATOM     53  O5  NAG B   4       7.947  21.826  18.0010  0.00  0.00     0.000 O
ATOM     54   O  NAG B   4       9.080  25.238  18.8140  0.00  0.00     0.000 O
ATOM     56  HD  NAG B   4       8.497  25.187  18.1750  0.00  0.00     0.000 HD
ATOM     56   C  NAG B   4       6.578  23.813  18.0480  0.00  0.00     0.000 C
ATOM     57   O  NAG B   4       6.630  23.925  16.6200  0.00  0.00     0.000 O
ATOM     59  HD  NAG B   4       6.048  23.874  15.9810  0.00  0.00     0.000 HD
BRANCH 49 61
ATOM     59   N  NAG B   4      11.380  20.794  18.2900  0.00  0.00     0.000 N
ATOM     61  HD  NAG B   4      10.890  21.038  17.6180  0.00  0.00     0.000 HD
ATOM     61   O  NAG B   4      12.527  20.945  16.3500  0.00  0.00     0.000 OA
ATOM     62   C  NAG B   4      12.408  20.504  17.4840  0.00  0.00     0.000 C
ATOM     63   C  NAG B   4      13.450  19.601  18.0640  0.00  0.00     0.000 C
ENDBRANCH 49 61
BRANCH 48 64
ATOM     64  O4  BDP B   5       8.819  19.698  18.6310  0.00  0.00     0.000 O
BRANCH 64 68
ATOM     65  C1  BDP B   5       8.083  18.044  22.3850  0.00  0.00     0.000 C
ATOM     66  C2  BDP B   5       9.321  17.533  21.6630  0.00  0.00     0.000 C
ATOM     67  C3  BDP B   5       9.699  18.498  20.5470  0.00  0.00     0.000 C
ATOM     68  C4  BDP B   5       8.518  18.698  19.6040  0.00  0.00     0.000 C
ATOM     69  C5  BDP B   5       7.253  19.109  20.3470  0.00  0.00     0.000 C
ATOM     70  O5  BDP B   5       7.005  18.223  21.4520  0.00  0.00     0.000 O
ATOM     71   O  BDP B   5      10.393  17.363  22.6040  0.00  0.00     0.000 O
ATOM     73  HD  BDP B   5      11.010  17.299  23.2080  0.00  0.00     0.000 HD
ATOM     73   O  BDP B   5      10.817  17.996  19.8040  0.00  0.00     0.000 O
ATOM     75  HD  BDP B   5      11.433  17.931  20.4090  0.00  0.00     0.000 HD
BRANCH 69 75
ATOM     75   C  BDP B   5       6.096  19.046  19.3820  0.00  0.00     0.000 C
ATOM     76   O  BDP B   5       5.476  20.097  19.1200  0.00  0.00     0.000 OA
ATOM     77   O  BDP B   5       5.795  17.951  18.8720  0.00  0.00     0.000 OA
ENDBRANCH 69 75
BRANCH 65 78
ATOM     78  O3  NAG B   6       7.088  17.247  23.0340  0.00  0.00     0.000 O
BRANCH 78 81
ATOM     79  C1  NAG B   6       5.431  17.240  26.4380  0.00  0.00     0.000 C
ATOM     80  C2  NAG B   6       6.546  17.034  25.4000  0.00  0.00     0.000 C
ATOM     81  C3  NAG B   6       6.111  17.573  24.0470  0.00  0.00     0.000 C
ATOM     82  C4  NAG B   6       4.741  17.014  23.6510  0.00  0.00     0.000 C
ATOM     83  C5  NAG B   6       3.737  17.300  24.7620  0.00  0.00     0.000 C
ATOM     84  O5  NAG B   6       4.210  16.659  25.9470  0.00  0.00     0.000 O
BRANCH 80 87
ATOM     85   N  NAG B   6       7.744  17.611  26.0030  0.00  0.00     0.000 N
ATOM     87  HD  NAG B   6       8.411  17.546  26.5520  0.00  0.00     0.000 HD
ATOM     87   C  NAG B   6       8.979  17.123  25.8300  0.00  0.00     0.000 C
ATOM     88   C  NAG B   6      10.077  17.880  26.5070  0.00  0.00     0.000 C
ATOM     89   O  NAG B   6       9.216  16.130  25.1520  0.00  0.00     0.000 OA
ENDBRANCH 80 87
ATOM     90   O  NAG B   6       1.454  17.928  24.2720  0.00  0.00     0.000 O
ATOM     92  HD  NAG B   6       2.114  18.004  24.8270  0.00  0.00     0.000 HD
ATOM     92   O  NAG B   6       1.454  17.928  24.2720  0.00  0.00     0.000 O
ATOM     94  HD  NAG B   6       2.114  18.004  24.8270  0.00  0.00     0.000 HD
ENDBRANCH 78 81
ENDBRANCH 65 78
ENDBRANCH 64 68
ENDBRANCH 48 64
ENDBRANCH 47 50
ENDBRANCH 34 47
ENDBRANCH 33 37
ENDBRANCH 17 33
ENDBRANCH 16 19
ENDBRANCH 1 16
TORSDOF 16
ENDMDL
MODEL 42
REMARK VINA RESULT:      -4.4      7.439     14.123
ROOT
ATOM      1  C1  BDP B   1      17.779  18.847  42.0390  0.00  0.00     0.000 C
ATOM      2  C2  BDP B   1      18.682  19.659  42.9500  0.00  0.00     0.000 C
ATOM      3  C3  BDP B   1      17.905  20.365  44.0410  0.00  0.00     0.000 C
ATOM      4  C4  BDP B   1      16.481  19.851  44.2220  0.00  0.00     0.000 C
ATOM      5  C5  BDP B   1      15.736  19.700  42.8990  0.00  0.00     0.000 C
ATOM      6  O5  BDP B   1      16.632  19.643  41.7760  0.00  0.00     0.000 O
ATOM      7   O  BDP B   1      19.672  18.809  43.5380  0.00  0.00     0.000 O
ATOM      9  HD  BDP B   1      20.259  18.174  43.4810  0.00  0.00     0.000 HD
ATOM      9   O  BDP B   1      17.829  21.771  43.7570  0.00  0.00     0.000 O
ATOM     11  HD  BDP B   1      18.416  21.136  43.7010  0.00  0.00     0.000 HD
ATOM     11   O  BDP B   1      16.486  18.600  44.9200  0.00  0.00     0.000 O
ATOM     13  HD  BDP B   1      17.073  17.966  44.8630  0.00  0.00     0.000 HD
ENDROOT
BRANCH 5 13
ATOM     13   C  BDP B   1      14.835  20.877  42.7630  0.00  0.00     0.000 C
ATOM     14   O  BDP B   1      14.078  20.928  41.7720  0.00  0.00     0.000 OA
ATOM     15   O  BDP B   1      14.846  21.756  43.6510  0.00  0.00     0.000 OA
ENDBRANCH 5 13
BRANCH 1 16
ATOM     16  O3  NAG B   2      17.782  17.455  41.7320  0.00  0.00     0.000 O
BRANCH 16 19
ATOM     17  C1  NAG B   2      16.664  14.304  40.2900  0.00  0.00     0.000 C
ATOM     18  C2  NAG B   2      17.794  15.219  40.7630  0.00  0.00     0.000 C
ATOM     19  C3  NAG B   2      17.318  16.114  41.8990  0.00  0.00     0.000 C
ATOM     20  C4  NAG B   2      15.792  16.106  42.0250  0.00  0.00     0.000 C
ATOM     21  C5  NAG B   2      15.029  16.003  40.6980  0.00  0.00     0.000 C
ATOM     22  O5  NAG B   2      15.684  15.179  39.7270  0.00  0.00     0.000 O
ATOM     23   O  NAG B   2      15.413  15.029  42.8880  0.00  0.00     0.000 O
ATOM     25  HD  NAG B   2      15.990  14.472  42.5610  0.00  0.00     0.000 HD
ATOM     25   C  NAG B   2      14.809  17.396  40.0900  0.00  0.00     0.000 C
ATOM     26   O  NAG B   2      13.638  18.029  40.6230  0.00  0.00     0.000 O
ATOM     28  HD  NAG B   2      14.215  17.472  40.2970  0.00  0.00     0.000 HD
BRANCH 18 30
ATOM     28   N  NAG B   2      18.013  13.841  41.1980  0.00  0.00     0.000 N
ATOM     30  HD  NAG B   2      17.683  13.225  41.7110  0.00  0.00     0.000 HD
ATOM     30   C  NAG B   2      19.028  13.432  41.9730  0.00  0.00     0.000 C
ATOM     31   C  NAG B   2      19.040  11.960  42.2740  0.00  0.00     0.000 C
ATOM     32   O  NAG B   2      19.873  14.177  42.4110  0.00  0.00     0.000 OA
ENDBRANCH 18 30
BRANCH 17 33
ATOM     33  O4  BDP B   3      16.030  13.466  39.3000  0.00  0.00     0.000 O
BRANCH 33 37
ATOM     34  C1  BDP B   3      15.754  10.706  36.0520  0.00  0.00     0.000 C
ATOM     35  C2  BDP B   3      16.932  10.544  37.0060  0.00  0.00     0.000 C
ATOM     36  C3  BDP B   3      16.741  11.260  38.3390  0.00  0.00     0.000 C
ATOM     37  C4  BDP B   3      16.211  12.679  38.0860  0.00  0.00     0.000 C
ATOM     38  C5  BDP B   3      14.912  12.544  37.2680  0.00  0.00     0.000 C
ATOM     39  O5  BDP B   3      15.313  12.067  35.9840  0.00  0.00     0.000 O
ATOM     40   O  BDP B   3      17.122   9.137  37.1700  0.00  0.00     0.000 O
ATOM     42  HD  BDP B   3      17.527   9.261  36.4140  0.00  0.00     0.000 HD
ATOM     42   O  BDP B   3      18.014  11.275  38.9810  0.00  0.00     0.000 O
ATOM     44  HD  BDP B   3      18.418  11.399  38.2260  0.00  0.00     0.000 HD
BRANCH 38 44
ATOM     44   C  BDP B   3      14.140  13.818  37.1180  0.00  0.00     0.000 C
ATOM     45   O  BDP B   3      13.067  13.930  37.7510  0.00  0.00     0.000 OA
ATOM     46   O  BDP B   3      14.579  14.722  36.3740  0.00  0.00     0.000 OA
ENDBRANCH 38 44
BRANCH 34 47
ATOM     47  O3  NAG B   4      16.180  10.840  34.6970  0.00  0.00     0.000 O
BRANCH 47 50
ATOM     48  C1  NAG B   4      13.716   9.250  32.3410  0.00  0.00     0.000 C
ATOM     49  C2  NAG B   4      14.652   9.344  33.5330  0.00  0.00     0.000 C
ATOM     50  C3  NAG B   4      15.236  10.750  33.6100  0.00  0.00     0.000 C
ATOM     51  C4  NAG B   4      15.919  11.144  32.3100  0.00  0.00     0.000 C
ATOM     52  C5  NAG B   4      14.952  10.963  31.1400  0.00  0.00     0.000 C
ATOM     53  O5  NAG B   4      14.411   9.636  31.1390  0.00  0.00     0.000 O
ATOM     54   O  NAG B   4      16.348  12.505  32.4040  0.00  0.00     0.000 O
ATOM     56  HD  NAG B   4      16.705  12.088  31.7340  0.00  0.00     0.000 HD
ATOM     56   C  NAG B   4      15.640  11.230  29.8070  0.00  0.00     0.000 C
ATOM     57   O  NAG B   4      16.730  10.311  29.6510  0.00  0.00     0.000 O
ATOM     59  HD  NAG B   4      17.087   9.894  28.9810  0.00  0.00     0.000 HD
BRANCH 49 61
ATOM     59   N  NAG B   4      15.191   8.009  33.2670  0.00  0.00     0.000 N
ATOM     61  HD  NAG B   4      15.329   8.669  33.8110  0.00  0.00     0.000 HD
ATOM     61   O  NAG B   4      15.405   7.368  35.4220  0.00  0.00     0.000 OA
ATOM     62   C  NAG B   4      15.451   7.114  34.2270  0.00  0.00     0.000 C
ATOM     63   C  NAG B   4      15.791   5.737  33.7520  0.00  0.00     0.000 C
ENDBRANCH 49 61
BRANCH 48 64
ATOM     64  O4  BDP B   5      12.557   8.465  32.0770  0.00  0.00     0.000 O
BRANCH 64 68
ATOM     65  C1  BDP B   5      10.822   5.688  34.6550  0.00  0.00     0.000 C
ATOM     66  C2  BDP B   5      10.960   5.254  33.2020  0.00  0.00     0.000 C
ATOM     67  C3  BDP B   5      11.968   6.149  32.4940  0.00  0.00     0.000 C
ATOM     68  C4  BDP B   5      11.554   7.611  32.6250  0.00  0.00     0.000 C
ATOM     69  C5  BDP B   5      11.315   8.012  34.0750  0.00  0.00     0.000 C
ATOM     70  O5  BDP B   5      10.440   7.071  34.7220  0.00  0.00     0.000 O
ATOM     71   O  BDP B   5      11.348   3.872  33.1480  0.00  0.00     0.000 O
ATOM     73  HD  BDP B   5      11.601   3.044  33.1720  0.00  0.00     0.000 HD
ATOM     73   O  BDP B   5      12.056   5.807  31.1050  0.00  0.00     0.000 O
ATOM     75  HD  BDP B   5      12.309   4.979  31.1290  0.00  0.00     0.000 HD
BRANCH 69 75
ATOM     75   C  BDP B   5      10.683   9.380  34.0900  0.00  0.00     0.000 C
ATOM     76   O  BDP B   5      11.108  10.229  34.9000  0.00  0.00     0.000 OA
ATOM     77   O  BDP B   5       9.759   9.627  33.2930  0.00  0.00     0.000 OA
ENDBRANCH 69 75
BRANCH 65 78
ATOM     78  O3  NAG B   6       9.654   5.561  35.4720  0.00  0.00     0.000 O
BRANCH 78 81
ATOM     79  C1  NAG B   6       8.495   3.738  38.5810  0.00  0.00     0.000 C
ATOM     80  C2  NAG B   6       8.806   3.949  37.0900  0.00  0.00     0.000 C
ATOM     81  C3  NAG B   6       9.498   5.286  36.8810  0.00  0.00     0.000 C
ATOM     82  C4  NAG B   6       8.712   6.419  37.5500  0.00  0.00     0.000 C
ATOM     83  C5  NAG B   6       8.490   6.081  39.0200  0.00  0.00     0.000 C
ATOM     84  O5  NAG B   6       7.747   4.862  39.0760  0.00  0.00     0.000 O
BRANCH 80 87
ATOM     85   N  NAG B   6       8.489   2.933  36.0910  0.00  0.00     0.000 N
ATOM     87  HD  NAG B   6       8.525   2.650  35.2730  0.00  0.00     0.000 HD
ATOM     87   C  NAG B   6       9.407   2.192  35.4580  0.00  0.00     0.000 C
ATOM     88   C  NAG B   6       8.874   1.180  34.4950  0.00  0.00     0.000 C
ATOM     89   O  NAG B   6      10.611   2.311  35.6530  0.00  0.00     0.000 OA
ENDBRANCH 80 87
ATOM     90   O  NAG B   6       8.615   7.776  40.7400  0.00  0.00     0.000 O
ATOM     92  HD  NAG B   6       8.732   6.940  40.5480  0.00  0.00     0.000 HD
ATOM     92   O  NAG B   6       8.615   7.776  40.7400  0.00  0.00     0.000 O
ATOM     94  HD  NAG B   6       8.732   6.940  40.5480  0.00  0.00     0.000 HD
ENDBRANCH 78 81
ENDBRANCH 65 78
ENDBRANCH 64 68
ENDBRANCH 48 64
ENDBRANCH 47 50
ENDBRANCH 34 47
ENDBRANCH 33 37
ENDBRANCH 17 33
ENDBRANCH 16 19
ENDBRANCH 1 16
TORSDOF 16
ENDMDL
MODEL 43
REMARK VINA RESULT:      -4.3     18.920     27.554
ROOT
ATOM      1  C1  BDP B   1      14.439  15.222  62.3940  0.00  0.00     0.000 C
ATOM      2  C2  BDP B   1      14.137  16.709  62.3330  0.00  0.00     0.000 C
ATOM      3  C3  BDP B   1      15.136  17.459  61.4770  0.00  0.00     0.000 C
ATOM      4  C4  BDP B   1      15.993  16.561  60.5910  0.00  0.00     0.000 C
ATOM      5  C5  BDP B   1      16.563  15.362  61.3420  0.00  0.00     0.000 C
ATOM      6  O5  BDP B   1      15.844  15.090  62.5560  0.00  0.00     0.000 O
ATOM      7   O  BDP B   1      12.816  16.916  61.8230  0.00  0.00     0.000 O
ATOM      9  HD  BDP B   1      11.973  16.719  61.7940  0.00  0.00     0.000 HD
ATOM      9   O  BDP B   1      16.022  18.220  62.3120  0.00  0.00     0.000 O
ATOM     11  HD  BDP B   1      15.179  18.023  62.2840  0.00  0.00     0.000 HD
ATOM     11   O  BDP B   1      15.238  16.109  59.4600  0.00  0.00     0.000 O
ATOM     13  HD  BDP B   1      14.395  15.912  59.4310  0.00  0.00     0.000 HD
ENDROOT
BRANCH 5 13
ATOM     13   C  BDP B   1      17.984  15.676  61.6590  0.00  0.00     0.000 C
ATOM     14   O  BDP B   1      18.848  15.435  60.7910  0.00  0.00     0.000 OA
ATOM     15   O  BDP B   1      18.261  16.190  62.7630  0.00  0.00     0.000 OA
ENDBRANCH 5 13
BRANCH 1 16
ATOM     16  O3  NAG B   2      13.644  14.098  62.0220  0.00  0.00     0.000 O
BRANCH 16 19
ATOM     17  C1  NAG B   2      11.331  13.040  59.4160  0.00  0.00     0.000 C
ATOM     18  C2  NAG B   2      12.619  13.747  59.8390  0.00  0.00     0.000 C
ATOM     19  C3  NAG B   2      13.192  13.108  61.0960  0.00  0.00     0.000 C
ATOM     20  C4  NAG B   2      12.176  12.188  61.7780  0.00  0.00     0.000 C
ATOM     21  C5  NAG B   2      10.716  12.656  61.6970  0.00  0.00     0.000 C
ATOM     22  O5  NAG B   2      10.395  13.309  60.4630  0.00  0.00     0.000 O
ATOM     23   O  NAG B   2      12.298  10.879  61.2140  0.00  0.00     0.000 O
ATOM     25  HD  NAG B   2      12.399  11.162  60.4020  0.00  0.00     0.000 HD
ATOM     25   C  NAG B   2      10.387  13.608  62.8550  0.00  0.00     0.000 C
ATOM     26   O  NAG B   2      10.009  12.893  64.0400  0.00  0.00     0.000 O
ATOM     28  HD  NAG B   2      10.111  13.176  63.2280  0.00  0.00     0.000 HD
BRANCH 18 30
ATOM     28   N  NAG B   2      12.873  12.815  58.7410  0.00  0.00     0.000 N
ATOM     30  HD  NAG B   2      12.990  11.973  58.5720  0.00  0.00     0.000 HD
ATOM     30   C  NAG B   2      14.017  12.740  58.0460  0.00  0.00     0.000 C
ATOM     31   C  NAG B   2      14.027  11.705  56.9560  0.00  0.00     0.000 C
ATOM     32   O  NAG B   2      14.978  13.438  58.2680  0.00  0.00     0.000 OA
ENDBRANCH 18 30
BRANCH 17 33
ATOM     33  O4  BDP B   3      10.066  13.000  58.7210  0.00  0.00     0.000 O
BRANCH 33 37
ATOM     34  C1  BDP B   3       8.520  10.488  55.6330  0.00  0.00     0.000 C
ATOM     35  C2  BDP B   3       8.817  11.938  55.2680  0.00  0.00     0.000 C
ATOM     36  C3  BDP B   3       9.738  12.640  56.2600  0.00  0.00     0.000 C
ATOM     37  C4  BDP B   3       9.271  12.341  57.6930  0.00  0.00     0.000 C
ATOM     38  C5  BDP B   3       9.246  10.809  57.8550  0.00  0.00     0.000 C
ATOM     39  O5  BDP B   3       8.184  10.350  57.0180  0.00  0.00     0.000 O
ATOM     40   O  BDP B   3       9.362  11.914  53.9470  0.00  0.00     0.000 O
ATOM     42  HD  BDP B   3       8.517  11.860  53.7670  0.00  0.00     0.000 HD
ATOM     42   O  BDP B   3       9.675  14.034  55.9610  0.00  0.00     0.000 O
ATOM     44  HD  BDP B   3       8.830  13.979  55.7810  0.00  0.00     0.000 HD
BRANCH 38 44
ATOM     44   C  BDP B   3       9.025  10.339  59.2590  0.00  0.00     0.000 C
ATOM     45   O  BDP B   3       9.948   9.704  59.8150  0.00  0.00     0.000 OA
ATOM     46   O  BDP B   3       7.940  10.586  59.8300  0.00  0.00     0.000 OA
ENDBRANCH 38 44
BRANCH 34 47
ATOM     47  O3  NAG B   4       7.172  10.128  55.3330  0.00  0.00     0.000 O
BRANCH 47 50
ATOM     48  C1  NAG B   4       6.464   6.847  53.6360  0.00  0.00     0.000 C
ATOM     49  C2  NAG B   4       6.943   8.282  53.7620  0.00  0.00     0.000 C
ATOM     50  C3  NAG B   4       6.785   8.745  55.2060  0.00  0.00     0.000 C
ATOM     51  C4  NAG B   4       5.356   8.571  55.6950  0.00  0.00     0.000 C
ATOM     52  C5  NAG B   4       4.905   7.126  55.4790  0.00  0.00     0.000 C
ATOM     53  O5  NAG B   4       5.109   6.738  54.1140  0.00  0.00     0.000 O
ATOM     54   O  NAG B   4       5.293   8.917  57.0810  0.00  0.00     0.000 O
ATOM     56  HD  NAG B   4       4.510   8.860  56.7150  0.00  0.00     0.000 HD
ATOM     56   C  NAG B   4       3.436   6.944  55.8420  0.00  0.00     0.000 C
ATOM     57   O  NAG B   4       2.640   7.805  55.0160  0.00  0.00     0.000 O
ATOM     59  HD  NAG B   4       1.857   7.748  54.6510  0.00  0.00     0.000 HD
BRANCH 49 61
ATOM     59   N  NAG B   4       8.210   8.182  53.0350  0.00  0.00     0.000 N
ATOM     61  HD  NAG B   4       7.382   8.379  52.8740  0.00  0.00     0.000 HD
ATOM     61   O  NAG B   4       7.957  10.048  51.7880  0.00  0.00     0.000 OA
ATOM     62   C  NAG B   4       8.639   9.107  52.1690  0.00  0.00     0.000 C
ATOM     63   C  NAG B   4      10.046   8.942  51.6890  0.00  0.00     0.000 C
ENDBRANCH 49 61
BRANCH 48 64
ATOM     64  O4  BDP B   5       6.829   5.774  52.7730  0.00  0.00     0.000 O
BRANCH 64 68
ATOM     65  C1  BDP B   5       8.069   5.733  48.7940  0.00  0.00     0.000 C
ATOM     66  C2  BDP B   5       6.576   5.925  49.0250  0.00  0.00     0.000 C
ATOM     67  C3  BDP B   5       6.331   6.346  50.4680  0.00  0.00     0.000 C
ATOM     68  C4  BDP B   5       6.941   5.325  51.4230  0.00  0.00     0.000 C
ATOM     69  C5  BDP B   5       8.409   5.059  51.1190  0.00  0.00     0.000 C
ATOM     70  O5  BDP B   5       8.593   4.770  49.7220  0.00  0.00     0.000 O
ATOM     71   O  BDP B   5       6.065   6.893  48.0960  0.00  0.00     0.000 O
ATOM     73  HD  BDP B   5       5.813   7.497  47.5280  0.00  0.00     0.000 HD
ATOM     73   O  BDP B   5       4.927   6.456  50.7290  0.00  0.00     0.000 O
ATOM     75  HD  BDP B   5       4.675   7.060  50.1610  0.00  0.00     0.000 HD
BRANCH 69 75
ATOM     75   C  BDP B   5       8.856   3.876  51.9400  0.00  0.00     0.000 C
ATOM     76   O  BDP B   5       9.996   3.895  52.4480  0.00  0.00     0.000 OA
ATOM     77   O  BDP B   5       8.076   2.918  52.0930  0.00  0.00     0.000 OA
ENDBRANCH 69 75
BRANCH 65 78
ATOM     78  O3  NAG B   6       8.675   4.830  47.8650  0.00  0.00     0.000 O
BRANCH 78 81
ATOM     79  C1  NAG B   6      12.288   4.361  46.8360  0.00  0.00     0.000 C
ATOM     80  C2  NAG B   6      10.941   5.081  47.0040  0.00  0.00     0.000 C
ATOM     81  C3  NAG B   6       9.989   4.232  47.8310  0.00  0.00     0.000 C
ATOM     82  C4  NAG B   6       9.901   2.808  47.2710  0.00  0.00     0.000 C
ATOM     83  C5  NAG B   6      11.302   2.216  47.1710  0.00  0.00     0.000 C
ATOM     84  O5  NAG B   6      12.062   3.047  46.2930  0.00  0.00     0.000 O
BRANCH 80 87
ATOM     85   N  NAG B   6      11.214   6.394  47.5820  0.00  0.00     0.000 N
ATOM     87  HD  NAG B   6      11.515   7.202  47.4960  0.00  0.00     0.000 HD
ATOM     87   C  NAG B   6      10.603   7.522  47.1990  0.00  0.00     0.000 C
ATOM     88   C  NAG B   6      11.000   8.759  47.9410  0.00  0.00     0.000 C
ATOM     89   O  NAG B   6       9.761   7.558  46.3100  0.00  0.00     0.000 OA
ENDBRANCH 80 87
ATOM     90   O  NAG B   6      11.734  -0.105  47.6950  0.00  0.00     0.000 O
ATOM     92  HD  NAG B   6      12.055   0.699  47.6850  0.00  0.00     0.000 HD
ATOM     92   O  NAG B   6      11.734  -0.105  47.6950  0.00  0.00     0.000 O
ATOM     94  HD  NAG B   6      12.055   0.699  47.6850  0.00  0.00     0.000 HD
ENDBRANCH 78 81
ENDBRANCH 65 78
ENDBRANCH 64 68
ENDBRANCH 48 64
ENDBRANCH 47 50
ENDBRANCH 34 47
ENDBRANCH 33 37
ENDBRANCH 17 33
ENDBRANCH 16 19
ENDBRANCH 1 16
TORSDOF 16
ENDMDL
MODEL 44
REMARK VINA RESULT:      -4.3      7.104     15.213
ROOT
ATOM      1  C1  BDP B   1      21.238  20.162  37.9450  0.00  0.00     0.000 C
ATOM      2  C2  BDP B   1      22.108  21.358  37.6000  0.00  0.00     0.000 C
ATOM      3  C3  BDP B   1      23.328  21.452  38.4920  0.00  0.00     0.000 C
ATOM      4  C4  BDP B   1      23.619  20.181  39.2830  0.00  0.00     0.000 C
ATOM      5  C5  BDP B   1      22.375  19.605  39.9540  0.00  0.00     0.000 C
ATOM      6  O5  BDP B   1      21.162  20.099  39.3610  0.00  0.00     0.000 O
ATOM      7   O  BDP B   1      22.519  21.282  36.2310  0.00  0.00     0.000 O
ATOM      9  HD  BDP B   1      22.351  21.132  35.3940  0.00  0.00     0.000 HD
ATOM      9   O  BDP B   1      23.164  22.523  39.4350  0.00  0.00     0.000 O
ATOM     11  HD  BDP B   1      22.996  22.373  38.5980  0.00  0.00     0.000 HD
ATOM     11   O  BDP B   1      24.213  19.190  38.4350  0.00  0.00     0.000 O
ATOM     13  HD  BDP B   1      24.045  19.040  37.5990  0.00  0.00     0.000 HD
ENDROOT
BRANCH 5 13
ATOM     13   C  BDP B   1      22.428  19.996  41.3890  0.00  0.00     0.000 C
ATOM     14   O  BDP B   1      21.374  20.383  41.9340  0.00  0.00     0.000 OA
ATOM     15   O  BDP B   1      23.511  19.899  42.0060  0.00  0.00     0.000 OA
ENDBRANCH 5 13
BRANCH 1 16
ATOM     16  O3  NAG B   2      20.826  19.054  37.1460  0.00  0.00     0.000 O
BRANCH 16 19
ATOM     17  C1  NAG B   2      19.503  16.186  35.3360  0.00  0.00     0.000 C
ATOM     18  C2  NAG B   2      19.278  17.438  36.1840  0.00  0.00     0.000 C
ATOM     19  C3  NAG B   2      20.373  18.462  35.9280  0.00  0.00     0.000 C
ATOM     20  C4  NAG B   2      21.560  17.848  35.1800  0.00  0.00     0.000 C
ATOM     21  C5  NAG B   2      21.878  16.392  35.5460  0.00  0.00     0.000 C
ATOM     22  O5  NAG B   2      20.713  15.610  35.8330  0.00  0.00     0.000 O
ATOM     23   O  NAG B   2      21.314  17.952  33.7730  0.00  0.00     0.000 O
ATOM     25  HD  NAG B   2      20.474  17.749  33.8340  0.00  0.00     0.000 HD
ATOM     25   C  NAG B   2      22.820  16.332  36.7570  0.00  0.00     0.000 C
ATOM     26   O  NAG B   2      24.195  16.452  36.3670  0.00  0.00     0.000 O
ATOM     28  HD  NAG B   2      23.356  16.249  36.4280  0.00  0.00     0.000 HD
BRANCH 18 30
ATOM     28   N  NAG B   2      18.389  17.422  35.0230  0.00  0.00     0.000 N
ATOM     30  HD  NAG B   2      18.382  17.550  34.1660  0.00  0.00     0.000 HD
ATOM     30   C  NAG B   2      17.404  18.303  34.7970  0.00  0.00     0.000 C
ATOM     31   C  NAG B   2      16.622  18.067  33.5360  0.00  0.00     0.000 C
ATOM     32   O  NAG B   2      17.154  19.226  35.5360  0.00  0.00     0.000 OA
ENDBRANCH 18 30
BRANCH 17 33
ATOM     33  O4  BDP B   3      19.317  14.780  35.0590  0.00  0.00     0.000 O
BRANCH 33 37
ATOM     34  C1  BDP B   3      16.932  11.358  34.1440  0.00  0.00     0.000 C
ATOM     35  C2  BDP B   3      18.218  11.544  33.3490  0.00  0.00     0.000 C
ATOM     36  C3  BDP B   3      19.203  12.510  33.9970  0.00  0.00     0.000 C
ATOM     37  C4  BDP B   3      18.455  13.770  34.4580  0.00  0.00     0.000 C
ATOM     38  C5  BDP B   3      17.328  13.314  35.4040  0.00  0.00     0.000 C
ATOM     39  O5  BDP B   3      16.395  12.612  34.5810  0.00  0.00     0.000 O
ATOM     40   O  BDP B   3      18.774  10.238  33.1780  0.00  0.00     0.000 O
ATOM     42  HD  BDP B   3      18.179  10.236  32.5490  0.00  0.00     0.000 HD
ATOM     42   O  BDP B   3      20.192  12.809  33.0130  0.00  0.00     0.000 O
ATOM     44  HD  BDP B   3      19.597  12.807  32.3840  0.00  0.00     0.000 HD
BRANCH 38 44
ATOM     44   C  BDP B   3      16.633  14.428  36.1220  0.00  0.00     0.000 C
ATOM     45   O  BDP B   3      16.775  14.504  37.3620  0.00  0.00     0.000 OA
ATOM     46   O  BDP B   3      15.938  15.242  35.4750  0.00  0.00     0.000 OA
ENDBRANCH 38 44
BRANCH 34 47
ATOM     47  O3  NAG B   4      15.792  11.236  33.2950  0.00  0.00     0.000 O
BRANCH 47 50
ATOM     48  C1  NAG B   4      13.471   8.340  33.9110  0.00  0.00     0.000 C
ATOM     49  C2  NAG B   4      14.755   9.043  33.5050  0.00  0.00     0.000 C
ATOM     50  C3  NAG B   4      14.607  10.542  33.7380  0.00  0.00     0.000 C
ATOM     51  C4  NAG B   4      13.392  11.104  33.0180  0.00  0.00     0.000 C
ATOM     52  C5  NAG B   4      12.144  10.313  33.4120  0.00  0.00     0.000 C
ATOM     53  O5  NAG B   4      12.354   8.911  33.2030  0.00  0.00     0.000 O
ATOM     54   O  NAG B   4      13.244  12.484  33.3600  0.00  0.00     0.000 O
ATOM     56  HD  NAG B   4      12.761  12.256  32.6790  0.00  0.00     0.000 HD
ATOM     56   C  NAG B   4      10.926  10.766  32.6150  0.00  0.00     0.000 C
ATOM     57   O  NAG B   4      11.179  10.563  31.2190  0.00  0.00     0.000 O
ATOM     59  HD  NAG B   4      10.696  10.334  30.5370  0.00  0.00     0.000 HD
BRANCH 49 61
ATOM     59   N  NAG B   4      15.632   8.027  34.0880  0.00  0.00     0.000 N
ATOM     61  HD  NAG B   4      15.299   8.232  33.3150  0.00  0.00     0.000 HD
ATOM     61   O  NAG B   4      17.149   7.985  32.4150  0.00  0.00     0.000 OA
ATOM     62   C  NAG B   4      16.786   7.641  33.5310  0.00  0.00     0.000 C
ATOM     63   C  NAG B   4      17.647   6.756  34.3740  0.00  0.00     0.000 C
ENDBRANCH 49 61
BRANCH 48 64
ATOM     64  O4  BDP B   5      13.197   7.035  34.4100  0.00  0.00     0.000 O
BRANCH 64 68
ATOM     65  C1  BDP B   5       9.441   5.228  34.4120  0.00  0.00     0.000 C
ATOM     66  C2  BDP B   5       9.964   5.680  35.7690  0.00  0.00     0.000 C
ATOM     67  C3  BDP B   5      11.099   6.678  35.5740  0.00  0.00     0.000 C
ATOM     68  C4  BDP B   5      12.192   6.066  34.7050  0.00  0.00     0.000 C
ATOM     69  C5  BDP B   5      11.644   5.520  33.3920  0.00  0.00     0.000 C
ATOM     70  O5  BDP B   5      10.510   4.668  33.6320  0.00  0.00     0.000 O
ATOM     71   O  BDP B   5       8.889   6.243  36.5360  0.00  0.00     0.000 O
ATOM     73  HD  BDP B   5       8.210   6.590  36.9480  0.00  0.00     0.000 HD
ATOM     73   O  BDP B   5      11.657   7.057  36.8370  0.00  0.00     0.000 O
ATOM     75  HD  BDP B   5      10.978   7.404  37.2490  0.00  0.00     0.000 HD
BRANCH 69 75
ATOM     75   C  BDP B   5      12.734   4.728  32.7170  0.00  0.00     0.000 C
ATOM     76   O  BDP B   5      13.108   5.072  31.5780  0.00  0.00     0.000 OA
ATOM     77   O  BDP B   5      13.233   3.757  33.3160  0.00  0.00     0.000 OA
ENDBRANCH 69 75
BRANCH 65 78
ATOM     78  O3  NAG B   6       8.858   3.958  34.1070  0.00  0.00     0.000 O
BRANCH 78 81
ATOM     79  C1  NAG B   6       5.846   2.878  32.0830  0.00  0.00     0.000 C
ATOM     80  C2  NAG B   6       6.621   3.520  33.2440  0.00  0.00     0.000 C
ATOM     81  C3  NAG B   6       8.114   3.498  32.9580  0.00  0.00     0.000 C
ATOM     82  C4  NAG B   6       8.574   2.090  32.5670  0.00  0.00     0.000 C
ATOM     83  C5  NAG B   6       7.731   1.587  31.4000  0.00  0.00     0.000 C
ATOM     84  O5  NAG B   6       6.369   1.562  31.8300  0.00  0.00     0.000 O
BRANCH 80 87
ATOM     85   N  NAG B   6       6.078   4.095  34.4720  0.00  0.00     0.000 N
ATOM     87  HD  NAG B   6       6.176   4.597  35.1700  0.00  0.00     0.000 HD
ATOM     87   C  NAG B   6       5.853   5.403  34.6510  0.00  0.00     0.000 C
ATOM     88   C  NAG B   6       5.259   5.784  35.9690  0.00  0.00     0.000 C
ATOM     89   O  NAG B   6       6.099   6.246  33.7960  0.00  0.00     0.000 OA
ENDBRANCH 80 87
ATOM     90   O  NAG B   6       8.702   0.293  29.6030  0.00  0.00     0.000 O
ATOM     92  HD  NAG B   6       8.085   0.858  29.8270  0.00  0.00     0.000 HD
ATOM     92   O  NAG B   6       8.702   0.293  29.6030  0.00  0.00     0.000 O
ATOM     94  HD  NAG B   6       8.085   0.858  29.8270  0.00  0.00     0.000 HD
ENDBRANCH 78 81
ENDBRANCH 65 78
ENDBRANCH 64 68
ENDBRANCH 48 64
ENDBRANCH 47 50
ENDBRANCH 34 47
ENDBRANCH 33 37
ENDBRANCH 17 33
ENDBRANCH 16 19
ENDBRANCH 1 16
TORSDOF 16
ENDMDL
MODEL 45
REMARK VINA RESULT:      -4.3      8.856     15.073
ROOT
ATOM      1  C1  BDP B   1      20.613  22.695  38.9120  0.00  0.00     0.000 C
ATOM      2  C2  BDP B   1      21.579  22.209  39.9770  0.00  0.00     0.000 C
ATOM      3  C3  BDP B   1      21.315  22.851  41.3220  0.00  0.00     0.000 C
ATOM      4  C4  BDP B   1      19.964  23.551  41.4220  0.00  0.00     0.000 C
ATOM      5  C5  BDP B   1      19.669  24.439  40.2170  0.00  0.00     0.000 C
ATOM      6  O5  BDP B   1      20.482  24.099  39.0810  0.00  0.00     0.000 O
ATOM      7   O  BDP B   1      21.492  20.785  40.0990  0.00  0.00     0.000 O
ATOM      9  HD  BDP B   1      21.441  19.994  39.7490  0.00  0.00     0.000 HD
ATOM      9   O  BDP B   1      22.332  23.824  41.6090  0.00  0.00     0.000 O
ATOM     11  HD  BDP B   1      22.281  23.033  41.2590  0.00  0.00     0.000 HD
ATOM     11   O  BDP B   1      18.914  22.590  41.5820  0.00  0.00     0.000 O
ATOM     13  HD  BDP B   1      18.863  21.799  41.2330  0.00  0.00     0.000 HD
ENDROOT
BRANCH 5 13
ATOM     13   C  BDP B   1      19.943  25.844  40.6280  0.00  0.00     0.000 C
ATOM     14   O  BDP B   1      20.641  26.553  39.8740  0.00  0.00     0.000 OA
ATOM     15   O  BDP B   1      19.449  26.274  41.6920  0.00  0.00     0.000 OA
ENDBRANCH 5 13
BRANCH 1 16
ATOM     16  O3  NAG B   2      19.693  21.974  38.0950  0.00  0.00     0.000 O
BRANCH 16 19
ATOM     17  C1  NAG B   2      18.033  20.115  35.4410  0.00  0.00     0.000 C
ATOM     18  C2  NAG B   2      18.194  20.452  36.9230  0.00  0.00     0.000 C
ATOM     19  C3  NAG B   2      18.675  21.885  37.0970  0.00  0.00     0.000 C
ATOM     20  C4  NAG B   2      19.188  22.475  35.7810  0.00  0.00     0.000 C
ATOM     21  C5  NAG B   2      19.910  21.482  34.8590  0.00  0.00     0.000 C
ATOM     22  O5  NAG B   2      19.356  20.162  34.9000  0.00  0.00     0.000 O
ATOM     23   O  NAG B   2      18.085  23.067  35.0870  0.00  0.00     0.000 O
ATOM     25  HD  NAG B   2      17.530  22.432  35.2830  0.00  0.00     0.000 HD
ATOM     25   C  NAG B   2      21.401  21.398  35.2160  0.00  0.00     0.000 C
ATOM     26   O  NAG B   2      22.160  22.429  34.5680  0.00  0.00     0.000 O
ATOM     28  HD  NAG B   2      21.605  21.793  34.7640  0.00  0.00     0.000 HD
BRANCH 18 30
ATOM     28   N  NAG B   2      16.782  20.354  36.5560  0.00  0.00     0.000 N
ATOM     30  HD  NAG B   2      16.181  20.716  36.0480  0.00  0.00     0.000 HD
ATOM     30   C  NAG B   2      15.755  20.651  37.3650  0.00  0.00     0.000 C
ATOM     31   C  NAG B   2      14.395  20.457  36.7570  0.00  0.00     0.000 C
ATOM     32   O  NAG B   2      15.893  21.053  38.4970  0.00  0.00     0.000 OA
ENDBRANCH 18 30
BRANCH 17 33
ATOM     33  O4  BDP B   3      17.956  19.177  34.3450  0.00  0.00     0.000 O
BRANCH 33 37
ATOM     34  C1  BDP B   3      16.380  15.711  32.4100  0.00  0.00     0.000 C
ATOM     35  C2  BDP B   3      16.564  16.962  31.5590  0.00  0.00     0.000 C
ATOM     36  C3  BDP B   3      17.500  17.992  32.1810  0.00  0.00     0.000 C
ATOM     37  C4  BDP B   3      17.142  18.179  33.6630  0.00  0.00     0.000 C
ATOM     38  C5  BDP B   3      17.221  16.793  34.3310  0.00  0.00     0.000 C
ATOM     39  O5  BDP B   3      16.139  16.039  33.7840  0.00  0.00     0.000 O
ATOM     40   O  BDP B   3      17.027  16.512  30.2830  0.00  0.00     0.000 O
ATOM     42  HD  BDP B   3      16.177  16.368  30.1990  0.00  0.00     0.000 HD
ATOM     42   O  BDP B   3      17.333  19.198  31.4380  0.00  0.00     0.000 O
ATOM     44  HD  BDP B   3      16.483  19.055  31.3540  0.00  0.00     0.000 HD
BRANCH 38 44
ATOM     44   C  BDP B   3      17.116  16.818  35.8240  0.00  0.00     0.000 C
ATOM     45   O  BDP B   3      18.080  16.376  36.4860  0.00  0.00     0.000 OA
ATOM     46   O  BDP B   3      16.083  17.272  36.3640  0.00  0.00     0.000 OA
ENDBRANCH 38 44
BRANCH 34 47
ATOM     47  O3  NAG B   4      15.041  15.221  32.3560  0.00  0.00     0.000 O
BRANCH 47 50
ATOM     48  C1  NAG B   4      14.537  11.543  31.7530  0.00  0.00     0.000 C
ATOM     49  C2  NAG B   4      14.924  12.974  31.4260  0.00  0.00     0.000 C
ATOM     50  C3  NAG B   4      14.742  13.844  32.6640  0.00  0.00     0.000 C
ATOM     51  C4  NAG B   4      13.328  13.743  33.2150  0.00  0.00     0.000 C
ATOM     52  C5  NAG B   4      12.970  12.277  33.4580  0.00  0.00     0.000 C
ATOM     53  O5  NAG B   4      13.193  11.505  32.2720  0.00  0.00     0.000 O
ATOM     54   O  NAG B   4      13.248  14.491  34.4310  0.00  0.00     0.000 O
ATOM     56  HD  NAG B   4      12.469  14.279  34.1180  0.00  0.00     0.000 HD
ATOM     56   C  NAG B   4      11.516  12.128  33.8930  0.00  0.00     0.000 C
ATOM     57   O  NAG B   4      10.664  12.646  32.8630  0.00  0.00     0.000 O
ATOM     59  HD  NAG B   4       9.885  12.434  32.5500  0.00  0.00     0.000 HD
BRANCH 49 61
ATOM     59   N  NAG B   4      16.164  12.686  30.7030  0.00  0.00     0.000 N
ATOM     61  HD  NAG B   4      15.326  12.817  30.5290  0.00  0.00     0.000 HD
ATOM     61   O  NAG B   4      15.817  14.111  28.9860  0.00  0.00     0.000 OA
ATOM     62   C  NAG B   4      16.536  13.329  29.5900  0.00  0.00     0.000 C
ATOM     63   C  NAG B   4      17.927  13.051  29.1160  0.00  0.00     0.000 C
ENDBRANCH 49 61
BRANCH 48 64
ATOM     64  O4  BDP B   5      14.966  10.282  31.2480  0.00  0.00     0.000 O
BRANCH 64 68
ATOM     65  C1  BDP B   5      15.254   6.765  33.4670  0.00  0.00     0.000 C
ATOM     66  C2  BDP B   5      16.566   7.488  33.1890  0.00  0.00     0.000 C
ATOM     67  C3  BDP B   5      16.281   8.924  32.7690  0.00  0.00     0.000 C
ATOM     68  C4  BDP B   5      15.341   8.943  31.5680  0.00  0.00     0.000 C
ATOM     69  C5  BDP B   5      14.077   8.130  31.8150  0.00  0.00     0.000 C
ATOM     70  O5  BDP B   5      14.406   6.820  32.3090  0.00  0.00     0.000 O
ATOM     71   O  BDP B   5      17.403   7.432  34.3540  0.00  0.00     0.000 O
ATOM     73  HD  BDP B   5      17.859   7.387  35.0900  0.00  0.00     0.000 HD
ATOM     73   O  BDP B   5      17.497   9.600  32.4280  0.00  0.00     0.000 O
ATOM     75  HD  BDP B   5      17.952   9.554  33.1630  0.00  0.00     0.000 HD
BRANCH 69 75
ATOM     75   C  BDP B   5      13.333   8.004  30.5100  0.00  0.00     0.000 C
ATOM     76   O  BDP B   5      13.580   7.029  29.7710  0.00  0.00     0.000 OA
ATOM     77   O  BDP B   5      12.492   8.870  30.2080  0.00  0.00     0.000 OA
ENDBRANCH 69 75
BRANCH 65 78
ATOM     78  O3  NAG B   6      15.005   5.367  33.3040  0.00  0.00     0.000 O
BRANCH 78 81
ATOM     79  C1  NAG B   6      12.983   2.470  34.6650  0.00  0.00     0.000 C
ATOM     80  C2  NAG B   6      14.188   3.410  34.5050  0.00  0.00     0.000 C
ATOM     81  C3  NAG B   6      13.836   4.565  33.5810  0.00  0.00     0.000 C
ATOM     82  C4  NAG B   6      13.232   4.051  32.2700  0.00  0.00     0.000 C
ATOM     83  C5  NAG B   6      12.044   3.146  32.5800  0.00  0.00     0.000 C
ATOM     84  O5  NAG B   6      12.526   2.055  33.3650  0.00  0.00     0.000 O
BRANCH 80 87
ATOM     85   N  NAG B   6      14.864   4.303  35.4410  0.00  0.00     0.000 N
ATOM     87  HD  NAG B   6      15.059   4.526  36.2550  0.00  0.00     0.000 HD
ATOM     87   C  NAG B   6      15.876   3.930  36.2340  0.00  0.00     0.000 C
ATOM     88   C  NAG B   6      16.455   5.006  37.0970  0.00  0.00     0.000 C
ATOM     89   O  NAG B   6      16.323   2.789  36.2550  0.00  0.00     0.000 OA
ENDBRANCH 80 87
ATOM     90   O  NAG B   6      10.043   3.177  31.2220  0.00  0.00     0.000 O
ATOM     92  HD  NAG B   6      10.371   3.046  32.0130  0.00  0.00     0.000 HD
ATOM     92   O  NAG B   6      10.043   3.177  31.2220  0.00  0.00     0.000 O
ATOM     94  HD  NAG B   6      10.371   3.046  32.0130  0.00  0.00     0.000 HD
ENDBRANCH 78 81
ENDBRANCH 65 78
ENDBRANCH 64 68
ENDBRANCH 48 64
ENDBRANCH 47 50
ENDBRANCH 34 47
ENDBRANCH 33 37
ENDBRANCH 17 33
ENDBRANCH 16 19
ENDBRANCH 1 16
TORSDOF 16
ENDMDL
MODEL 46
REMARK VINA RESULT:      -4.3     11.323     15.925
ROOT
ATOM      1  C1  BDP B   1      17.207  23.415  36.6310  0.00  0.00     0.000 C
ATOM      2  C2  BDP B   1      16.198  24.446  37.1060  0.00  0.00     0.000 C
ATOM      3  C3  BDP B   1      15.884  25.470  36.0360  0.00  0.00     0.000 C
ATOM      4  C4  BDP B   1      16.343  25.070  34.6390  0.00  0.00     0.000 C
ATOM      5  C5  BDP B   1      17.773  24.537  34.6170  0.00  0.00     0.000 C
ATOM      6  O5  BDP B   1      18.214  24.117  35.9190  0.00  0.00     0.000 O
ATOM      7   O  BDP B   1      14.992  23.793  37.5160  0.00  0.00     0.000 O
ATOM      9  HD  BDP B   1      14.575  23.159  37.9330  0.00  0.00     0.000 HD
ATOM      9   O  BDP B   1      16.509  26.722  36.3590  0.00  0.00     0.000 O
ATOM     11  HD  BDP B   1      16.092  26.088  36.7750  0.00  0.00     0.000 HD
ATOM     11   O  BDP B   1      15.455  24.094  34.0810  0.00  0.00     0.000 O
ATOM     13  HD  BDP B   1      15.038  23.459  34.4980  0.00  0.00     0.000 HD
ENDROOT
BRANCH 5 13
ATOM     13   C  BDP B   1      18.645  25.637  34.1210  0.00  0.00     0.000 C
ATOM     14   O  BDP B   1      19.872  25.421  34.0310  0.00  0.00     0.000 OA
ATOM     15   O  BDP B   1      18.125  26.723  33.7870  0.00  0.00     0.000 OA
ENDBRANCH 5 13
BRANCH 1 16
ATOM     16  O3  NAG B   2      17.106  21.995  36.5350  0.00  0.00     0.000 O
BRANCH 16 19
ATOM     17  C1  NAG B   2      16.590  19.720  33.7390  0.00  0.00     0.000 C
ATOM     18  C2  NAG B   2      17.351  20.880  34.3830  0.00  0.00     0.000 C
ATOM     19  C3  NAG B   2      17.356  20.741  35.8980  0.00  0.00     0.000 C
ATOM     20  C4  NAG B   2      16.335  19.706  36.3760  0.00  0.00     0.000 C
ATOM     21  C5  NAG B   2      15.037  19.644  35.5590  0.00  0.00     0.000 C
ATOM     22  O5  NAG B   2      15.234  19.883  34.1600  0.00  0.00     0.000 O
ATOM     23   O  NAG B   2      16.963  18.419  36.3860  0.00  0.00     0.000 O
ATOM     25  HD  NAG B   2      17.387  18.543  35.6420  0.00  0.00     0.000 HD
ATOM     25   C  NAG B   2      14.015  20.659  36.0910  0.00  0.00     0.000 C
ATOM     26   O  NAG B   2      13.257  20.125  37.1860  0.00  0.00     0.000 O
ATOM     28  HD  NAG B   2      13.682  20.248  36.4410  0.00  0.00     0.000 HD
BRANCH 18 30
ATOM     28   N  NAG B   2      18.272  19.891  33.8230  0.00  0.00     0.000 N
ATOM     30  HD  NAG B   2      18.596  19.101  33.9670  0.00  0.00     0.000 HD
ATOM     30   C  NAG B   2      19.604  20.030  33.7620  0.00  0.00     0.000 C
ATOM     31   C  NAG B   2      20.331  18.877  33.1300  0.00  0.00     0.000 C
ATOM     32   O  NAG B   2      20.193  20.998  34.1840  0.00  0.00     0.000 OA
ENDBRANCH 18 30
BRANCH 17 33
ATOM     33  O4  BDP B   3      15.851  19.126  32.6500  0.00  0.00     0.000 O
BRANCH 33 37
ATOM     34  C1  BDP B   3      13.063  18.997  29.4170  0.00  0.00     0.000 C
ATOM     35  C2  BDP B   3      13.619  20.362  29.8040  0.00  0.00     0.000 C
ATOM     36  C3  BDP B   3      14.888  20.289  30.6460  0.00  0.00     0.000 C
ATOM     37  C4  BDP B   3      14.703  19.247  31.7590  0.00  0.00     0.000 C
ATOM     38  C5  BDP B   3      14.337  17.912  31.0810  0.00  0.00     0.000 C
ATOM     39  O5  BDP B   3      13.031  18.103  30.5360  0.00  0.00     0.000 O
ATOM     40   O  BDP B   3      13.822  21.072  28.5800  0.00  0.00     0.000 O
ATOM     42  HD  BDP B   3      12.971  21.193  28.6900  0.00  0.00     0.000 HD
ATOM     42   O  BDP B   3      15.105  21.596  31.1730  0.00  0.00     0.000 O
ATOM     44  HD  BDP B   3      14.255  21.717  31.2830  0.00  0.00     0.000 HD
BRANCH 38 44
ATOM     44   C  BDP B   3      14.335  16.731  32.0010  0.00  0.00     0.000 C
ATOM     45   O  BDP B   3      13.526  16.733  32.9550  0.00  0.00     0.000 OA
ATOM     46   O  BDP B   3      15.129  15.787  31.7960  0.00  0.00     0.000 OA
ENDBRANCH 38 44
BRANCH 34 47
ATOM     47  O3  NAG B   4      11.637  18.976  29.4370  0.00  0.00     0.000 O
BRANCH 47 50
ATOM     48  C1  NAG B   4       9.730  17.766  26.4290  0.00  0.00     0.000 C
ATOM     49  C2  NAG B   4      10.570  18.717  27.2640  0.00  0.00     0.000 C
ATOM     50  C3  NAG B   4      10.896  18.063  28.6020  0.00  0.00     0.000 C
ATOM     51  C4  NAG B   4       9.637  17.617  29.3280  0.00  0.00     0.000 C
ATOM     52  C5  NAG B   4       8.800  16.722  28.4150  0.00  0.00     0.000 C
ATOM     53  O5  NAG B   4       8.554  17.375  27.1630  0.00  0.00     0.000 O
ATOM     54   O  NAG B   4      10.009  16.917  30.5180  0.00  0.00     0.000 O
ATOM     56  HD  NAG B   4       9.171  17.136  30.5080  0.00  0.00     0.000 HD
ATOM     56   C  NAG B   4       7.470  16.358  29.0640  0.00  0.00     0.000 C
ATOM     57   O  NAG B   4       6.735  17.560  29.3320  0.00  0.00     0.000 O
ATOM     59  HD  NAG B   4       5.897  17.779  29.3220  0.00  0.00     0.000 HD
BRANCH 49 61
ATOM     59   N  NAG B   4      11.544  19.129  26.2520  0.00  0.00     0.000 N
ATOM     61  HD  NAG B   4      10.781  19.393  26.5650  0.00  0.00     0.000 HD
ATOM     61   O  NAG B   4      11.470  21.344  26.6900  0.00  0.00     0.000 OA
ATOM     62   C  NAG B   4      11.962  20.391  26.1020  0.00  0.00     0.000 C
ATOM     63   C  NAG B   4      13.113  20.584  25.1660  0.00  0.00     0.000 C
ENDBRANCH 49 61
BRANCH 48 64
ATOM     64  O4  BDP B   5       9.589  17.576  25.0240  0.00  0.00     0.000 O
BRANCH 64 68
ATOM     65  C1  BDP B   5       8.924  17.966  20.9280  0.00  0.00     0.000 C
ATOM     66  C2  BDP B   5      10.367  18.128  21.3880  0.00  0.00     0.000 C
ATOM     67  C3  BDP B   5      10.527  17.548  22.7870  0.00  0.00     0.000 C
ATOM     68  C4  BDP B   5       9.536  18.202  23.7430  0.00  0.00     0.000 C
ATOM     69  C5  BDP B   5       8.105  18.129  23.2260  0.00  0.00     0.000 C
ATOM     70  O5  BDP B   5       8.034  18.592  21.8660  0.00  0.00     0.000 O
ATOM     71   O  BDP B   5      11.246  17.493  20.4460  0.00  0.00     0.000 O
ATOM     73  HD  BDP B   5      11.729  17.079  19.8590  0.00  0.00     0.000 HD
ATOM     73   O  BDP B   5      11.859  17.759  23.2700  0.00  0.00     0.000 O
ATOM     75  HD  BDP B   5      12.342  17.345  22.6820  0.00  0.00     0.000 HD
BRANCH 69 75
ATOM     75   C  BDP B   5       7.240  19.002  24.1000  0.00  0.00     0.000 C
ATOM     76   O  BDP B   5       6.193  18.522  24.5780  0.00  0.00     0.000 OA
ATOM     77   O  BDP B   5       7.597  20.174  24.3230  0.00  0.00     0.000 OA
ENDBRANCH 69 75
BRANCH 65 78
ATOM     78  O3  NAG B   6       8.218  18.826  20.0300  0.00  0.00     0.000 O
BRANCH 78 81
ATOM     79  C1  NAG B   6       5.379  19.638  17.6600  0.00  0.00     0.000 C
ATOM     80  C2  NAG B   6       6.676  19.862  18.4530  0.00  0.00     0.000 C
ATOM     81  C3  NAG B   6       7.089  18.583  19.1620  0.00  0.00     0.000 C
ATOM     82  C4  NAG B   6       5.922  18.007  19.9710  0.00  0.00     0.000 C
ATOM     83  C5  NAG B   6       4.714  17.825  19.0590  0.00  0.00     0.000 C
ATOM     84  O5  NAG B   6       4.369  19.110  18.5380  0.00  0.00     0.000 O
BRANCH 80 87
ATOM     85   N  NAG B   6       7.971  20.141  17.8380  0.00  0.00     0.000 N
ATOM     87  HD  NAG B   6       8.440  20.534  17.2240  0.00  0.00     0.000 HD
ATOM     87   C  NAG B   6       8.542  21.351  17.8110  0.00  0.00     0.000 C
ATOM     88   C  NAG B   6       9.889  21.419  17.1630  0.00  0.00     0.000 C
ATOM     89   O  NAG B   6       8.019  22.349  18.2930  0.00  0.00     0.000 OA
ENDBRANCH 80 87
ATOM     90   O  NAG B   6       3.253  15.909  19.2620  0.00  0.00     0.000 O
ATOM     92  HD  NAG B   6       3.590  16.500  18.7250  0.00  0.00     0.000 HD
ATOM     92   O  NAG B   6       3.253  15.909  19.2620  0.00  0.00     0.000 O
ATOM     94  HD  NAG B   6       3.590  16.500  18.7250  0.00  0.00     0.000 HD
ENDBRANCH 78 81
ENDBRANCH 65 78
ENDBRANCH 64 68
ENDBRANCH 48 64
ENDBRANCH 47 50
ENDBRANCH 34 47
ENDBRANCH 33 37
ENDBRANCH 17 33
ENDBRANCH 16 19
ENDBRANCH 1 16
TORSDOF 16
ENDMDL
MODEL 47
REMARK VINA RESULT:      -4.3     12.255     18.650
ROOT
ATOM      1  C1  BDP B   1       9.127  15.312  52.8130  0.00  0.00     0.000 C
ATOM      2  C2  BDP B   1      10.634  15.332  52.9980  0.00  0.00     0.000 C
ATOM      3  C3  BDP B   1      11.028  15.505  54.4490  0.00  0.00     0.000 C
ATOM      4  C4  BDP B   1       9.889  15.268  55.4340  0.00  0.00     0.000 C
ATOM      5  C5  BDP B   1       8.601  15.978  55.0300  0.00  0.00     0.000 C
ATOM      6  O5  BDP B   1       8.594  16.337  53.6380  0.00  0.00     0.000 O
ATOM      7   O  BDP B   1      11.204  14.123  52.4850  0.00  0.00     0.000 O
ATOM      9  HD  BDP B   1      11.263  13.509  51.8780  0.00  0.00     0.000 HD
ATOM      9   O  BDP B   1      11.523  16.835  54.6680  0.00  0.00     0.000 O
ATOM     11  HD  BDP B   1      11.582  16.221  54.0600  0.00  0.00     0.000 HD
ATOM     11   O  BDP B   1       9.641  13.864  55.5830  0.00  0.00     0.000 O
ATOM     13  HD  BDP B   1       9.699  13.250  54.9750  0.00  0.00     0.000 HD
ENDROOT
BRANCH 5 13
ATOM     13   C  BDP B   1       8.493  17.205  55.8660  0.00  0.00     0.000 C
ATOM     14   O  BDP B   1       8.032  17.094  57.0200  0.00  0.00     0.000 OA
ATOM     15   O  BDP B   1       8.890  18.295  55.3990  0.00  0.00     0.000 OA
ENDBRANCH 5 13
BRANCH 1 16
ATOM     16  O3  NAG B   2       8.275  14.314  52.2530  0.00  0.00     0.000 O
BRANCH 16 19
ATOM     17  C1  NAG B   2       6.865  12.572  49.3840  0.00  0.00     0.000 C
ATOM     18  C2  NAG B   2       8.017  13.338  50.0360  0.00  0.00     0.000 C
ATOM     19  C3  NAG B   2       8.034  13.101  51.5390  0.00  0.00     0.000 C
ATOM     20  C4  NAG B   2       6.731  12.463  52.0280  0.00  0.00     0.000 C
ATOM     21  C5  NAG B   2       5.464  12.924  51.2930  0.00  0.00     0.000 C
ATOM     22  O5  NAG B   2       5.675  13.175  49.8990  0.00  0.00     0.000 O
ATOM     23   O  NAG B   2       6.856  11.041  51.9330  0.00  0.00     0.000 O
ATOM     25  HD  NAG B   2       7.266  11.058  51.1700  0.00  0.00     0.000 HD
ATOM     25   C  NAG B   2       4.896  14.195  51.9390  0.00  0.00     0.000 C
ATOM     26   O  NAG B   2       4.043  13.889  53.0520  0.00  0.00     0.000 O
ATOM     28  HD  NAG B   2       4.452  13.906  52.2890  0.00  0.00     0.000 HD
BRANCH 18 30
ATOM     28   N  NAG B   2       8.524  12.036  49.6060  0.00  0.00     0.000 N
ATOM     30  HD  NAG B   2       8.706  11.242  49.9010  0.00  0.00     0.000 HD
ATOM     30   C  NAG B   2       9.788  11.790  49.2310  0.00  0.00     0.000 C
ATOM     31   C  NAG B   2      10.061  10.370  48.8220  0.00  0.00     0.000 C
ATOM     32   O  NAG B   2      10.656  12.631  49.2230  0.00  0.00     0.000 OA
ENDBRANCH 18 30
BRANCH 17 33
ATOM     33  O4  BDP B   3       5.918  12.356  48.3150  0.00  0.00     0.000 O
BRANCH 33 37
ATOM     34  C1  BDP B   3       6.047  11.881  44.0730  0.00  0.00     0.000 C
ATOM     35  C2  BDP B   3       6.331  13.272  44.6270  0.00  0.00     0.000 C
ATOM     36  C3  BDP B   3       6.683  13.278  46.1100  0.00  0.00     0.000 C
ATOM     37  C4  BDP B   3       5.691  12.388  46.8760  0.00  0.00     0.000 C
ATOM     38  C5  BDP B   3       5.746  10.987  46.2360  0.00  0.00     0.000 C
ATOM     39  O5  BDP B   3       5.178  11.136  44.9350  0.00  0.00     0.000 O
ATOM     40   O  BDP B   3       7.376  13.817  43.8200  0.00  0.00     0.000 O
ATOM     42  HD  BDP B   3       6.693  13.969  43.3110  0.00  0.00     0.000 HD
ATOM     42   O  BDP B   3       6.619  14.636  46.5410  0.00  0.00     0.000 O
ATOM     44  HD  BDP B   3       5.935  14.788  46.0310  0.00  0.00     0.000 HD
BRANCH 38 44
ATOM     44   C  BDP B   3       5.004   9.931  46.9950  0.00  0.00     0.000 C
ATOM     45   O  BDP B   3       3.754   9.976  46.9910  0.00  0.00     0.000 OA
ATOM     46   O  BDP B   3       5.642   9.046  47.6060  0.00  0.00     0.000 OA
ENDBRANCH 38 44
BRANCH 34 47
ATOM     47  O3  NAG B   4       4.988  11.893  43.1170  0.00  0.00     0.000 O
BRANCH 47 50
ATOM     48  C1  NAG B   4       5.452   9.582  40.1850  0.00  0.00     0.000 C
ATOM     49  C2  NAG B   4       5.763  10.741  41.1160  0.00  0.00     0.000 C
ATOM     50  C3  NAG B   4       4.752  10.759  42.2570  0.00  0.00     0.000 C
ATOM     51  C4  NAG B   4       3.323  10.805  41.7380  0.00  0.00     0.000 C
ATOM     52  C5  NAG B   4       3.091   9.658  40.7540  0.00  0.00     0.000 C
ATOM     53  O5  NAG B   4       4.090   9.673  39.7250  0.00  0.00     0.000 O
ATOM     54   O  NAG B   4       2.422  10.710  42.8440  0.00  0.00     0.000 O
ATOM     56  HD  NAG B   4       2.030  10.966  42.1160  0.00  0.00     0.000 HD
ATOM     56   C  NAG B   4       1.709   9.746  40.1170  0.00  0.00     0.000 C
ATOM     57   O  NAG B   4       1.597  10.989  39.4120  0.00  0.00     0.000 O
ATOM     59  HD  NAG B   4       1.205  11.245  38.6840  0.00  0.00     0.000 HD
BRANCH 49 61
ATOM     59   N  NAG B   4       7.199  10.570  41.3360  0.00  0.00     0.000 N
ATOM     61  HD  NAG B   4       6.670  10.982  40.7870  0.00  0.00     0.000 HD
ATOM     61   O  NAG B   4       7.789  12.718  40.9580  0.00  0.00     0.000 OA
ATOM     62   C  NAG B   4       8.075  11.583  41.3100  0.00  0.00     0.000 C
ATOM     63   C  NAG B   4       9.460  11.252  41.7670  0.00  0.00     0.000 C
ENDBRANCH 49 61
BRANCH 48 64
ATOM     64  O4  BDP B   5       6.265   8.773  39.3400  0.00  0.00     0.000 O
BRANCH 64 68
ATOM     65  C1  BDP B   5       8.052   5.773  37.0650  0.00  0.00     0.000 C
ATOM     66  C2  BDP B   5       6.603   6.093  36.7260  0.00  0.00     0.000 C
ATOM     67  C3  BDP B   5       6.228   7.450  37.3070  0.00  0.00     0.000 C
ATOM     68  C4  BDP B   5       6.490   7.468  38.8090  0.00  0.00     0.000 C
ATOM     69  C5  BDP B   5       7.914   7.045  39.1490  0.00  0.00     0.000 C
ATOM     70  O5  BDP B   5       8.246   5.811  38.4880  0.00  0.00     0.000 O
ATOM     71   O  BDP B   5       6.422   6.058  35.3020  0.00  0.00     0.000 O
ATOM     73  HD  BDP B   5       6.373   6.043  34.4370  0.00  0.00     0.000 HD
ATOM     73   O  BDP B   5       4.845   7.736  37.0660  0.00  0.00     0.000 O
ATOM     75  HD  BDP B   5       4.796   7.722  36.2010  0.00  0.00     0.000 HD
BRANCH 69 75
ATOM     75   C  BDP B   5       8.008   6.857  40.6420  0.00  0.00     0.000 C
ATOM     76   O  BDP B   5       7.425   5.885  41.1620  0.00  0.00     0.000 OA
ATOM     77   O  BDP B   5       8.668   7.674  41.3110  0.00  0.00     0.000 OA
ENDBRANCH 69 75
BRANCH 65 78
ATOM     78  O3  NAG B   6       8.613   4.470  37.2520  0.00  0.00     0.000 O
BRANCH 78 81
ATOM     79  C1  NAG B   6      11.087   1.986  35.8240  0.00  0.00     0.000 C
ATOM     80  C2  NAG B   6       9.724   2.654  36.0680  0.00  0.00     0.000 C
ATOM     81  C3  NAG B   6       9.898   3.921  36.8890  0.00  0.00     0.000 C
ATOM     82  C4  NAG B   6      10.723   3.644  38.1510  0.00  0.00     0.000 C
ATOM     83  C5  NAG B   6      12.046   2.997  37.7580  0.00  0.00     0.000 C
ATOM     84  O5  NAG B   6      11.746   1.774  37.0850  0.00  0.00     0.000 O
BRANCH 80 87
ATOM     85   N  NAG B   6       8.524   2.077  35.4690  0.00  0.00     0.000 N
ATOM     87  HD  NAG B   6       7.669   2.103  35.3330  0.00  0.00     0.000 HD
ATOM     87   C  NAG B   6       7.806   2.672  34.5090  0.00  0.00     0.000 C
ATOM     88   C  NAG B   6       6.629   1.898  34.0050  0.00  0.00     0.000 C
ATOM     89   O  NAG B   6       8.087   3.772  34.0490  0.00  0.00     0.000 OA
ENDBRANCH 80 87
ATOM     90   O  NAG B   6      14.111   3.556  38.8870  0.00  0.00     0.000 O
ATOM     92  HD  NAG B   6      13.747   3.300  38.1440  0.00  0.00     0.000 HD
ATOM     92   O  NAG B   6      14.111   3.556  38.8870  0.00  0.00     0.000 O
ATOM     94  HD  NAG B   6      13.747   3.300  38.1440  0.00  0.00     0.000 HD
ENDBRANCH 78 81
ENDBRANCH 65 78
ENDBRANCH 64 68
ENDBRANCH 48 64
ENDBRANCH 47 50
ENDBRANCH 34 47
ENDBRANCH 33 37
ENDBRANCH 17 33
ENDBRANCH 16 19
ENDBRANCH 1 16
TORSDOF 16
ENDMDL
MODEL 48
REMARK VINA RESULT:      -4.3      9.169     17.693
ROOT
ATOM      1  C1  BDP B   1       9.653  14.289  51.4570  0.00  0.00     0.000 C
ATOM      2  C2  BDP B   1      11.056  13.867  51.0610  0.00  0.00     0.000 C
ATOM      3  C3  BDP B   1      11.965  13.714  52.2610  0.00  0.00     0.000 C
ATOM      4  C4  BDP B   1      11.229  13.659  53.5950  0.00  0.00     0.000 C
ATOM      5  C5  BDP B   1      10.169  14.748  53.7290  0.00  0.00     0.000 C
ATOM      6  O5  BDP B   1       9.787  15.291  52.4540  0.00  0.00     0.000 O
ATOM      7   O  BDP B   1      11.007  12.635  50.3340  0.00  0.00     0.000 O
ATOM      9  HD  BDP B   1      10.657  12.123  49.7300  0.00  0.00     0.000 HD
ATOM      9   O  BDP B   1      12.891  14.810  52.3180  0.00  0.00     0.000 O
ATOM     11  HD  BDP B   1      12.541  14.298  51.7150  0.00  0.00     0.000 HD
ATOM     11   O  BDP B   1      10.628  12.372  53.7820  0.00  0.00     0.000 O
ATOM     13  HD  BDP B   1      10.277  11.860  53.1780  0.00  0.00     0.000 HD
ENDROOT
BRANCH 5 13
ATOM     13   C  BDP B   1      10.745  15.823  54.5810  0.00  0.00     0.000 C
ATOM     14   O  BDP B   1      11.307  16.785  54.0170  0.00  0.00     0.000 OA
ATOM     15   O  BDP B   1      10.627  15.744  55.8230  0.00  0.00     0.000 OA
ENDBRANCH 5 13
BRANCH 1 16
ATOM     16  O3  NAG B   2       8.395  13.656  51.2290  0.00  0.00     0.000 O
BRANCH 16 19
ATOM     17  C1  NAG B   2       6.167  12.155  48.7720  0.00  0.00     0.000 C
ATOM     18  C2  NAG B   2       7.580  12.428  49.2890  0.00  0.00     0.000 C
ATOM     19  C3  NAG B   2       7.578  12.564  50.8040  0.00  0.00     0.000 C
ATOM     20  C4  NAG B   2       6.160  12.734  51.3570  0.00  0.00     0.000 C
ATOM     21  C5  NAG B   2       5.207  13.544  50.4680  0.00  0.00     0.000 C
ATOM     22  O5  NAG B   2       5.424  13.340  49.0670  0.00  0.00     0.000 O
ATOM     23   O  NAG B   2       5.610  11.436  51.6020  0.00  0.00     0.000 O
ATOM     25  HD  NAG B   2       5.933  11.085  50.8790  0.00  0.00     0.000 HD
ATOM     25   C  NAG B   2       5.330  15.044  50.7690  0.00  0.00     0.000 C
ATOM     26   O  NAG B   2       4.502  15.433  51.8740  0.00  0.00     0.000 O
ATOM     28  HD  NAG B   2       4.825  15.082  51.1520  0.00  0.00     0.000 HD
BRANCH 18 30
ATOM     28   N  NAG B   2       7.463  11.058  48.7930  0.00  0.00     0.000 N
ATOM     30  HD  NAG B   2       7.018  10.324  48.9100  0.00  0.00     0.000 HD
ATOM     30   C  NAG B   2       8.384  10.099  48.9620  0.00  0.00     0.000 C
ATOM     31   C  NAG B   2       8.036   8.772  48.3480  0.00  0.00     0.000 C
ATOM     32   O  NAG B   2       9.418  10.267  49.5660  0.00  0.00     0.000 OA
ENDBRANCH 18 30
BRANCH 17 33
ATOM     33  O4  BDP B   3       5.164  12.161  47.7330  0.00  0.00     0.000 O
BRANCH 33 37
ATOM     34  C1  BDP B   3       5.235  11.512  43.5120  0.00  0.00     0.000 C
ATOM     35  C2  BDP B   3       5.460  12.937  44.0010  0.00  0.00     0.000 C
ATOM     36  C3  BDP B   3       5.840  13.024  45.4750  0.00  0.00     0.000 C
ATOM     37  C4  BDP B   3       4.909  12.121  46.2980  0.00  0.00     0.000 C
ATOM     38  C5  BDP B   3       5.021  10.698  45.7160  0.00  0.00     0.000 C
ATOM     39  O5  BDP B   3       4.422  10.763  44.4220  0.00  0.00     0.000 O
ATOM     40   O  BDP B   3       6.462  13.499  43.1510  0.00  0.00     0.000 O
ATOM     42  HD  BDP B   3       5.762  13.595  42.6500  0.00  0.00     0.000 HD
ATOM     42   O  BDP B   3       5.716  14.395  45.8500  0.00  0.00     0.000 O
ATOM     44  HD  BDP B   3       5.016  14.492  45.3490  0.00  0.00     0.000 HD
BRANCH 38 44
ATOM     44   C  BDP B   3       4.348   9.640  46.5340  0.00  0.00     0.000 C
ATOM     45   O  BDP B   3       5.064   8.927  47.2710  0.00  0.00     0.000 OA
ATOM     46   O  BDP B   3       3.108   9.498  46.4610  0.00  0.00     0.000 OA
ENDBRANCH 38 44
BRANCH 34 47
ATOM     47  O3  NAG B   4       4.160  11.431  42.5790  0.00  0.00     0.000 O
BRANCH 47 50
ATOM     48  C1  NAG B   4       4.667   8.975  39.7750  0.00  0.00     0.000 C
ATOM     49  C2  NAG B   4       4.949  10.194  40.6360  0.00  0.00     0.000 C
ATOM     50  C3  NAG B   4       3.951  10.244  41.7870  0.00  0.00     0.000 C
ATOM     51  C4  NAG B   4       2.516  10.213  41.2850  0.00  0.00     0.000 C
ATOM     52  C5  NAG B   4       2.312   9.006  40.3700  0.00  0.00     0.000 C
ATOM     53  O5  NAG B   4       3.297   8.995  39.3290  0.00  0.00     0.000 O
ATOM     54   O  NAG B   4       1.632  10.152  42.4070  0.00  0.00     0.000 O
ATOM     56  HD  NAG B   4       1.223  10.353  41.6710  0.00  0.00     0.000 HD
ATOM     56   C  NAG B   4       0.920   9.012  39.7480  0.00  0.00     0.000 C
ATOM     57   O  NAG B   4       0.758  10.209  38.9760  0.00  0.00     0.000 O
ATOM     59  HD  NAG B   4       0.350  10.411  38.2390  0.00  0.00     0.000 HD
BRANCH 49 61
ATOM     59   N  NAG B   4       6.380  10.110  40.9340  0.00  0.00     0.000 N
ATOM     61  HD  NAG B   4       5.862  10.435  40.3210  0.00  0.00     0.000 HD
ATOM     61   O  NAG B   4       6.906  12.225  40.3400  0.00  0.00     0.000 OA
ATOM     62   C  NAG B   4       7.217  11.149  40.8310  0.00  0.00     0.000 C
ATOM     63   C  NAG B   4       8.591  10.930  41.3810  0.00  0.00     0.000 C
ENDBRANCH 49 61
BRANCH 48 64
ATOM     64  O4  BDP B   5       5.497   8.147  38.9660  0.00  0.00     0.000 O
BRANCH 64 68
ATOM     65  C1  BDP B   5       8.526   5.863  37.2410  0.00  0.00     0.000 C
ATOM     66  C2  BDP B   5       8.163   5.513  38.6780  0.00  0.00     0.000 C
ATOM     67  C3  BDP B   5       6.801   6.103  39.0200  0.00  0.00     0.000 C
ATOM     68  C4  BDP B   5       6.803   7.607  38.7710  0.00  0.00     0.000 C
ATOM     69  C5  BDP B   5       7.268   7.956  37.3630  0.00  0.00     0.000 C
ATOM     70  O5  BDP B   5       8.505   7.287  37.0590  0.00  0.00     0.000 O
ATOM     71   O  BDP B   5       8.182   4.087  38.8470  0.00  0.00     0.000 O
ATOM     73  HD  BDP B   5       8.188   3.222  38.8890  0.00  0.00     0.000 HD
ATOM     73   O  BDP B   5       6.475   5.852  40.3930  0.00  0.00     0.000 O
ATOM     75  HD  BDP B   5       6.481   4.987  40.4340  0.00  0.00     0.000 HD
BRANCH 69 75
ATOM     75   C  BDP B   5       7.470   9.448  37.2870  0.00  0.00     0.000 C
ATOM     76   O  BDP B   5       6.654  10.131  36.6370  0.00  0.00     0.000 OA
ATOM     77   O  BDP B   5       8.442   9.956  37.8770  0.00  0.00     0.000 OA
ENDBRANCH 69 75
BRANCH 65 78
ATOM     78  O3  NAG B   6       9.845   6.043  36.7180  0.00  0.00     0.000 O
BRANCH 78 81
ATOM     79  C1  NAG B   6      12.158   4.908  33.9440  0.00  0.00     0.000 C
ATOM     80  C2  NAG B   6      11.500   4.912  35.3330  0.00  0.00     0.000 C
ATOM     81  C3  NAG B   6      10.367   5.924  35.3770  0.00  0.00     0.000 C
ATOM     82  C4  NAG B   6      10.839   7.293  34.8760  0.00  0.00     0.000 C
ATOM     83  C5  NAG B   6      11.455   7.141  33.4900  0.00  0.00     0.000 C
ATOM     84  O5  NAG B   6      12.563   6.247  33.6060  0.00  0.00     0.000 O
BRANCH 80 87
ATOM     85   N  NAG B   6      11.982   3.916  36.2860  0.00  0.00     0.000 N
ATOM     87  HD  NAG B   6      11.972   3.575  37.0820  0.00  0.00     0.000 HD
ATOM     87   C  NAG B   6      11.215   2.957  36.8200  0.00  0.00     0.000 C
ATOM     88   C  NAG B   6      11.910   2.013  37.7500  0.00  0.00     0.000 C
ATOM     89   O  NAG B   6      10.023   2.836  36.5660  0.00  0.00     0.000 OA
ENDBRANCH 80 87
ATOM     90   O  NAG B   6      11.111   8.800  31.7640  0.00  0.00     0.000 O
ATOM     92  HD  NAG B   6      11.250   7.962  31.9360  0.00  0.00     0.000 HD
ATOM     92   O  NAG B   6      11.111   8.800  31.7640  0.00  0.00     0.000 O
ATOM     94  HD  NAG B   6      11.250   7.962  31.9360  0.00  0.00     0.000 HD
ENDBRANCH 78 81
ENDBRANCH 65 78
ENDBRANCH 64 68
ENDBRANCH 48 64
ENDBRANCH 47 50
ENDBRANCH 34 47
ENDBRANCH 33 37
ENDBRANCH 17 33
ENDBRANCH 16 19
ENDBRANCH 1 16
TORSDOF 16
ENDMDL
MODEL 49
REMARK VINA RESULT:      -4.1      7.751     15.901
ROOT
ATOM      1  C1  BDP B   1      25.778  20.586  35.9930  0.00  0.00     0.000 C
ATOM      2  C2  BDP B   1      25.946  20.625  37.5010  0.00  0.00     0.000 C
ATOM      3  C3  BDP B   1      26.292  22.011  38.0010  0.00  0.00     0.000 C
ATOM      4  C4  BDP B   1      26.054  23.117  36.9790  0.00  0.00     0.000 C
ATOM      5  C5  BDP B   1      26.608  22.776  35.6000  0.00  0.00     0.000 C
ATOM      6  O5  BDP B   1      26.828  21.364  35.4380  0.00  0.00     0.000 O
ATOM      7   O  BDP B   1      24.746  20.170  38.1360  0.00  0.00     0.000 O
ATOM      9  HD  BDP B   1      24.083  19.616  38.2000  0.00  0.00     0.000 HD
ATOM      9   O  BDP B   1      27.675  22.062  38.3850  0.00  0.00     0.000 O
ATOM     11  HD  BDP B   1      27.012  21.509  38.4490  0.00  0.00     0.000 HD
ATOM     11   O  BDP B   1      24.655  23.413  36.8790  0.00  0.00     0.000 O
ATOM     13  HD  BDP B   1      23.992  22.859  36.9420  0.00  0.00     0.000 HD
ENDROOT
BRANCH 5 13
ATOM     13   C  BDP B   1      27.897  23.506  35.4500  0.00  0.00     0.000 C
ATOM     14   O  BDP B   1      27.872  24.651  34.9530  0.00  0.00     0.000 OA
ATOM     15   O  BDP B   1      28.952  22.965  35.8460  0.00  0.00     0.000 OA
ENDBRANCH 5 13
BRANCH 1 16
ATOM     16  O3  NAG B   2      24.660  20.202  35.1940  0.00  0.00     0.000 O
BRANCH 16 19
ATOM     17  C1  NAG B   2      22.038  17.943  34.0640  0.00  0.00     0.000 C
ATOM     18  C2  NAG B   2      22.535  19.360  34.3490  0.00  0.00     0.000 C
ATOM     19  C3  NAG B   2      24.041  19.449  34.1490  0.00  0.00     0.000 C
ATOM     20  C4  NAG B   2      24.685  18.063  34.0600  0.00  0.00     0.000 C
ATOM     21  C5  NAG B   2      24.045  16.989  34.9520  0.00  0.00     0.000 C
ATOM     22  O5  NAG B   2      22.626  17.128  35.0810  0.00  0.00     0.000 O
ATOM     23   O  NAG B   2      24.659  17.637  32.6940  0.00  0.00     0.000 O
ATOM     25  HD  NAG B   2      23.861  17.938  32.5420  0.00  0.00     0.000 HD
ATOM     25   C  NAG B   2      24.669  17.010  36.3550  0.00  0.00     0.000 C
ATOM     26   O  NAG B   2      25.872  16.229  36.4130  0.00  0.00     0.000 O
ATOM     28  HD  NAG B   2      25.074  16.531  36.2610  0.00  0.00     0.000 HD
BRANCH 18 30
ATOM     28   N  NAG B   2      21.561  20.103  33.5520  0.00  0.00     0.000 N
ATOM     30  HD  NAG B   2      20.752  20.059  33.2460  0.00  0.00     0.000 HD
ATOM     30   C  NAG B   2      21.658  20.327  32.2340  0.00  0.00     0.000 C
ATOM     31   C  NAG B   2      20.532  21.128  31.6440  0.00  0.00     0.000 C
ATOM     32   O  NAG B   2      22.571  19.918  31.5540  0.00  0.00     0.000 OA
ENDBRANCH 18 30
BRANCH 17 33
ATOM     33  O4  BDP B   3      21.076  16.875  34.2030  0.00  0.00     0.000 O
BRANCH 33 37
ATOM     34  C1  BDP B   3      18.203  14.232  32.4710  0.00  0.00     0.000 C
ATOM     35  C2  BDP B   3      18.635  15.433  31.6390  0.00  0.00     0.000 C
ATOM     36  C3  BDP B   3      19.934  16.073  32.1180  0.00  0.00     0.000 C
ATOM     37  C4  BDP B   3      19.891  16.234  33.6450  0.00  0.00     0.000 C
ATOM     38  C5  BDP B   3      19.634  14.839  34.2460  0.00  0.00     0.000 C
ATOM     39  O5  BDP B   3      18.297  14.500  33.8750  0.00  0.00     0.000 O
ATOM     40   O  BDP B   3      18.725  14.973  30.2890  0.00  0.00     0.000 O
ATOM     42  HD  BDP B   3      17.871  15.103  30.3510  0.00  0.00     0.000 HD
ATOM     42   O  BDP B   3      20.040  17.330  31.4540  0.00  0.00     0.000 O
ATOM     44  HD  BDP B   3      19.187  17.461  31.5160  0.00  0.00     0.000 HD
BRANCH 38 44
ATOM     44   C  BDP B   3      19.779  14.770  35.7340  0.00  0.00     0.000 C
ATOM     45   O  BDP B   3      20.824  14.261  36.1970  0.00  0.00     0.000 OA
ATOM     46   O  BDP B   3      18.867  15.213  36.4660  0.00  0.00     0.000 OA
ENDBRANCH 38 44
BRANCH 34 47
ATOM     47  O3  NAG B   4      16.787  14.180  32.6380  0.00  0.00     0.000 O
BRANCH 47 50
ATOM     48  C1  NAG B   4      15.332  10.758  32.0710  0.00  0.00     0.000 C
ATOM     49  C2  NAG B   4      16.097  12.027  31.7360  0.00  0.00     0.000 C
ATOM     50  C3  NAG B   4      16.122  12.941  32.9560  0.00  0.00     0.000 C
ATOM     51  C4  NAG B   4      14.719  13.233  33.4640  0.00  0.00     0.000 C
ATOM     52  C5  NAG B   4      13.975  11.922  33.7170  0.00  0.00     0.000 C
ATOM     53  O5  NAG B   4      14.014  11.092  32.5490  0.00  0.00     0.000 O
ATOM     54   O  NAG B   4      14.810  14.001  34.6670  0.00  0.00     0.000 O
ATOM     56  HD  NAG B   4      14.011  13.998  34.3330  0.00  0.00     0.000 HD
ATOM     56   C  NAG B   4      12.523  12.175  34.1080  0.00  0.00     0.000 C
ATOM     57   O  NAG B   4      11.869  12.880  33.0450  0.00  0.00     0.000 O
ATOM     59  HD  NAG B   4      11.070  12.877  32.7100  0.00  0.00     0.000 HD
BRANCH 49 61
ATOM     59   N  NAG B   4      15.444  12.507  30.5180  0.00  0.00     0.000 N
ATOM     61  HD  NAG B   4      16.136  12.697  31.0030  0.00  0.00     0.000 HD
ATOM     61   O  NAG B   4      17.325  12.831  29.3100  0.00  0.00     0.000 OA
ATOM     62   C  NAG B   4      16.106  12.797  29.3910  0.00  0.00     0.000 C
ATOM     63   C  NAG B   4      15.255  13.065  28.1910  0.00  0.00     0.000 C
ENDBRANCH 49 61
BRANCH 48 64
ATOM     64  O4  BDP B   5      15.422   9.418  31.5980  0.00  0.00     0.000 O
BRANCH 64 68
ATOM     65  C1  BDP B   5      13.948   6.077  33.6080  0.00  0.00     0.000 C
ATOM     66  C2  BDP B   5      15.463   6.234  33.5970  0.00  0.00     0.000 C
ATOM     67  C3  BDP B   5      15.827   7.666  33.2270  0.00  0.00     0.000 C
ATOM     68  C4  BDP B   5      15.194   8.040  31.8910  0.00  0.00     0.000 C
ATOM     69  C5  BDP B   5      13.693   7.781  31.8740  0.00  0.00     0.000 C
ATOM     70  O5  BDP B   5      13.404   6.449  32.3320  0.00  0.00     0.000 O
ATOM     71   O  BDP B   5      15.995   5.866  34.8780  0.00  0.00     0.000 O
ATOM     73  HD  BDP B   5      16.261   5.652  35.6740  0.00  0.00     0.000 HD
ATOM     73   O  BDP B   5      17.248   7.816  33.1340  0.00  0.00     0.000 O
ATOM     75  HD  BDP B   5      17.514   7.602  33.9300  0.00  0.00     0.000 HD
BRANCH 69 75
ATOM     75   C  BDP B   5      13.200   7.945  30.4580  0.00  0.00     0.000 C
ATOM     76   O  BDP B   5      13.391   7.017  29.6460  0.00  0.00     0.000 OA
ATOM     77   O  BDP B   5      12.614   8.996  30.1410  0.00  0.00     0.000 OA
ENDBRANCH 69 75
BRANCH 65 78
ATOM     78  O3  NAG B   6      13.216   4.883  33.3190  0.00  0.00     0.000 O
BRANCH 78 81
ATOM     79  C1  NAG B   6      10.144   2.698  33.6650  0.00  0.00     0.000 C
ATOM     80  C2  NAG B   6      11.638   3.059  33.6630  0.00  0.00     0.000 C
ATOM     81  C3  NAG B   6      11.818   4.557  33.4750  0.00  0.00     0.000 C
ATOM     82  C4  NAG B   6      11.026   5.054  32.2620  0.00  0.00     0.000 C
ATOM     83  C5  NAG B   6       9.566   4.638  32.4050  0.00  0.00     0.000 C
ATOM     84  O5  NAG B   6       9.528   3.211  32.4710  0.00  0.00     0.000 O
BRANCH 80 87
ATOM     85   N  NAG B   6      12.750   2.127  33.8280  0.00  0.00     0.000 N
ATOM     87  HD  NAG B   6      13.590   1.984  33.9830  0.00  0.00     0.000 HD
ATOM     87   C  NAG B   6      13.413   1.948  34.9780  0.00  0.00     0.000 C
ATOM     88   C  NAG B   6      14.498   0.920  34.9480  0.00  0.00     0.000 C
ATOM     89   O  NAG B   6      13.152   2.566  36.0030  0.00  0.00     0.000 OA
ENDBRANCH 80 87
ATOM     90   O  NAG B   6       7.762   6.101  31.7340  0.00  0.00     0.000 O
ATOM     92  HD  NAG B   6       8.011   5.473  32.2750  0.00  0.00     0.000 HD
ATOM     92   O  NAG B   6       7.762   6.101  31.7340  0.00  0.00     0.000 O
ATOM     94  HD  NAG B   6       8.011   5.473  32.2750  0.00  0.00     0.000 HD
ENDBRANCH 78 81
ENDBRANCH 65 78
ENDBRANCH 64 68
ENDBRANCH 48 64
ENDBRANCH 47 50
ENDBRANCH 34 47
ENDBRANCH 33 37
ENDBRANCH 17 33
ENDBRANCH 16 19
ENDBRANCH 1 16
TORSDOF 16
ENDMDL
MODEL 50
REMARK VINA RESULT:      -4.1      5.277      7.709
ROOT
ATOM      1  C1  BDP B   1      14.946  15.099  40.3940  0.00  0.00     0.000 C
ATOM      2  C2  BDP B   1      14.895  16.115  41.5200  0.00  0.00     0.000 C
ATOM      3  C3  BDP B   1      14.700  17.526  41.0070  0.00  0.00     0.000 C
ATOM      4  C4  BDP B   1      14.249  17.601  39.5530  0.00  0.00     0.000 C
ATOM      5  C5  BDP B   1      15.059  16.690  38.6350  0.00  0.00     0.000 C
ATOM      6  O5  BDP B   1      15.748  15.660  39.3640  0.00  0.00     0.000 O
ATOM      7   O  BDP B   1      13.838  15.783  42.4270  0.00  0.00     0.000 O
ATOM      9  HD  BDP B   1      13.390  15.207  42.8940  0.00  0.00     0.000 HD
ATOM      9   O  BDP B   1      15.928  18.263  41.1210  0.00  0.00     0.000 O
ATOM     11  HD  BDP B   1      15.480  17.686  41.5870  0.00  0.00     0.000 HD
ATOM     11   O  BDP B   1      12.856  17.281  39.4450  0.00  0.00     0.000 O
ATOM     13  HD  BDP B   1      12.408  16.705  39.9110  0.00  0.00     0.000 HD
ENDROOT
BRANCH 5 13
ATOM     13   C  BDP B   1      16.046  17.548  37.9230  0.00  0.00     0.000 C
ATOM     14   O  BDP B   1      17.163  17.725  38.4530  0.00  0.00     0.000 OA
ATOM     15   O  BDP B   1      15.739  18.037  36.8150  0.00  0.00     0.000 OA
ENDBRANCH 5 13
BRANCH 1 16
ATOM     16  O3  NAG B   2      14.130  13.957  40.1370  0.00  0.00     0.000 O
BRANCH 16 19
ATOM     17  C1  NAG B   2      14.866  11.252  37.8140  0.00  0.00     0.000 C
ATOM     18  C2  NAG B   2      15.189  12.028  39.0910  0.00  0.00     0.000 C
ATOM     19  C3  NAG B   2      13.922  12.615  39.6960  0.00  0.00     0.000 C
ATOM     20  C4  NAG B   2      12.750  12.570  38.7120  0.00  0.00     0.000 C
ATOM     21  C5  NAG B   2      13.126  12.792  37.2400  0.00  0.00     0.000 C
ATOM     22  O5  NAG B   2      14.397  12.234  36.8870  0.00  0.00     0.000 O
ATOM     23   O  NAG B   2      12.082  11.313  38.8570  0.00  0.00     0.000 O
ATOM     25  HD  NAG B   2      12.812  10.855  38.9400  0.00  0.00     0.000 HD
ATOM     25   C  NAG B   2      13.139  14.290  36.9050  0.00  0.00     0.000 C
ATOM     26   O  NAG B   2      11.831  14.769  36.5610  0.00  0.00     0.000 O
ATOM     28  HD  NAG B   2      12.562  14.311  36.6440  0.00  0.00     0.000 HD
BRANCH 18 30
ATOM     28   N  NAG B   2      14.804  11.043  40.1010  0.00  0.00     0.000 N
ATOM     30  HD  NAG B   2      14.665  10.955  40.9520  0.00  0.00     0.000 HD
ATOM     30   C  NAG B   2      15.558  10.004  40.4870  0.00  0.00     0.000 C
ATOM     31   C  NAG B   2      14.936   9.126  41.5360  0.00  0.00     0.000 C
ATOM     32   O  NAG B   2      16.659   9.778  40.0400  0.00  0.00     0.000 OA
ENDBRANCH 18 30
BRANCH 17 33
ATOM     33  O4  BDP B   3      15.233  10.679  36.5400  0.00  0.00     0.000 O
BRANCH 33 37
ATOM     34  C1  BDP B   3      17.486  10.155  32.9500  0.00  0.00     0.000 C
ATOM     35  C2  BDP B   3      18.245  10.616  34.1880  0.00  0.00     0.000 C
ATOM     36  C3  BDP B   3      17.492  10.375  35.4920  0.00  0.00     0.000 C
ATOM     37  C4  BDP B   3      16.034  10.831  35.3320  0.00  0.00     0.000 C
ATOM     38  C5  BDP B   3      15.445  10.068  34.1300  0.00  0.00     0.000 C
ATOM     39  O5  BDP B   3      16.118  10.579  32.9800  0.00  0.00     0.000 O
ATOM     40   O  BDP B   3      19.505   9.941  34.1590  0.00  0.00     0.000 O
ATOM     42  HD  BDP B   3      19.664  10.589  33.6060  0.00  0.00     0.000 HD
ATOM     42   O  BDP B   3      18.173  11.117  36.5020  0.00  0.00     0.000 O
ATOM     44  HD  BDP B   3      18.332  11.765  35.9490  0.00  0.00     0.000 HD
BRANCH 38 44
ATOM     44   C  BDP B   3      13.966  10.224  33.9630  0.00  0.00     0.000 C
ATOM     45   O  BDP B   3      13.262   9.190  33.9840  0.00  0.00     0.000 OA
ATOM     46   O  BDP B   3      13.478  11.365  33.8060  0.00  0.00     0.000 OA
ENDBRANCH 38 44
BRANCH 34 47
ATOM     47  O3  NAG B   4      17.673  11.041  31.8480  0.00  0.00     0.000 O
BRANCH 47 50
ATOM     48  C1  NAG B   4      19.298   9.977  28.6260  0.00  0.00     0.000 C
ATOM     49  C2  NAG B   4      19.225  10.439  30.0710  0.00  0.00     0.000 C
ATOM     50  C3  NAG B   4      17.766  10.539  30.4990  0.00  0.00     0.000 C
ATOM     51  C4  NAG B   4      16.970  11.438  29.5670  0.00  0.00     0.000 C
ATOM     52  C5  NAG B   4      17.137  10.967  28.1220  0.00  0.00     0.000 C
ATOM     53  O5  NAG B   4      18.527  10.860  27.7890  0.00  0.00     0.000 O
ATOM     54   O  NAG B   4      15.593  11.406  29.9530  0.00  0.00     0.000 O
ATOM     56  HD  NAG B   4      15.771  12.054  29.4060  0.00  0.00     0.000 HD
ATOM     56   C  NAG B   4      16.454  11.918  27.1470  0.00  0.00     0.000 C
ATOM     57   O  NAG B   4      17.039  13.221  27.2780  0.00  0.00     0.000 O
ATOM     59  HD  NAG B   4      17.218  13.868  26.7310  0.00  0.00     0.000 HD
BRANCH 49 61
ATOM     59   N  NAG B   4      20.364   9.615  30.4800  0.00  0.00     0.000 N
ATOM     61  HD  NAG B   4      20.202  10.437  30.2590  0.00  0.00     0.000 HD
ATOM     61   O  NAG B   4      21.304  11.123  31.8750  0.00  0.00     0.000 OA
ATOM     62   C  NAG B   4      21.259   9.998  31.3980  0.00  0.00     0.000 C
ATOM     63   C  NAG B   4      22.223   8.944  31.8410  0.00  0.00     0.000 C
ENDBRANCH 49 61
BRANCH 48 64
ATOM     64  O4  BDP B   5      20.265   9.231  27.8940  0.00  0.00     0.000 O
BRANCH 64 68
ATOM     65  C1  BDP B   5      23.256   7.834  25.3490  0.00  0.00     0.000 C
ATOM     66  C2  BDP B   5      23.611   9.053  26.1900  0.00  0.00     0.000 C
ATOM     67  C3  BDP B   5      22.628   9.183  27.3460  0.00  0.00     0.000 C
ATOM     68  C4  BDP B   5      21.200   9.240  26.8150  0.00  0.00     0.000 C
ATOM     69  C5  BDP B   5      20.884   8.072  25.8900  0.00  0.00     0.000 C
ATOM     70  O5  BDP B   5      21.901   7.935  24.8830  0.00  0.00     0.000 O
ATOM     71   O  BDP B   5      24.965   8.939  26.6560  0.00  0.00     0.000 O
ATOM     73  HD  BDP B   5      25.778   8.812  26.9260  0.00  0.00     0.000 HD
ATOM     73   O  BDP B   5      22.897  10.367  28.1050  0.00  0.00     0.000 O
ATOM     75  HD  BDP B   5      23.710  10.239  28.3750  0.00  0.00     0.000 HD
BRANCH 69 75
ATOM     75   C  BDP B   5      19.555   8.337  25.2290  0.00  0.00     0.000 C
ATOM     76   O  BDP B   5      18.781   7.378  25.0310  0.00  0.00     0.000 OA
ATOM     77   O  BDP B   5      19.265   9.503  24.9050  0.00  0.00     0.000 OA
ENDBRANCH 69 75
BRANCH 65 78
ATOM     78  O3  NAG B   6      23.488   7.673  23.9470  0.00  0.00     0.000 O
BRANCH 78 81
ATOM     79  C1  NAG B   6      25.256   5.331  21.5560  0.00  0.00     0.000 C
ATOM     80  C2  NAG B   6      25.094   6.500  22.5400  0.00  0.00     0.000 C
ATOM     81  C3  NAG B   6      23.698   6.493  23.1420  0.00  0.00     0.000 C
ATOM     82  C4  NAG B   6      22.632   6.412  22.0450  0.00  0.00     0.000 C
ATOM     83  C5  NAG B   6      22.909   5.204  21.1570  0.00  0.00     0.000 C
ATOM     84  O5  NAG B   6      24.202   5.381  20.5780  0.00  0.00     0.000 O
BRANCH 80 87
ATOM     85   N  NAG B   6      26.224   7.383  22.8180  0.00  0.00     0.000 N
ATOM     87  HD  NAG B   6      26.561   8.054  23.2490  0.00  0.00     0.000 HD
ATOM     87   C  NAG B   6      26.857   7.441  23.9960  0.00  0.00     0.000 C
ATOM     88   C  NAG B   6      28.014   8.386  24.0650  0.00  0.00     0.000 C
ATOM     89   O  NAG B   6      26.534   6.760  24.9630  0.00  0.00     0.000 OA
ENDBRANCH 80 87
ATOM     90   O  NAG B   6      21.115   3.831  20.2940  0.00  0.00     0.000 O
ATOM     92  HD  NAG B   6      21.942   3.851  20.5530  0.00  0.00     0.000 HD
ATOM     92   O  NAG B   6      21.115   3.831  20.2940  0.00  0.00     0.000 O
ATOM     94  HD  NAG B   6      21.942   3.851  20.5530  0.00  0.00     0.000 HD
ENDBRANCH 78 81
ENDBRANCH 65 78
ENDBRANCH 64 68
ENDBRANCH 48 64
ENDBRANCH 47 50
ENDBRANCH 34 47
ENDBRANCH 33 37
ENDBRANCH 17 33
ENDBRANCH 16 19
ENDBRANCH 1 16
TORSDOF 16
ENDMDL
MODEL 51
REMARK VINA RESULT:      -4.0     14.240     22.921
ROOT
ATOM      1  C1  BDP B   1      17.863  30.398  21.0390  0.00  0.00     0.000 C
ATOM      2  C2  BDP B   1      18.257  29.626  22.2860  0.00  0.00     0.000 C
ATOM      3  C3  BDP B   1      18.248  30.498  23.5230  0.00  0.00     0.000 C
ATOM      4  C4  BDP B   1      17.523  31.827  23.3410  0.00  0.00     0.000 C
ATOM      5  C5  BDP B   1      17.920  32.544  22.0530  0.00  0.00     0.000 C
ATOM      6  O5  BDP B   1      18.525  31.653  21.1010  0.00  0.00     0.000 O
ATOM      7   O  BDP B   1      17.372  28.517  22.4720  0.00  0.00     0.000 O
ATOM      9  HD  BDP B   1      16.926  27.841  22.1650  0.00  0.00     0.000 HD
ATOM      9   O  BDP B   1      19.594  30.788  23.9290  0.00  0.00     0.000 O
ATOM     11  HD  BDP B   1      19.149  30.112  23.6220  0.00  0.00     0.000 HD
ATOM     11   O  BDP B   1      16.104  31.631  23.3670  0.00  0.00     0.000 O
ATOM     13  HD  BDP B   1      15.658  30.955  23.0600  0.00  0.00     0.000 HD
ENDROOT
BRANCH 5 13
ATOM     13   C  BDP B   1      18.886  33.614  22.4240  0.00  0.00     0.000 C
ATOM     14   O  BDP B   1      20.100  33.322  22.4680  0.00  0.00     0.000 OA
ATOM     15   O  BDP B   1      18.460  34.766  22.6530  0.00  0.00     0.000 OA
ENDBRANCH 5 13
BRANCH 1 16
ATOM     16  O3  NAG B   2      16.797  30.184  20.1150  0.00  0.00     0.000 O
BRANCH 16 19
ATOM     17  C1  NAG B   2      14.930  27.067  19.8920  0.00  0.00     0.000 C
ATOM     18  C2  NAG B   2      15.085  28.483  20.4470  0.00  0.00     0.000 C
ATOM     19  C3  NAG B   2      15.828  29.368  19.4570  0.00  0.00     0.000 C
ATOM     20  C4  NAG B   2      16.505  28.545  18.3580  0.00  0.00     0.000 C
ATOM     21  C5  NAG B   2      17.061  27.187  18.8090  0.00  0.00     0.000 C
ATOM     22  O5  NAG B   2      16.260  26.548  19.8100  0.00  0.00     0.000 O
ATOM     23   O  NAG B   2      15.571  28.355  17.2900  0.00  0.00     0.000 O
ATOM     25  HD  NAG B   2      14.895  28.215  17.8130  0.00  0.00     0.000 HD
ATOM     25   C  NAG B   2      18.490  27.340  19.3500  0.00  0.00     0.000 C
ATOM     26   O  NAG B   2      19.464  27.300  18.2980  0.00  0.00     0.000 O
ATOM     28  HD  NAG B   2      18.788  27.160  18.8200  0.00  0.00     0.000 HD
BRANCH 18 30
ATOM     28   N  NAG B   2      13.904  28.703  19.6140  0.00  0.00     0.000 N
ATOM     30  HD  NAG B   2      13.591  29.222  18.9960  0.00  0.00     0.000 HD
ATOM     30   C  NAG B   2      12.715  29.126  20.0650  0.00  0.00     0.000 C
ATOM     31   C  NAG B   2      11.652  29.265  19.0120  0.00  0.00     0.000 C
ATOM     32   O  NAG B   2      12.497  29.388  21.2250  0.00  0.00     0.000 OA
ENDBRANCH 18 30
BRANCH 17 33
ATOM     33  O4  BDP B   3      14.722  25.647  20.0540  0.00  0.00     0.000 O
BRANCH 33 37
ATOM     34  C1  BDP B   3      12.794  21.866  19.5740  0.00  0.00     0.000 C
ATOM     35  C2  BDP B   3      14.076  22.101  18.7830  0.00  0.00     0.000 C
ATOM     36  C3  BDP B   3      14.916  23.258  19.3100  0.00  0.00     0.000 C
ATOM     37  C4  BDP B   3      14.008  24.468  19.5810  0.00  0.00     0.000 C
ATOM     38  C5  BDP B   3      12.912  24.006  20.5610  0.00  0.00     0.000 C
ATOM     39  O5  BDP B   3      12.098  23.092  19.8260  0.00  0.00     0.000 O
ATOM     40   O  BDP B   3      14.789  20.862  18.8020  0.00  0.00     0.000 O
ATOM     42  HD  BDP B   3      14.220  20.704  18.1680  0.00  0.00     0.000 HD
ATOM     42   O  BDP B   3      15.894  23.543  18.3120  0.00  0.00     0.000 O
ATOM     44  HD  BDP B   3      15.326  23.384  17.6780  0.00  0.00     0.000 HD
BRANCH 38 44
ATOM     44   C  BDP B   3      12.065  25.112  21.1080  0.00  0.00     0.000 C
ATOM     45   O  BDP B   3      12.048  25.278  22.3480  0.00  0.00     0.000 OA
ATOM     46   O  BDP B   3      11.405  25.831  20.3250  0.00  0.00     0.000 OA
ENDBRANCH 38 44
BRANCH 34 47
ATOM     47  O3  NAG B   4      11.707  21.493  18.7300  0.00  0.00     0.000 O
BRANCH 47 50
ATOM     48  C1  NAG B   4       9.287  18.941  20.0650  0.00  0.00     0.000 C
ATOM     49  C2  NAG B   4      10.610  19.479  19.5480  0.00  0.00     0.000 C
ATOM     50  C3  NAG B   4      10.480  20.975  19.2840  0.00  0.00     0.000 C
ATOM     51  C4  NAG B   4       9.328  21.278  18.3400  0.00  0.00     0.000 C
ATOM     52  C5  NAG B   4       8.040  20.653  18.8760  0.00  0.00     0.000 C
ATOM     53  O5  NAG B   4       8.232  19.257  19.1360  0.00  0.00     0.000 O
ATOM     54   O  NAG B   4       9.188  22.696  18.2170  0.00  0.00     0.000 O
ATOM     56  HD  NAG B   4       8.747  22.263  17.6100  0.00  0.00     0.000 HD
ATOM     56   C  NAG B   4       6.888  20.830  17.8920  0.00  0.00     0.000 C
ATOM     57   O  NAG B   4       7.229  20.194  16.6540  0.00  0.00     0.000 O
ATOM     59  HD  NAG B   4       6.788  19.762  16.0470  0.00  0.00     0.000 HD
BRANCH 49 61
ATOM     59   N  NAG B   4      11.534  18.887  20.5170  0.00  0.00     0.000 N
ATOM     61  HD  NAG B   4      11.190  18.695  19.7450  0.00  0.00     0.000 HD
ATOM     61   O  NAG B   4      13.048  18.131  19.0210  0.00  0.00     0.000 OA
ATOM     62   C  NAG B   4      12.703  18.332  20.1760  0.00  0.00     0.000 C
ATOM     63   C  NAG B   4      13.606  17.976  21.3150  0.00  0.00     0.000 C
ENDBRANCH 49 61
BRANCH 48 64
ATOM     64  O4  BDP B   5       8.951  17.861  20.9310  0.00  0.00     0.000 O
BRANCH 64 68
ATOM     65  C1  BDP B   5       7.981  18.267  24.9640  0.00  0.00     0.000 C
ATOM     66  C2  BDP B   5       9.148  17.340  24.6480  0.00  0.00     0.000 C
ATOM     67  C3  BDP B   5       9.655  17.617  23.2390  0.00  0.00     0.000 C
ATOM     68  C4  BDP B   5       8.516  17.479  22.2350  0.00  0.00     0.000 C
ATOM     69  C5  BDP B   5       7.311  18.329  22.6130  0.00  0.00     0.000 C
ATOM     70  O5  BDP B   5       6.943  18.103  23.9850  0.00  0.00     0.000 O
ATOM     71   O  BDP B   5      10.182  17.516  25.6290  0.00  0.00     0.000 O
ATOM     73  HD  BDP B   5      10.781  17.676  26.2340  0.00  0.00     0.000 HD
ATOM     73   O  BDP B   5      10.703  16.703  22.8940  0.00  0.00     0.000 O
ATOM     75  HD  BDP B   5      11.302  16.863  23.4980  0.00  0.00     0.000 HD
BRANCH 69 75
ATOM     75   C  BDP B   5       6.162  17.949  21.7150  0.00  0.00     0.000 C
ATOM     76   O  BDP B   5       5.667  16.808  21.8230  0.00  0.00     0.000 OA
ATOM     77   O  BDP B   5       5.736  18.782  20.8930  0.00  0.00     0.000 OA
ENDBRANCH 69 75
BRANCH 65 78
ATOM     78  O3  NAG B   6       6.887  17.986  25.8410  0.00  0.00     0.000 O
BRANCH 78 81
ATOM     79  C1  NAG B   6       3.895  19.776  27.3170  0.00  0.00     0.000 C
ATOM     80  C2  NAG B   6       5.362  19.341  27.1730  0.00  0.00     0.000 C
ATOM     81  C3  NAG B   6       5.549  18.526  25.9040  0.00  0.00     0.000 C
ATOM     82  C4  NAG B   6       4.523  17.390  25.8300  0.00  0.00     0.000 C
ATOM     83  C5  NAG B   6       3.119  17.966  25.9720  0.00  0.00     0.000 C
ATOM     84  O5  NAG B   6       3.045  18.617  27.2410  0.00  0.00     0.000 O
BRANCH 80 87
ATOM     85   N  NAG B   6       6.203  20.535  27.1990  0.00  0.00     0.000 N
ATOM     87  HD  NAG B   6       6.547  21.199  27.6350  0.00  0.00     0.000 HD
ATOM     87   C  NAG B   6       7.346  20.632  27.8890  0.00  0.00     0.000 C
ATOM     88   C  NAG B   6       8.077  21.930  27.7540  0.00  0.00     0.000 C
ATOM     89   O  NAG B   6       7.788  19.723  28.5800  0.00  0.00     0.000 OA
ENDBRANCH 80 87
ATOM     90   O  NAG B   6       1.263  17.111  24.6790  0.00  0.00     0.000 O
ATOM     92  HD  NAG B   6       1.605  17.804  25.0690  0.00  0.00     0.000 HD
ATOM     92   O  NAG B   6       1.263  17.111  24.6790  0.00  0.00     0.000 O
ATOM     94  HD  NAG B   6       1.605  17.804  25.0690  0.00  0.00     0.000 HD
ENDBRANCH 78 81
ENDBRANCH 65 78
ENDBRANCH 64 68
ENDBRANCH 48 64
ENDBRANCH 47 50
ENDBRANCH 34 47
ENDBRANCH 33 37
ENDBRANCH 17 33
ENDBRANCH 16 19
ENDBRANCH 1 16
TORSDOF 16
ENDMDL
MODEL 52
REMARK VINA RESULT:      -4.0      6.605     16.222
ROOT
ATOM      1  C1  BDP B   1      29.997  16.418  33.1400  0.00  0.00     0.000 C
ATOM      2  C2  BDP B   1      31.319  15.834  33.6030  0.00  0.00     0.000 C
ATOM      3  C3  BDP B   1      31.758  16.402  34.9360  0.00  0.00     0.000 C
ATOM      4  C4  BDP B   1      30.658  17.142  35.6880  0.00  0.00     0.000 C
ATOM      5  C5  BDP B   1      29.885  18.112  34.8000  0.00  0.00     0.000 C
ATOM      6  O5  BDP B   1      30.045  17.813  33.4030  0.00  0.00     0.000 O
ATOM      7   O  BDP B   1      31.214  14.409  33.6990  0.00  0.00     0.000 O
ATOM      9  HD  BDP B   1      30.958  13.643  33.3860  0.00  0.00     0.000 HD
ATOM      9   O  BDP B   1      32.847  17.319  34.7430  0.00  0.00     0.000 O
ATOM     11  HD  BDP B   1      32.590  16.553  34.4300  0.00  0.00     0.000 HD
ATOM     11   O  BDP B   1      29.751  16.210  36.2910  0.00  0.00     0.000 O
ATOM     13  HD  BDP B   1      29.494  15.445  35.9770  0.00  0.00     0.000 HD
ENDROOT
BRANCH 5 13
ATOM     13   C  BDP B   1      30.403  19.478  35.0840  0.00  0.00     0.000 C
ATOM     14   O  BDP B   1      31.231  19.614  36.0080  0.00  0.00     0.000 OA
ATOM     15   O  BDP B   1      30.017  20.434  34.3780  0.00  0.00     0.000 OA
ENDBRANCH 5 13
BRANCH 1 16
ATOM     16  O3  NAG B   2      28.759  15.781  32.8290  0.00  0.00     0.000 O
BRANCH 16 19
ATOM     17  C1  NAG B   2      25.558  14.141  32.2660  0.00  0.00     0.000 C
ATOM     18  C2  NAG B   2      26.482  15.345  32.0810  0.00  0.00     0.000 C
ATOM     19  C3  NAG B   2      27.938  14.904  32.0570  0.00  0.00     0.000 C
ATOM     20  C4  NAG B   2      28.103  13.466  32.5590  0.00  0.00     0.000 C
ATOM     21  C5  NAG B   2      27.148  13.057  33.6880  0.00  0.00     0.000 C
ATOM     22  O5  NAG B   2      25.847  13.645  33.5750  0.00  0.00     0.000 O
ATOM     23   O  NAG B   2      27.950  12.577  31.4480  0.00  0.00     0.000 O
ATOM     25  HD  NAG B   2      27.293  13.017  31.0960  0.00  0.00     0.000 HD
ATOM     25   C  NAG B   2      27.737  13.430  35.0560  0.00  0.00     0.000 C
ATOM     26   O  NAG B   2      28.625  12.415  35.5470  0.00  0.00     0.000 O
ATOM     28  HD  NAG B   2      27.967  12.855  35.1950  0.00  0.00     0.000 HD
BRANCH 18 30
ATOM     28   N  NAG B   2      25.691  15.125  30.8710  0.00  0.00     0.000 N
ATOM     30  HD  NAG B   2      25.474  14.512  30.2990  0.00  0.00     0.000 HD
ATOM     30   C  NAG B   2      25.974  15.638  29.6650  0.00  0.00     0.000 C
ATOM     31   C  NAG B   2      25.001  15.273  28.5790  0.00  0.00     0.000 C
ATOM     32   O  NAG B   2      26.936  16.336  29.4470  0.00  0.00     0.000 OA
ENDBRANCH 18 30
BRANCH 17 33
ATOM     33  O4  BDP B   3      24.303  13.543  32.6570  0.00  0.00     0.000 O
BRANCH 33 37
ATOM     34  C1  BDP B   3      20.451  11.754  32.2110  0.00  0.00     0.000 C
ATOM     35  C2  BDP B   3      21.644  10.815  32.3390  0.00  0.00     0.000 C
ATOM     36  C3  BDP B   3      22.890  11.485  32.9090  0.00  0.00     0.000 C
ATOM     37  C4  BDP B   3      23.110  12.835  32.2100  0.00  0.00     0.000 C
ATOM     38  C5  BDP B   3      21.824  13.663  32.3990  0.00  0.00     0.000 C
ATOM     39  O5  BDP B   3      20.824  13.005  31.6220  0.00  0.00     0.000 O
ATOM     40   O  BDP B   3      21.205   9.717  33.1420  0.00  0.00     0.000 O
ATOM     42  HD  BDP B   3      20.883   9.485  32.3720  0.00  0.00     0.000 HD
ATOM     42   O  BDP B   3      23.976  10.588  32.6850  0.00  0.00     0.000 O
ATOM     44  HD  BDP B   3      23.654  10.355  31.9150  0.00  0.00     0.000 HD
BRANCH 38 44
ATOM     44   C  BDP B   3      21.940  15.093  31.9710  0.00  0.00     0.000 C
ATOM     45   O  BDP B   3      22.446  15.329  30.8520  0.00  0.00     0.000 OA
ATOM     46   O  BDP B   3      21.536  16.000  32.7300  0.00  0.00     0.000 OA
ENDBRANCH 38 44
BRANCH 34 47
ATOM     47  O3  NAG B   4      19.692  11.494  31.0310  0.00  0.00     0.000 O
BRANCH 47 50
ATOM     48  C1  NAG B   4      15.941  11.608  31.2930  0.00  0.00     0.000 C
ATOM     49  C2  NAG B   4      17.345  11.078  31.5260  0.00  0.00     0.000 C
ATOM     50  C3  NAG B   4      18.356  12.016  30.8780  0.00  0.00     0.000 C
ATOM     51  C4  NAG B   4      18.059  12.225  29.4020  0.00  0.00     0.000 C
ATOM     52  C5  NAG B   4      16.613  12.691  29.2240  0.00  0.00     0.000 C
ATOM     53  O5  NAG B   4      15.713  11.790  29.8810  0.00  0.00     0.000 O
ATOM     54   O  NAG B   4      18.969  13.194  28.8750  0.00  0.00     0.000 O
ATOM     56  HD  NAG B   4      18.550  12.759  28.2550  0.00  0.00     0.000 HD
ATOM     56   C  NAG B   4      16.241  12.790  27.7490  0.00  0.00     0.000 C
ATOM     57   O  NAG B   4      16.388  11.500  27.1420  0.00  0.00     0.000 O
ATOM     59  HD  NAG B   4      15.968  11.065  26.5210  0.00  0.00     0.000 HD
BRANCH 49 61
ATOM     59   N  NAG B   4      17.273  10.785  32.9580  0.00  0.00     0.000 N
ATOM     61  HD  NAG B   4      17.139  10.380  32.2050  0.00  0.00     0.000 HD
ATOM     61   O  NAG B   4      18.210   8.732  32.8630  0.00  0.00     0.000 OA
ATOM     62   C  NAG B   4      17.776   9.674  33.5100  0.00  0.00     0.000 C
ATOM     63   C  NAG B   4      17.802   9.648  35.0050  0.00  0.00     0.000 C
ENDBRANCH 49 61
BRANCH 48 64
ATOM     64  O4  BDP B   5      14.730  11.509  32.0360  0.00  0.00     0.000 O
BRANCH 64 68
ATOM     65  C1  BDP B   5      12.920   8.025  33.4360  0.00  0.00     0.000 C
ATOM     66  C2  BDP B   5      12.454   8.517  32.0730  0.00  0.00     0.000 C
ATOM     67  C3  BDP B   5      13.468   9.505  31.5100  0.00  0.00     0.000 C
ATOM     68  C4  BDP B   5      13.689  10.647  32.4960  0.00  0.00     0.000 C
ATOM     69  C5  BDP B   5      14.053  10.144  33.8870  0.00  0.00     0.000 C
ATOM     70  O5  BDP B   5      13.121   9.139  34.3210  0.00  0.00     0.000 O
ATOM     71   O  BDP B   5      12.263   7.396  31.1950  0.00  0.00     0.000 O
ATOM     73  HD  BDP B   5      12.183   6.688  30.7030  0.00  0.00     0.000 HD
ATOM     73   O  BDP B   5      13.011  10.039  30.2620  0.00  0.00     0.000 O
ATOM     75  HD  BDP B   5      12.931   9.331  29.7700  0.00  0.00     0.000 HD
BRANCH 69 75
ATOM     75   C  BDP B   5      14.013  11.313  34.8380  0.00  0.00     0.000 C
ATOM     76   O  BDP B   5      12.904  11.726  35.2340  0.00  0.00     0.000 OA
ATOM     77   O  BDP B   5      15.085  11.829  35.2060  0.00  0.00     0.000 OA
ENDBRANCH 69 75
BRANCH 65 78
ATOM     78  O3  NAG B   6      12.085   7.607  34.5190  0.00  0.00     0.000 O
BRANCH 78 81
ATOM     79  C1  NAG B   6      11.890   4.517  36.6990  0.00  0.00     0.000 C
ATOM     80  C2  NAG B   6      11.754   5.370  35.4270  0.00  0.00     0.000 C
ATOM     81  C3  NAG B   6      12.346   6.752  35.6530  0.00  0.00     0.000 C
ATOM     82  C4  NAG B   6      11.779   7.386  36.9280  0.00  0.00     0.000 C
ATOM     83  C5  NAG B   6      11.994   6.441  38.1040  0.00  0.00     0.000 C
ATOM     84  O5  NAG B   6      11.309   5.222  37.8100  0.00  0.00     0.000 O
BRANCH 80 87
ATOM     85   N  NAG B   6      12.339   4.575  34.3510  0.00  0.00     0.000 N
ATOM     87  HD  NAG B   6      12.277   3.926  33.7810  0.00  0.00     0.000 HD
ATOM     87   C  NAG B   6      11.870   4.550  33.0980  0.00  0.00     0.000 C
ATOM     88   C  NAG B   6      12.634   3.697  32.1350  0.00  0.00     0.000 C
ATOM     89   O  NAG B   6      10.888   5.189  32.7390  0.00  0.00     0.000 OA
ENDBRANCH 80 87
ATOM     90   O  NAG B   6      12.600   7.265  40.2950  0.00  0.00     0.000 O
ATOM     92  HD  NAG B   6      12.662   6.608  39.7340  0.00  0.00     0.000 HD
ATOM     92   O  NAG B   6      12.600   7.265  40.2950  0.00  0.00     0.000 O
ATOM     94  HD  NAG B   6      12.662   6.608  39.7340  0.00  0.00     0.000 HD
ENDBRANCH 78 81
ENDBRANCH 65 78
ENDBRANCH 64 68
ENDBRANCH 48 64
ENDBRANCH 47 50
ENDBRANCH 34 47
ENDBRANCH 33 37
ENDBRANCH 17 33
ENDBRANCH 16 19
ENDBRANCH 1 16
TORSDOF 16
ENDMDL
MODEL 53
REMARK VINA RESULT:      -4.0      8.373     15.577
ROOT
ATOM      1  C1  BDP B   1      24.049  21.730  37.4420  0.00  0.00     0.000 C
ATOM      2  C2  BDP B   1      24.613  21.604  38.8460  0.00  0.00     0.000 C
ATOM      3  C3  BDP B   1      24.394  22.859  39.6640  0.00  0.00     0.000 C
ATOM      4  C4  BDP B   1      23.375  23.821  39.0640  0.00  0.00     0.000 C
ATOM      5  C5  BDP B   1      23.592  24.057  37.5720  0.00  0.00     0.000 C
ATOM      6  O5  BDP B   1      24.393  23.025  36.9720  0.00  0.00     0.000 O
ATOM      7   O  BDP B   1      24.016  20.486  39.5120  0.00  0.00     0.000 O
ATOM      9  HD  BDP B   1      23.744  19.663  39.5210  0.00  0.00     0.000 HD
ATOM      9   O  BDP B   1      25.633  23.571  39.8100  0.00  0.00     0.000 O
ATOM     11  HD  BDP B   1      25.361  22.748  39.8190  0.00  0.00     0.000 HD
ATOM     11   O  BDP B   1      22.043  23.343  39.2890  0.00  0.00     0.000 O
ATOM     13  HD  BDP B   1      21.771  22.521  39.2980  0.00  0.00     0.000 HD
ENDROOT
BRANCH 5 13
ATOM     13   C  BDP B   1      24.277  25.371  37.4290  0.00  0.00     0.000 C
ATOM     14   O  BDP B   1      23.841  26.337  38.0890  0.00  0.00     0.000 OA
ATOM     15   O  BDP B   1      25.272  25.459  36.6790  0.00  0.00     0.000 OA
ENDBRANCH 5 13
BRANCH 1 16
ATOM     16  O3  NAG B   2      23.066  20.949  36.7640  0.00  0.00     0.000 O
BRANCH 16 19
ATOM     17  C1  NAG B   2      20.594  18.740  35.2610  0.00  0.00     0.000 C
ATOM     18  C2  NAG B   2      21.034  20.139  35.6910  0.00  0.00     0.000 C
ATOM     19  C3  NAG B   2      22.549  20.269  35.6200  0.00  0.00     0.000 C
ATOM     20  C4  NAG B   2      23.229  18.905  35.4780  0.00  0.00     0.000 C
ATOM     21  C5  NAG B   2      22.547  17.755  36.2320  0.00  0.00     0.000 C
ATOM     22  O5  NAG B   2      21.118  17.859  36.2570  0.00  0.00     0.000 O
ATOM     23   O  NAG B   2      23.320  18.585  34.0860  0.00  0.00     0.000 O
ATOM     25  HD  NAG B   2      22.531  18.883  33.8940  0.00  0.00     0.000 HD
ATOM     25   C  NAG B   2      23.058  17.678  37.6780  0.00  0.00     0.000 C
ATOM     26   O  NAG B   2      24.269  16.916  37.7740  0.00  0.00     0.000 O
ATOM     28  HD  NAG B   2      23.480  17.215  37.5810  0.00  0.00     0.000 HD
BRANCH 18 30
ATOM     28   N  NAG B   2      21.258  20.720  34.3680  0.00  0.00     0.000 N
ATOM     30  HD  NAG B   2      21.628  21.395  33.9720  0.00  0.00     0.000 HD
ATOM     30   C  NAG B   2      20.304  21.251  33.5910  0.00  0.00     0.000 C
ATOM     31   C  NAG B   2      20.785  21.774  32.2670  0.00  0.00     0.000 C
ATOM     32   O  NAG B   2      19.141  21.319  33.9160  0.00  0.00     0.000 OA
ENDBRANCH 18 30
BRANCH 17 33
ATOM     33  O4  BDP B   3      19.648  17.648  35.2420  0.00  0.00     0.000 O
BRANCH 33 37
ATOM     34  C1  BDP B   3      17.438  14.815  32.9330  0.00  0.00     0.000 C
ATOM     35  C2  BDP B   3      17.876  16.096  32.2320  0.00  0.00     0.000 C
ATOM     36  C3  BDP B   3      18.990  16.840  32.9590  0.00  0.00     0.000 C
ATOM     37  C4  BDP B   3      18.660  16.918  34.4580  0.00  0.00     0.000 C
ATOM     38  C5  BDP B   3      18.456  15.475  34.9570  0.00  0.00     0.000 C
ATOM     39  O5  BDP B   3      17.253  15.019  34.3380  0.00  0.00     0.000 O
ATOM     40   O  BDP B   3      18.254  15.717  30.9070  0.00  0.00     0.000 O
ATOM     42  HD  BDP B   3      17.394  15.755  30.8170  0.00  0.00     0.000 HD
ATOM     42   O  BDP B   3      19.073  18.135  32.3660  0.00  0.00     0.000 O
ATOM     44  HD  BDP B   3      18.213  18.173  32.2760  0.00  0.00     0.000 HD
BRANCH 38 44
ATOM     44   C  BDP B   3      18.342  15.345  36.4440  0.00  0.00     0.000 C
ATOM     45   O  BDP B   3      19.225  14.693  37.0440  0.00  0.00     0.000 OA
ATOM     46   O  BDP B   3      17.382  15.881  37.0400  0.00  0.00     0.000 OA
ENDBRANCH 38 44
BRANCH 34 47
ATOM     47  O3  NAG B   4      16.030  14.609  32.8380  0.00  0.00     0.000 O
BRANCH 47 50
ATOM     48  C1  NAG B   4      14.858  11.147  31.9530  0.00  0.00     0.000 C
ATOM     49  C2  NAG B   4      15.530  12.493  31.7440  0.00  0.00     0.000 C
ATOM     50  C3  NAG B   4      15.456  13.301  33.0350  0.00  0.00     0.000 C
ATOM     51  C4  NAG B   4      14.024  13.443  33.5250  0.00  0.00     0.000 C
ATOM     52  C5  NAG B   4      13.378  12.063  33.6490  0.00  0.00     0.000 C
ATOM     53  O5  NAG B   4      13.508  11.339  32.4180  0.00  0.00     0.000 O
ATOM     54   O  NAG B   4      14.029  14.113  34.7890  0.00  0.00     0.000 O
ATOM     56  HD  NAG B   4      13.240  14.077  34.4330  0.00  0.00     0.000 HD
ATOM     56   C  NAG B   4      11.904  12.173  34.0180  0.00  0.00     0.000 C
ATOM     57   O  NAG B   4      11.220  12.912  32.9980  0.00  0.00     0.000 O
ATOM     59  HD  NAG B   4      10.431  12.877  32.6420  0.00  0.00     0.000 HD
BRANCH 49 61
ATOM     59   N  NAG B   4      16.701  11.991  31.0250  0.00  0.00     0.000 N
ATOM     61  HD  NAG B   4      15.921  12.320  30.8460  0.00  0.00     0.000 HD
ATOM     61   O  NAG B   4      16.745  13.587  29.4280  0.00  0.00     0.000 OA
ATOM     62   C  NAG B   4      17.249  12.619  29.9780  0.00  0.00     0.000 C
ATOM     63   C  NAG B   4      18.561  12.074  29.5110  0.00  0.00     0.000 C
ENDBRANCH 49 61
BRANCH 48 64
ATOM     64  O4  BDP B   5      15.062   9.861  31.3740  0.00  0.00     0.000 O
BRANCH 64 68
ATOM     65  C1  BDP B   5      14.721   6.201  33.3380  0.00  0.00     0.000 C
ATOM     66  C2  BDP B   5      16.132   6.758  33.2060  0.00  0.00     0.000 C
ATOM     67  C3  BDP B   5      16.068   8.244  32.8760  0.00  0.00     0.000 C
ATOM     68  C4  BDP B   5      15.235   8.466  31.6180  0.00  0.00     0.000 C
ATOM     69  C5  BDP B   5      13.861   7.815  31.7160  0.00  0.00     0.000 C
ATOM     70  O5  BDP B   5      13.980   6.443  32.1320  0.00  0.00     0.000 O
ATOM     71   O  BDP B   5      16.862   6.515  34.4190  0.00  0.00     0.000 O
ATOM     73  HD  BDP B   5      17.249   6.361  35.1780  0.00  0.00     0.000 HD
ATOM     73   O  BDP B   5      17.384   8.771  32.6710  0.00  0.00     0.000 O
ATOM     75  HD  BDP B   5      17.771   8.617  33.4310  0.00  0.00     0.000 HD
BRANCH 69 75
ATOM     75   C  BDP B   5      13.212   7.874  30.3570  0.00  0.00     0.000 C
ATOM     76   O  BDP B   5      13.400   6.932  29.5610  0.00  0.00     0.000 OA
ATOM     77   O  BDP B   5      12.504   8.857  30.0690  0.00  0.00     0.000 OA
ENDBRANCH 69 75
BRANCH 65 78
ATOM     78  O3  NAG B   6      14.308   4.861  33.0540  0.00  0.00     0.000 O
BRANCH 78 81
ATOM     79  C1  NAG B   6      13.028   1.799  34.8750  0.00  0.00     0.000 C
ATOM     80  C2  NAG B   6      14.059   2.797  34.3240  0.00  0.00     0.000 C
ATOM     81  C3  NAG B   6      13.355   3.995  33.7080  0.00  0.00     0.000 C
ATOM     82  C4  NAG B   6      12.285   3.545  32.7090  0.00  0.00     0.000 C
ATOM     83  C5  NAG B   6      11.329   2.573  33.3920  0.00  0.00     0.000 C
ATOM     84  O5  NAG B   6      12.096   1.453  33.8350  0.00  0.00     0.000 O
BRANCH 80 87
ATOM     85   N  NAG B   6      14.988   2.998  35.4320  0.00  0.00     0.000 N
ATOM     87  HD  NAG B   6      15.680   2.740  35.8860  0.00  0.00     0.000 HD
ATOM     87   C  NAG B   6      16.290   3.270  35.2780  0.00  0.00     0.000 C
ATOM     88   C  NAG B   6      17.064   3.476  36.5410  0.00  0.00     0.000 C
ATOM     89   O  NAG B   6      16.828   3.363  34.1810  0.00  0.00     0.000 OA
ENDBRANCH 80 87
ATOM     90   O  NAG B   6       8.953   2.612  32.9460  0.00  0.00     0.000 O
ATOM     92  HD  NAG B   6       9.570   2.442  33.5300  0.00  0.00     0.000 HD
ATOM     92   O  NAG B   6       8.953   2.612  32.9460  0.00  0.00     0.000 O
ATOM     94  HD  NAG B   6       9.570   2.442  33.5300  0.00  0.00     0.000 HD
ENDBRANCH 78 81
ENDBRANCH 65 78
ENDBRANCH 64 68
ENDBRANCH 48 64
ENDBRANCH 47 50
ENDBRANCH 34 47
ENDBRANCH 33 37
ENDBRANCH 17 33
ENDBRANCH 16 19
ENDBRANCH 1 16
TORSDOF 16
ENDMDL
MODEL 54
REMARK VINA RESULT:      -3.9      8.556     13.048
ROOT
ATOM      1  C1  BDP B   1      29.351   9.192  40.6660  0.00  0.00     0.000 C
ATOM      2  C2  BDP B   1      30.664   9.327  39.9150  0.00  0.00     0.000 C
ATOM      3  C3  BDP B   1      31.401   8.009  39.8150  0.00  0.00     0.000 C
ATOM      4  C4  BDP B   1      30.548   6.792  40.1530  0.00  0.00     0.000 C
ATOM      5  C5  BDP B   1      29.735   6.977  41.4310  0.00  0.00     0.000 C
ATOM      6  O5  BDP B   1      29.601   8.363  41.7920  0.00  0.00     0.000 O
ATOM      7   O  BDP B   1      30.422   9.844  38.6020  0.00  0.00     0.000 O
ATOM      9  HD  BDP B   1      30.029  10.397  38.0640  0.00  0.00     0.000 HD
ATOM      9   O  BDP B   1      32.530   8.010  40.7030  0.00  0.00     0.000 O
ATOM     11  HD  BDP B   1      32.137   8.563  40.1650  0.00  0.00     0.000 HD
ATOM     11   O  BDP B   1      29.671   6.478  39.0640  0.00  0.00     0.000 O
ATOM     13  HD  BDP B   1      29.278   7.031  38.5260  0.00  0.00     0.000 HD
ENDROOT
BRANCH 5 13
ATOM     13   C  BDP B   1      30.445   6.243  42.5150  0.00  0.00     0.000 C
ATOM     14   O  BDP B   1      30.709   5.036  42.3340  0.00  0.00     0.000 OA
ATOM     15   O  BDP B   1      30.775   6.859  43.5510  0.00  0.00     0.000 OA
ENDBRANCH 5 13
BRANCH 1 16
ATOM     16  O3  NAG B   2      28.015   9.476  40.2570  0.00  0.00     0.000 O
BRANCH 16 19
ATOM     17  C1  NAG B   2      25.979   9.538  37.2390  0.00  0.00     0.000 C
ATOM     18  C2  NAG B   2      27.043   8.866  38.1080  0.00  0.00     0.000 C
ATOM     19  C3  NAG B   2      26.797   9.163  39.5800  0.00  0.00     0.000 C
ATOM     20  C4  NAG B   2      25.792  10.303  39.7680  0.00  0.00     0.000 C
ATOM     21  C5  NAG B   2      25.867  11.418  38.7160  0.00  0.00     0.000 C
ATOM     22  O5  NAG B   2      26.192  10.942  37.4050  0.00  0.00     0.000 O
ATOM     23   O  NAG B   2      24.474   9.747  39.7940  0.00  0.00     0.000 O
ATOM     25  HD  NAG B   2      24.624   9.180  39.1560  0.00  0.00     0.000 HD
ATOM     25   C  NAG B   2      26.900  12.478  39.1230  0.00  0.00     0.000 C
ATOM     26   O  NAG B   2      26.335  13.458  40.0070  0.00  0.00     0.000 O
ATOM     28  HD  NAG B   2      26.486  12.891  39.3690  0.00  0.00     0.000 HD
BRANCH 18 30
ATOM     28   N  NAG B   2      26.434   7.636  38.6130  0.00  0.00     0.000 N
ATOM     30  HD  NAG B   2      26.602   6.942  39.1020  0.00  0.00     0.000 HD
ATOM     30   C  NAG B   2      26.106   6.576  37.8610  0.00  0.00     0.000 C
ATOM     31   C  NAG B   2      25.482   5.436  38.6150  0.00  0.00     0.000 C
ATOM     32   O  NAG B   2      26.297   6.521  36.6690  0.00  0.00     0.000 OA
ENDBRANCH 18 30
BRANCH 17 33
ATOM     33  O4  BDP B   3      25.509  10.076  35.9840  0.00  0.00     0.000 O
BRANCH 33 37
ATOM     34  C1  BDP B   3      24.016   9.919  31.9850  0.00  0.00     0.000 C
ATOM     35  C2  BDP B   3      23.879   8.658  32.8300  0.00  0.00     0.000 C
ATOM     36  C3  BDP B   3      24.032   8.906  34.3260  0.00  0.00     0.000 C
ATOM     37  C4  BDP B   3      25.250   9.809  34.5740  0.00  0.00     0.000 C
ATOM     38  C5  BDP B   3      25.040  11.097  33.7550  0.00  0.00     0.000 C
ATOM     39  O5  BDP B   3      25.144  10.705  32.3870  0.00  0.00     0.000 O
ATOM     40   O  BDP B   3      22.608   8.093  32.5020  0.00  0.00     0.000 O
ATOM     42  HD  BDP B   3      23.082   7.806  31.8360  0.00  0.00     0.000 HD
ATOM     42   O  BDP B   3      24.185   7.627  34.9400  0.00  0.00     0.000 O
ATOM     44  HD  BDP B   3      24.658   7.340  34.2740  0.00  0.00     0.000 HD
BRANCH 38 44
ATOM     44   C  BDP B   3      26.025  12.184  34.0480  0.00  0.00     0.000 C
ATOM     45   O  BDP B   3      27.243  11.908  33.9700  0.00  0.00     0.000 OA
ATOM     46   O  BDP B   3      25.615  13.323  34.3600  0.00  0.00     0.000 OA
ENDBRANCH 38 44
BRANCH 34 47
ATOM     47  O3  NAG B   4      24.702   9.670  30.7600  0.00  0.00     0.000 O
BRANCH 47 50
ATOM     48  C1  NAG B   4      23.239  11.146  27.6250  0.00  0.00     0.000 C
ATOM     49  C2  NAG B   4      23.319  10.236  28.8370  0.00  0.00     0.000 C
ATOM     50  C3  NAG B   4      24.572  10.569  29.6400  0.00  0.00     0.000 C
ATOM     51  C4  NAG B   4      25.824  10.494  28.7800  0.00  0.00     0.000 C
ATOM     52  C5  NAG B   4      25.657  11.374  27.5420  0.00  0.00     0.000 C
ATOM     53  O5  NAG B   4      24.449  11.038  26.8480  0.00  0.00     0.000 O
ATOM     54   O  NAG B   4      26.947  10.920  29.5550  0.00  0.00     0.000 O
ATOM     56  HD  NAG B   4      27.180  10.519  28.8240  0.00  0.00     0.000 HD
ATOM     56   C  NAG B   4      26.841  11.227  26.5940  0.00  0.00     0.000 C
ATOM     57   O  NAG B   4      26.939   9.858  26.1770  0.00  0.00     0.000 O
ATOM     59  HD  NAG B   4      27.171   9.457  25.4450  0.00  0.00     0.000 HD
BRANCH 49 61
ATOM     59   N  NAG B   4      21.898  10.329  29.1710  0.00  0.00     0.000 N
ATOM     61  HD  NAG B   4      22.431   9.799  28.7410  0.00  0.00     0.000 HD
ATOM     61   O  NAG B   4      21.591   8.147  29.6690  0.00  0.00     0.000 OA
ATOM     62   C  NAG B   4      21.178   9.297  29.6270  0.00  0.00     0.000 C
ATOM     63   C  NAG B   4      19.805   9.632  30.1160  0.00  0.00     0.000 C
ENDBRANCH 49 61
BRANCH 48 64
ATOM     64  O4  BDP B   5      22.147  11.664  26.8710  0.00  0.00     0.000 O
BRANCH 64 68
ATOM     65  C1  BDP B   5      21.598  11.086  22.7800  0.00  0.00     0.000 C
ATOM     66  C2  BDP B   5      21.637  12.534  23.2500  0.00  0.00     0.000 C
ATOM     67  C3  BDP B   5      22.258  12.606  24.6380  0.00  0.00     0.000 C
ATOM     68  C4  BDP B   5      21.496  11.703  25.6020  0.00  0.00     0.000 C
ATOM     69  C5  BDP B   5      21.370  10.278  25.0770  0.00  0.00     0.000 C
ATOM     70  O5  BDP B   5      20.877  10.279  23.7250  0.00  0.00     0.000 O
ATOM     71   O  BDP B   5      22.364  13.329  22.3010  0.00  0.00     0.000 O
ATOM     73  HD  BDP B   5      22.828  13.757  21.7080  0.00  0.00     0.000 HD
ATOM     73   O  BDP B   5      22.233  13.950  25.1310  0.00  0.00     0.000 O
ATOM     75  HD  BDP B   5      22.697  14.379  24.5390  0.00  0.00     0.000 HD
BRANCH 69 75
ATOM     75   C  BDP B   5      20.407   9.530  25.9630  0.00  0.00     0.000 C
ATOM     76   O  BDP B   5      20.712   8.382  26.3450  0.00  0.00     0.000 OA
ATOM     77   O  BDP B   5      19.339  10.079  26.2910  0.00  0.00     0.000 OA
ENDBRANCH 69 75
BRANCH 65 78
ATOM     78  O3  NAG B   6      20.636  10.506  21.8950  0.00  0.00     0.000 O
BRANCH 78 81
ATOM     79  C1  NAG B   6      20.403   8.741  18.5530  0.00  0.00     0.000 C
ATOM     80  C2  NAG B   6      20.450   9.922  19.5360  0.00  0.00     0.000 C
ATOM     81  C3  NAG B   6      20.742   9.424  20.9430  0.00  0.00     0.000 C
ATOM     82  C4  NAG B   6      19.786   8.291  21.3300  0.00  0.00     0.000 C
ATOM     83  C5  NAG B   6      19.853   7.190  20.2780  0.00  0.00     0.000 C
ATOM     84  O5  NAG B   6      19.463   7.762  19.0290  0.00  0.00     0.000 O
BRANCH 80 87
ATOM     85   N  NAG B   6      21.497  10.906  19.2770  0.00  0.00     0.000 N
ATOM     87  HD  NAG B   6      21.883  11.464  18.7390  0.00  0.00     0.000 HD
ATOM     87   C  NAG B   6      21.264  12.204  19.0430  0.00  0.00     0.000 C
ATOM     88   C  NAG B   6      22.477  13.054  18.8350  0.00  0.00     0.000 C
ATOM     89   O  NAG B   6      20.137  12.685  19.0120  0.00  0.00     0.000 OA
ENDBRANCH 80 87
ATOM     90   O  NAG B   6      19.762   4.852  20.8880  0.00  0.00     0.000 O
ATOM     92  HD  NAG B   6      20.064   5.434  20.3220  0.00  0.00     0.000 HD
ATOM     92   O  NAG B   6      19.762   4.852  20.8880  0.00  0.00     0.000 O
ATOM     94  HD  NAG B   6      20.064   5.434  20.3220  0.00  0.00     0.000 HD
ENDBRANCH 78 81
ENDBRANCH 65 78
ENDBRANCH 64 68
ENDBRANCH 48 64
ENDBRANCH 47 50
ENDBRANCH 34 47
ENDBRANCH 33 37
ENDBRANCH 17 33
ENDBRANCH 16 19
ENDBRANCH 1 16
TORSDOF 16
ENDMDL
MODEL 55
REMARK VINA RESULT:      -3.9     17.021     24.456
ROOT
ATOM      1  C1  BDP B   1      14.632  20.101  45.4190  0.00  0.00     0.000 C
ATOM      2  C2  BDP B   1      15.101  20.484  44.0270  0.00  0.00     0.000 C
ATOM      3  C3  BDP B   1      16.583  20.239  43.8360  0.00  0.00     0.000 C
ATOM      4  C4  BDP B   1      17.210  19.357  44.9100  0.00  0.00     0.000 C
ATOM      5  C5  BDP B   1      16.803  19.766  46.3220  0.00  0.00     0.000 C
ATOM      6  O5  BDP B   1      15.613  20.574  46.3310  0.00  0.00     0.000 O
ATOM      7   O  BDP B   1      14.362  19.748  43.0460  0.00  0.00     0.000 O
ATOM      9  HD  BDP B   1      13.619  19.430  42.7350  0.00  0.00     0.000 HD
ATOM      9   O  BDP B   1      17.289  21.490  43.8330  0.00  0.00     0.000 O
ATOM     11  HD  BDP B   1      16.546  21.173  43.5220  0.00  0.00     0.000 HD
ATOM     11   O  BDP B   1      16.871  17.983  44.6880  0.00  0.00     0.000 O
ATOM     13  HD  BDP B   1      16.127  17.665  44.3770  0.00  0.00     0.000 HD
ENDROOT
BRANCH 5 13
ATOM     13   C  BDP B   1      17.937  20.536  46.9020  0.00  0.00     0.000 C
ATOM     14   O  BDP B   1      18.996  20.611  46.2440  0.00  0.00     0.000 OA
ATOM     15   O  BDP B   1      17.787  21.100  48.0070  0.00  0.00     0.000 OA
ENDBRANCH 5 13
BRANCH 1 16
ATOM     16  O3  NAG B   2      13.642  19.165  45.8400  0.00  0.00     0.000 O
BRANCH 16 19
ATOM     17  C1  NAG B   2      13.095  15.766  47.0230  0.00  0.00     0.000 C
ATOM     18  C2  NAG B   2      13.943  17.038  46.9890  0.00  0.00     0.000 C
ATOM     19  C3  NAG B   2      13.063  18.262  46.7830  0.00  0.00     0.000 C
ATOM     20  C4  NAG B   2      11.652  17.877  46.3290  0.00  0.00     0.000 C
ATOM     21  C5  NAG B   2      11.576  16.656  45.4020  0.00  0.00     0.000 C
ATOM     22  O5  NAG B   2      12.545  15.647  45.7090  0.00  0.00     0.000 O
ATOM     23   O  NAG B   2      10.846  17.654  47.4910  0.00  0.00     0.000 O
ATOM     25  HD  NAG B   2      11.468  17.241  47.9300  0.00  0.00     0.000 HD
ATOM     25   C  NAG B   2      11.756  17.078  43.9370  0.00  0.00     0.000 C
ATOM     26   O  NAG B   2      10.517  17.501  43.3500  0.00  0.00     0.000 O
ATOM     28  HD  NAG B   2      11.139  17.088  43.7880  0.00  0.00     0.000 HD
BRANCH 18 30
ATOM     28   N  NAG B   2      14.792  16.965  48.1770  0.00  0.00     0.000 N
ATOM     30  HD  NAG B   2      15.269  16.412  48.6420  0.00  0.00     0.000 HD
ATOM     30   C  NAG B   2      14.359  17.086  49.4390  0.00  0.00     0.000 C
ATOM     31   C  NAG B   2      15.430  16.985  50.4880  0.00  0.00     0.000 C
ATOM     32   O  NAG B   2      13.198  17.259  49.7320  0.00  0.00     0.000 OA
ENDBRANCH 18 30
BRANCH 17 33
ATOM     33  O4  BDP B   3      12.928  14.338  46.8830  0.00  0.00     0.000 O
BRANCH 33 37
ATOM     34  C1  BDP B   3      10.503  10.823  46.9410  0.00  0.00     0.000 C
ATOM     35  C2  BDP B   3      11.620  10.882  45.9050  0.00  0.00     0.000 C
ATOM     36  C3  BDP B   3      12.681  11.933  46.2110  0.00  0.00     0.000 C
ATOM     37  C4  BDP B   3      11.998  13.251  46.6070  0.00  0.00     0.000 C
ATOM     38  C5  BDP B   3      11.072  12.946  47.8000  0.00  0.00     0.000 C
ATOM     39  O5  BDP B   3      10.024  12.130  47.2760  0.00  0.00     0.000 O
ATOM     40   O  BDP B   3      12.169   9.565  45.8330  0.00  0.00     0.000 O
ATOM     42  HD  BDP B   3      11.470   9.469  45.3300  0.00  0.00     0.000 HD
ATOM     42   O  BDP B   3      13.467  12.077  45.0290  0.00  0.00     0.000 O
ATOM     44  HD  BDP B   3      12.769  11.982  44.5260  0.00  0.00     0.000 HD
BRANCH 38 44
ATOM     44   C  BDP B   3      10.490  14.158  48.4580  0.00  0.00     0.000 C
ATOM     45   O  BDP B   3      10.843  14.413  49.6310  0.00  0.00     0.000 OA
ATOM     46   O  BDP B   3       9.679  14.873  47.8300  0.00  0.00     0.000 OA
ENDBRANCH 38 44
BRANCH 34 47
ATOM     47  O3  NAG B   4       9.232  10.576  46.3420  0.00  0.00     0.000 O
BRANCH 47 50
ATOM     48  C1  NAG B   4       7.019   7.831  47.6520  0.00  0.00     0.000 C
ATOM     49  C2  NAG B   4       8.192   8.450  46.9110  0.00  0.00     0.000 C
ATOM     50  C3  NAG B   4       8.165   9.963  47.0930  0.00  0.00     0.000 C
ATOM     51  C4  NAG B   4       6.833  10.555  46.6580  0.00  0.00     0.000 C
ATOM     52  C5  NAG B   4       5.689   9.846  47.3830  0.00  0.00     0.000 C
ATOM     53  O5  NAG B   4       5.786   8.427  47.2040  0.00  0.00     0.000 O
ATOM     54   O  NAG B   4       6.827  11.954  46.9520  0.00  0.00     0.000 O
ATOM     56  HD  NAG B   4       6.185  11.722  46.4200  0.00  0.00     0.000 HD
ATOM     56   C  NAG B   4       4.333  10.327  46.8790  0.00  0.00     0.000 C
ATOM     57   O  NAG B   4       4.231  10.052  45.4760  0.00  0.00     0.000 O
ATOM     59  HD  NAG B   4       3.588   9.820  44.9440  0.00  0.00     0.000 HD
BRANCH 49 61
ATOM     59   N  NAG B   4       9.209   7.491  47.3450  0.00  0.00     0.000 N
ATOM     61  HD  NAG B   4       8.673   7.612  46.6760  0.00  0.00     0.000 HD
ATOM     61   O  NAG B   4      10.207   7.226  45.3360  0.00  0.00     0.000 OA
ATOM     62   C  NAG B   4      10.170   7.021  46.5400  0.00  0.00     0.000 C
ATOM     63   C  NAG B   4      11.242   6.222  47.2110  0.00  0.00     0.000 C
ENDBRANCH 49 61
BRANCH 48 64
ATOM     64  O4  BDP B   5       6.823   6.563  48.2710  0.00  0.00     0.000 O
BRANCH 64 68
ATOM     65  C1  BDP B   5       7.172   5.794  52.3530  0.00  0.00     0.000 C
ATOM     66  C2  BDP B   5       7.935   4.854  51.4290  0.00  0.00     0.000 C
ATOM     67  C3  BDP B   5       8.072   5.489  50.0510  0.00  0.00     0.000 C
ATOM     68  C4  BDP B   5       6.697   5.853  49.5020  0.00  0.00     0.000 C
ATOM     69  C5  BDP B   5       5.897   6.707  50.4770  0.00  0.00     0.000 C
ATOM     70  O5  BDP B   5       5.891   6.110  51.7850  0.00  0.00     0.000 O
ATOM     71   O  BDP B   5       9.215   4.549  52.0030  0.00  0.00     0.000 O
ATOM     73  HD  BDP B   5       9.982   4.415  52.3830  0.00  0.00     0.000 HD
ATOM     73   O  BDP B   5       8.720   4.588  49.1450  0.00  0.00     0.000 O
ATOM     75  HD  BDP B   5       9.486   4.454  49.5250  0.00  0.00     0.000 HD
BRANCH 69 75
ATOM     75   C  BDP B   5       4.483   6.812  49.9640  0.00  0.00     0.000 C
ATOM     76   O  BDP B   5       3.966   7.942  49.8580  0.00  0.00     0.000 OA
ATOM     77   O  BDP B   5       3.874   5.770  49.6580  0.00  0.00     0.000 OA
ENDBRANCH 69 75
BRANCH 65 78
ATOM     78  O3  NAG B   6       6.338   5.414  53.4510  0.00  0.00     0.000 O
BRANCH 78 81
ATOM     79  C1  NAG B   6       5.450   6.441  56.9850  0.00  0.00     0.000 C
ATOM     80  C2  NAG B   6       6.220   5.723  55.8650  0.00  0.00     0.000 C
ATOM     81  C3  NAG B   6       5.730   6.192  54.5040  0.00  0.00     0.000 C
ATOM     82  C4  NAG B   6       4.203   6.096  54.4120  0.00  0.00     0.000 C
ATOM     83  C5  NAG B   6       3.576   6.860  55.5720  0.00  0.00     0.000 C
ATOM     84  O5  NAG B   6       4.037   6.260  56.7840  0.00  0.00     0.000 O
BRANCH 80 87
ATOM     85   N  NAG B   6       7.283   4.729  55.9920  0.00  0.00     0.000 N
ATOM     87  HD  NAG B   6       7.946   4.295  55.6440  0.00  0.00     0.000 HD
ATOM     87   C  NAG B   6       8.589   5.018  55.9380  0.00  0.00     0.000 C
ATOM     88   C  NAG B   6       9.518   3.861  56.1250  0.00  0.00     0.000 C
ATOM     89   O  NAG B   6       9.016   6.154  55.7630  0.00  0.00     0.000 OA
ENDBRANCH 80 87
ATOM     90   O  NAG B   6       1.564   8.169  55.2830  0.00  0.00     0.000 O
ATOM     92  HD  NAG B   6       2.307   8.084  55.7190  0.00  0.00     0.000 HD
ATOM     92   O  NAG B   6       1.564   8.169  55.2830  0.00  0.00     0.000 O
ATOM     94  HD  NAG B   6       2.307   8.084  55.7190  0.00  0.00     0.000 HD
ENDBRANCH 78 81
ENDBRANCH 65 78
ENDBRANCH 64 68
ENDBRANCH 48 64
ENDBRANCH 47 50
ENDBRANCH 34 47
ENDBRANCH 33 37
ENDBRANCH 17 33
ENDBRANCH 16 19
ENDBRANCH 1 16
TORSDOF 16
ENDMDL
MODEL 56
REMARK VINA RESULT:      -3.8      9.123     16.089
ROOT
ATOM      1  C1  BDP B   1      26.333  11.202  44.8280  0.00  0.00     0.000 C
ATOM      2  C2  BDP B   1      26.455  10.622  46.2260  0.00  0.00     0.000 C
ATOM      3  C3  BDP B   1      27.451  11.384  47.0750  0.00  0.00     0.000 C
ATOM      4  C4  BDP B   1      27.845  12.741  46.5020  0.00  0.00     0.000 C
ATOM      5  C5  BDP B   1      28.182  12.679  45.0160  0.00  0.00     0.000 C
ATOM      6  O5  BDP B   1      27.650  11.501  44.3870  0.00  0.00     0.000 O
ATOM      7   O  BDP B   1      25.175  10.626  46.8680  0.00  0.00     0.000 O
ATOM      9  HD  BDP B   1      24.320  10.487  46.8580  0.00  0.00     0.000 HD
ATOM      9   O  BDP B   1      28.652  10.613  47.2330  0.00  0.00     0.000 O
ATOM     11  HD  BDP B   1      27.797  10.474  47.2230  0.00  0.00     0.000 HD
ATOM     11   O  BDP B   1      26.801  13.698  46.7210  0.00  0.00     0.000 O
ATOM     13  HD  BDP B   1      25.946  13.559  46.7110  0.00  0.00     0.000 HD
ENDROOT
BRANCH 5 13
ATOM     13   C  BDP B   1      29.667  12.682  44.9010  0.00  0.00     0.000 C
ATOM     14   O  BDP B   1      30.170  12.534  43.7680  0.00  0.00     0.000 OA
ATOM     15   O  BDP B   1      30.356  12.857  45.9280  0.00  0.00     0.000 OA
ENDBRANCH 5 13
BRANCH 1 16
ATOM     16  O3  NAG B   2      25.200  11.722  44.1360  0.00  0.00     0.000 O
BRANCH 16 19
ATOM     17  C1  NAG B   2      21.925  10.650  42.9620  0.00  0.00     0.000 C
ATOM     18  C2  NAG B   2      23.006  10.666  44.0430  0.00  0.00     0.000 C
ATOM     19  C3  NAG B   2      23.800  11.963  43.9850  0.00  0.00     0.000 C
ATOM     20  C4  NAG B   2      23.544  12.728  42.6840  0.00  0.00     0.000 C
ATOM     21  C5  NAG B   2      23.332  11.849  41.4430  0.00  0.00     0.000 C
ATOM     22  O5  NAG B   2      22.635  10.630  41.7210  0.00  0.00     0.000 O
ATOM     23   O  NAG B   2      22.411  13.581  42.8730  0.00  0.00     0.000 O
ATOM     25  HD  NAG B   2      21.958  12.997  43.3240  0.00  0.00     0.000 HD
ATOM     25   C  NAG B   2      24.677  11.506  40.7870  0.00  0.00     0.000 C
ATOM     26   O  NAG B   2      25.107  12.537  39.8860  0.00  0.00     0.000 O
ATOM     28  HD  NAG B   2      24.654  11.952  40.3370  0.00  0.00     0.000 HD
BRANCH 18 30
ATOM     28   N  NAG B   2      21.687  10.939  44.6110  0.00  0.00     0.000 N
ATOM     30  HD  NAG B   2      21.079  11.554  44.6620  0.00  0.00     0.000 HD
ATOM     30   C  NAG B   2      21.430  11.088  45.9190  0.00  0.00     0.000 C
ATOM     31   C  NAG B   2      19.990  11.352  46.2540  0.00  0.00     0.000 C
ATOM     32   O  NAG B   2      22.280  11.024  46.7760  0.00  0.00     0.000 OA
ENDBRANCH 18 30
BRANCH 17 33
ATOM     33  O4  BDP B   3      21.005   9.962  42.0860  0.00  0.00     0.000 O
BRANCH 33 37
ATOM     34  C1  BDP B   3      17.709   7.510  40.9150  0.00  0.00     0.000 C
ATOM     35  C2  BDP B   3      17.454   8.548  42.0020  0.00  0.00     0.000 C
ATOM     36  C3  BDP B   3      18.516   9.640  42.0650  0.00  0.00     0.000 C
ATOM     37  C4  BDP B   3      19.912   9.002  41.9940  0.00  0.00     0.000 C
ATOM     38  C5  BDP B   3      19.967   8.163  40.7030  0.00  0.00     0.000 C
ATOM     39  O5  BDP B   3      19.073   7.071  40.9140  0.00  0.00     0.000 O
ATOM     40   O  BDP B   3      16.150   9.075  41.7520  0.00  0.00     0.000 O
ATOM     42  HD  BDP B   3      15.944   8.341  42.1620  0.00  0.00     0.000 HD
ATOM     42   O  BDP B   3      18.313  10.339  43.2920  0.00  0.00     0.000 O
ATOM     44  HD  BDP B   3      18.107   9.604  43.7010  0.00  0.00     0.000 HD
BRANCH 38 44
ATOM     44   C  BDP B   3      21.329   7.645  40.3590  0.00  0.00     0.000 C
ATOM     45   O  BDP B   3      21.922   8.159  39.3860  0.00  0.00     0.000 OA
ATOM     46   O  BDP B   3      21.830   6.725  41.0420  0.00  0.00     0.000 OA
ENDBRANCH 38 44
BRANCH 34 47
ATOM     47  O3  NAG B   4      17.350   6.196  41.3370  0.00  0.00     0.000 O
BRANCH 47 50
ATOM     48  C1  NAG B   4      15.697   3.780  38.9750  0.00  0.00     0.000 C
ATOM     49  C2  NAG B   4      15.800   4.966  39.9180  0.00  0.00     0.000 C
ATOM     50  C3  NAG B   4      17.243   5.115  40.3880  0.00  0.00     0.000 C
ATOM     51  C4  NAG B   4      17.760   3.832  41.0200  0.00  0.00     0.000 C
ATOM     52  C5  NAG B   4      17.565   2.663  40.0540  0.00  0.00     0.000 C
ATOM     53  O5  NAG B   4      16.201   2.594  39.6210  0.00  0.00     0.000 O
ATOM     54   O  NAG B   4      19.143   3.996  41.3410  0.00  0.00     0.000 O
ATOM     56  HD  NAG B   4      18.793   3.301  41.7210  0.00  0.00     0.000 HD
ATOM     56   C  NAG B   4      17.957   1.340  40.7010  0.00  0.00     0.000 C
ATOM     57   O  NAG B   4      17.138   1.124  41.8580  0.00  0.00     0.000 O
ATOM     59  HD  NAG B   4      16.788   0.428  42.2370  0.00  0.00     0.000 HD
BRANCH 49 61
ATOM     59   N  NAG B   4      15.219   6.112  39.2160  0.00  0.00     0.000 N
ATOM     61  HD  NAG B   4      14.957   5.454  39.7150  0.00  0.00     0.000 HD
ATOM     61   O  NAG B   4      13.792   6.737  40.8510  0.00  0.00     0.000 OA
ATOM     62   C  NAG B   4      14.323   6.938  39.7680  0.00  0.00     0.000 C
ATOM     63   C  NAG B   4      14.006   8.169  38.9810  0.00  0.00     0.000 C
ENDBRANCH 49 61
BRANCH 48 64
ATOM     64  O4  BDP B   5      14.837   3.485  37.8790  0.00  0.00     0.000 O
BRANCH 64 68
ATOM     65  C1  BDP B   5      11.820   5.961  36.4160  0.00  0.00     0.000 C
ATOM     66  C2  BDP B   5      11.369   4.828  37.3290  0.00  0.00     0.000 C
ATOM     67  C3  BDP B   5      12.563   4.296  38.1120  0.00  0.00     0.000 C
ATOM     68  C4  BDP B   5      13.668   3.864  37.1540  0.00  0.00     0.000 C
ATOM     69  C5  BDP B   5      14.041   4.968  36.1730  0.00  0.00     0.000 C
ATOM     70  O5  BDP B   5      12.864   5.504  35.5420  0.00  0.00     0.000 O
ATOM     71   O  BDP B   5      10.330   5.298  38.2020  0.00  0.00     0.000 O
ATOM     73  HD  BDP B   5       9.721   5.637  38.7160  0.00  0.00     0.000 HD
ATOM     73   O  BDP B   5      12.175   3.178  38.9200  0.00  0.00     0.000 O
ATOM     75  HD  BDP B   5      11.567   3.518  39.4350  0.00  0.00     0.000 HD
BRANCH 69 75
ATOM     75   C  BDP B   5      14.951   4.382  35.1240  0.00  0.00     0.000 C
ATOM     76   O  BDP B   5      14.501   3.502  34.3630  0.00  0.00     0.000 OA
ATOM     77   O  BDP B   5      16.124   4.793  35.0450  0.00  0.00     0.000 OA
ENDBRANCH 69 75
BRANCH 65 78
ATOM     78  O3  NAG B   6      11.238   6.321  35.1600  0.00  0.00     0.000 O
BRANCH 78 81
ATOM     79  C1  NAG B   6      10.139   9.637  33.7020  0.00  0.00     0.000 C
ATOM     80  C2  NAG B   6      10.128   8.430  34.6520  0.00  0.00     0.000 C
ATOM     81  C3  NAG B   6      11.324   7.532  34.3790  0.00  0.00     0.000 C
ATOM     82  C4  NAG B   6      11.417   7.187  32.8880  0.00  0.00     0.000 C
ATOM     83  C5  NAG B   6      11.432   8.474  32.0710  0.00  0.00     0.000 C
ATOM     84  O5  NAG B   6      10.217   9.173  32.3420  0.00  0.00     0.000 O
BRANCH 80 87
ATOM     85   N  NAG B   6      10.039   8.974  36.0050  0.00  0.00     0.000 N
ATOM     87  HD  NAG B   6       9.569   9.333  36.6370  0.00  0.00     0.000 HD
ATOM     87   C  NAG B   6       9.324   8.418  36.9900  0.00  0.00     0.000 C
ATOM     88   C  NAG B   6       9.392   9.112  38.3130  0.00  0.00     0.000 C
ATOM     89   O  NAG B   6       8.661   7.398  36.8420  0.00  0.00     0.000 OA
ENDBRANCH 80 87
ATOM     90   O  NAG B   6      12.827   8.709  30.1090  0.00  0.00     0.000 O
ATOM     92  HD  NAG B   6      12.451   9.117  30.7750  0.00  0.00     0.000 HD
ATOM     92   O  NAG B   6      12.827   8.709  30.1090  0.00  0.00     0.000 O
ATOM     94  HD  NAG B   6      12.451   9.117  30.7750  0.00  0.00     0.000 HD
ENDBRANCH 78 81
ENDBRANCH 65 78
ENDBRANCH 64 68
ENDBRANCH 48 64
ENDBRANCH 47 50
ENDBRANCH 34 47
ENDBRANCH 33 37
ENDBRANCH 17 33
ENDBRANCH 16 19
ENDBRANCH 1 16
TORSDOF 16
ENDMDL
MODEL 57
REMARK VINA RESULT:      -3.8      9.563     16.110
ROOT
ATOM      1  C1  BDP B   1      25.592  23.036  38.2950  0.00  0.00     0.000 C
ATOM      2  C2  BDP B   1      25.384  22.663  39.7520  0.00  0.00     0.000 C
ATOM      3  C3  BDP B   1      24.785  23.801  40.5520  0.00  0.00     0.000 C
ATOM      4  C4  BDP B   1      24.198  24.919  39.6980  0.00  0.00     0.000 C
ATOM      5  C5  BDP B   1      25.128  25.349  38.5670  0.00  0.00     0.000 C
ATOM      6  O5  BDP B   1      26.123  24.353  38.2760  0.00  0.00     0.000 O
ATOM      7   O  BDP B   1      24.536  21.513  39.8440  0.00  0.00     0.000 O
ATOM      9  HD  BDP B   1      24.296  20.723  39.5820  0.00  0.00     0.000 HD
ATOM      9   O  BDP B   1      25.787  24.381  41.4020  0.00  0.00     0.000 O
ATOM     11  HD  BDP B   1      25.547  23.591  41.1400  0.00  0.00     0.000 HD
ATOM     11   O  BDP B   1      22.932  24.523  39.1580  0.00  0.00     0.000 O
ATOM     13  HD  BDP B   1      22.692  23.733  38.8960  0.00  0.00     0.000 HD
ENDROOT
BRANCH 5 13
ATOM     13   C  BDP B   1      25.791  26.610  38.9970  0.00  0.00     0.000 C
ATOM     14   O  BDP B   1      26.642  27.118  38.2370  0.00  0.00     0.000 OA
ATOM     15   O  BDP B   1      25.460  27.131  40.0830  0.00  0.00     0.000 OA
ENDBRANCH 5 13
BRANCH 1 16
ATOM     16  O3  NAG B   2      25.078  22.443  37.1040  0.00  0.00     0.000 O
BRANCH 16 19
ATOM     17  C1  NAG B   2      23.673  20.699  34.2330  0.00  0.00     0.000 C
ATOM     18  C2  NAG B   2      23.853  21.980  35.0490  0.00  0.00     0.000 C
ATOM     19  C3  NAG B   2      25.199  21.978  35.7590  0.00  0.00     0.000 C
ATOM     20  C4  NAG B   2      25.843  20.589  35.7490  0.00  0.00     0.000 C
ATOM     21  C5  NAG B   2      24.862  19.414  35.8650  0.00  0.00     0.000 C
ATOM     22  O5  NAG B   2      23.616  19.645  35.1970  0.00  0.00     0.000 O
ATOM     23   O  NAG B   2      26.619  20.456  34.5540  0.00  0.00     0.000 O
ATOM     25  HD  NAG B   2      26.037  20.850  34.0480  0.00  0.00     0.000 HD
ATOM     25   C  NAG B   2      24.575  19.092  37.3380  0.00  0.00     0.000 C
ATOM     26   O  NAG B   2      25.566  18.216  37.8930  0.00  0.00     0.000 O
ATOM     28  HD  NAG B   2      24.983  18.610  37.3880  0.00  0.00     0.000 HD
BRANCH 18 30
ATOM     28   N  NAG B   2      24.062  22.228  33.6240  0.00  0.00     0.000 N
ATOM     30  HD  NAG B   2      24.628  22.092  32.9820  0.00  0.00     0.000 HD
ATOM     30   C  NAG B   2      24.290  23.432  33.0800  0.00  0.00     0.000 C
ATOM     31   C  NAG B   2      24.463  23.429  31.5870  0.00  0.00     0.000 C
ATOM     32   O  NAG B   2      24.361  24.452  33.7250  0.00  0.00     0.000 OA
ENDBRANCH 18 30
BRANCH 17 33
ATOM     33  O4  BDP B   3      22.854  19.713  33.5680  0.00  0.00     0.000 O
BRANCH 33 37
ATOM     34  C1  BDP B   3      22.054  16.979  30.3850  0.00  0.00     0.000 C
ATOM     35  C2  BDP B   3      23.314  17.829  30.2740  0.00  0.00     0.000 C
ATOM     36  C3  BDP B   3      23.753  18.447  31.5970  0.00  0.00     0.000 C
ATOM     37  C4  BDP B   3      22.535  19.059  32.3060  0.00  0.00     0.000 C
ATOM     38  C5  BDP B   3      21.489  17.938  32.4660  0.00  0.00     0.000 C
ATOM     39  O5  BDP B   3      21.036  17.641  31.1460  0.00  0.00     0.000 O
ATOM     40   O  BDP B   3      24.319  16.982  29.7130  0.00  0.00     0.000 O
ATOM     42  HD  BDP B   3      23.891  17.211  28.9950  0.00  0.00     0.000 HD
ATOM     42   O  BDP B   3      24.735  19.434  31.2820  0.00  0.00     0.000 O
ATOM     44  HD  BDP B   3      24.307  19.662  30.5650  0.00  0.00     0.000 HD
BRANCH 38 44
ATOM     44   C  BDP B   3      20.324  18.299  33.3330  0.00  0.00     0.000 C
ATOM     45   O  BDP B   3      19.475  19.094  32.8720  0.00  0.00     0.000 OA
ATOM     46   O  BDP B   3      20.229  17.807  34.4780  0.00  0.00     0.000 OA
ENDBRANCH 38 44
BRANCH 34 47
ATOM     47  O3  NAG B   4      21.210  17.123  29.2440  0.00  0.00     0.000 O
BRANCH 47 50
ATOM     48  C1  NAG B   4      19.478  13.982  28.1150  0.00  0.00     0.000 C
ATOM     49  C2  NAG B   4      20.646  14.902  28.4230  0.00  0.00     0.000 C
ATOM     50  C3  NAG B   4      20.121  16.209  29.0070  0.00  0.00     0.000 C
ATOM     51  C4  NAG B   4      19.101  16.862  28.0880  0.00  0.00     0.000 C
ATOM     52  C5  NAG B   4      17.988  15.867  27.7570  0.00  0.00     0.000 C
ATOM     53  O5  NAG B   4      18.543  14.649  27.2450  0.00  0.00     0.000 O
ATOM     54   O  NAG B   4      18.566  18.020  28.7340  0.00  0.00     0.000 O
ATOM     56  HD  NAG B   4      18.379  17.994  27.8890  0.00  0.00     0.000 HD
ATOM     56   C  NAG B   4      17.013  16.446  26.7390  0.00  0.00     0.000 C
ATOM     57   O  NAG B   4      17.725  16.759  25.5340  0.00  0.00     0.000 O
ATOM     59  HD  NAG B   4      17.538  16.732  24.6890  0.00  0.00     0.000 HD
BRANCH 49 61
ATOM     59   N  NAG B   4      21.508  13.894  29.0400  0.00  0.00     0.000 N
ATOM     61  HD  NAG B   4      21.385  14.255  28.2630  0.00  0.00     0.000 HD
ATOM     61   O  NAG B   4      23.426  14.519  28.0240  0.00  0.00     0.000 OA
ATOM     62   C  NAG B   4      22.831  13.836  28.8450  0.00  0.00     0.000 C
ATOM     63   C  NAG B   4      23.573  12.878  29.7220  0.00  0.00     0.000 C
ENDBRANCH 49 61
BRANCH 48 64
ATOM     64  O4  BDP B   5      19.342  12.564  28.0820  0.00  0.00     0.000 O
BRANCH 64 68
ATOM     65  C1  BDP B   5      17.507  10.237  31.0130  0.00  0.00     0.000 C
ATOM     66  C2  BDP B   5      18.880   9.768  30.5520  0.00  0.00     0.000 C
ATOM     67  C3  BDP B   5      19.596  10.904  29.8330  0.00  0.00     0.000 C
ATOM     68  C4  BDP B   5      18.740  11.417  28.6800  0.00  0.00     0.000 C
ATOM     69  C5  BDP B   5      17.332  11.786  29.1300  0.00  0.00     0.000 C
ATOM     70  O5  BDP B   5      16.747  10.716  29.8920  0.00  0.00     0.000 O
ATOM     71   O  BDP B   5      19.633   9.297  31.6810  0.00  0.00     0.000 O
ATOM     73  HD  BDP B   5      20.049   9.045  32.3970  0.00  0.00     0.000 HD
ATOM     73   O  BDP B   5      20.859  10.461  29.3230  0.00  0.00     0.000 O
ATOM     75  HD  BDP B   5      21.275  10.208  30.0390  0.00  0.00     0.000 HD
BRANCH 69 75
ATOM     75   C  BDP B   5      16.496  12.045  27.9020  0.00  0.00     0.000 C
ATOM     76   O  BDP B   5      15.706  13.011  27.9070  0.00  0.00     0.000 OA
ATOM     77   O  BDP B   5      16.619  11.292  26.9190  0.00  0.00     0.000 OA
ENDBRANCH 69 75
BRANCH 65 78
ATOM     78  O3  NAG B   6      16.340   9.425  31.1680  0.00  0.00     0.000 O
BRANCH 78 81
ATOM     79  C1  NAG B   6      13.891   8.596  33.9330  0.00  0.00     0.000 C
ATOM     80  C2  NAG B   6      15.203   8.546  33.1350  0.00  0.00     0.000 C
ATOM     81  C3  NAG B   6      15.178   9.571  32.0130  0.00  0.00     0.000 C
ATOM     82  C4  NAG B   6      13.902   9.433  31.1770  0.00  0.00     0.000 C
ATOM     83  C5  NAG B   6      12.685   9.514  32.0920  0.00  0.00     0.000 C
ATOM     84  O5  NAG B   6      12.779   8.443  33.0320  0.00  0.00     0.000 O
BRANCH 80 87
ATOM     85   N  NAG B   6      16.263   8.660  34.1340  0.00  0.00     0.000 N
ATOM     87  HD  NAG B   6      16.761   8.296  34.7420  0.00  0.00     0.000 HD
ATOM     87   C  NAG B   6      17.447   8.043  34.0440  0.00  0.00     0.000 C
ATOM     88   C  NAG B   6      18.409   8.318  35.1560  0.00  0.00     0.000 C
ATOM     89   O  NAG B   6      17.748   7.307  33.1110  0.00  0.00     0.000 OA
ENDBRANCH 80 87
ATOM     90   O  NAG B   6      10.673  10.674  31.4190  0.00  0.00     0.000 O
ATOM     92  HD  NAG B   6      11.177  10.440  32.0830  0.00  0.00     0.000 HD
ATOM     92   O  NAG B   6      10.673  10.674  31.4190  0.00  0.00     0.000 O
ATOM     94  HD  NAG B   6      11.177  10.440  32.0830  0.00  0.00     0.000 HD
ENDBRANCH 78 81
ENDBRANCH 65 78
ENDBRANCH 64 68
ENDBRANCH 48 64
ENDBRANCH 47 50
ENDBRANCH 34 47
ENDBRANCH 33 37
ENDBRANCH 17 33
ENDBRANCH 16 19
ENDBRANCH 1 16
TORSDOF 16
ENDMDL
MODEL 58
REMARK VINA RESULT:      -3.8      7.862     14.384
ROOT
ATOM      1  C1  BDP B   1      24.261  15.762  43.3040  0.00  0.00     0.000 C
ATOM      2  C2  BDP B   1      25.767  15.597  43.1980  0.00  0.00     0.000 C
ATOM      3  C3  BDP B   1      26.353  14.919  44.4180  0.00  0.00     0.000 C
ATOM      4  C4  BDP B   1      25.319  14.237  45.3070  0.00  0.00     0.000 C
ATOM      5  C5  BDP B   1      24.105  15.119  45.5840  0.00  0.00     0.000 C
ATOM      6  O5  BDP B   1      23.982  16.187  44.6300  0.00  0.00     0.000 O
ATOM      7   O  BDP B   1      26.093  14.844  42.0260  0.00  0.00     0.000 O
ATOM      9  HD  BDP B   1      25.990  14.665  41.1840  0.00  0.00     0.000 HD
ATOM      9   O  BDP B   1      27.055  15.879  45.2230  0.00  0.00     0.000 O
ATOM     11  HD  BDP B   1      26.952  15.700  44.3820  0.00  0.00     0.000 HD
ATOM     11   O  BDP B   1      24.893  13.001  44.7210  0.00  0.00     0.000 O
ATOM     13  HD  BDP B   1      24.790  12.822  43.8800  0.00  0.00     0.000 HD
ENDROOT
BRANCH 5 13
ATOM     13   C  BDP B   1      24.275  15.685  46.9510  0.00  0.00     0.000 C
ATOM     14   O  BDP B   1      25.238  15.286  47.6390  0.00  0.00     0.000 OA
ATOM     15   O  BDP B   1      23.471  16.552  47.3540  0.00  0.00     0.000 OA
ENDBRANCH 5 13
BRANCH 1 16
ATOM     16  O3  NAG B   2      23.215  15.285  42.4590  0.00  0.00     0.000 O
BRANCH 16 19
ATOM     17  C1  NAG B   2      21.897  13.533  39.5530  0.00  0.00     0.000 C
ATOM     18  C2  NAG B   2      22.990  13.721  40.6050  0.00  0.00     0.000 C
ATOM     19  C3  NAG B   2      22.399  14.253  41.9020  0.00  0.00     0.000 C
ATOM     20  C4  NAG B   2      20.973  14.773  41.7040  0.00  0.00     0.000 C
ATOM     21  C5  NAG B   2      20.708  15.450  40.3520  0.00  0.00     0.000 C
ATOM     22  O5  NAG B   2      21.423  14.850  39.2650  0.00  0.00     0.000 O
ATOM     23   O  NAG B   2      20.062  13.684  41.8880  0.00  0.00     0.000 O
ATOM     25  HD  NAG B   2      20.555  13.109  41.4660  0.00  0.00     0.000 HD
ATOM     25   C  NAG B   2      21.069  16.941  40.4130  0.00  0.00     0.000 C
ATOM     26   O  NAG B   2      19.987  17.728  40.9290  0.00  0.00     0.000 O
ATOM     28  HD  NAG B   2      20.479  17.154  40.5080  0.00  0.00     0.000 HD
BRANCH 18 30
ATOM     28   N  NAG B   2      23.755  12.481  40.7300  0.00  0.00     0.000 N
ATOM     30  HD  NAG B   2      24.180  11.889  40.2610  0.00  0.00     0.000 HD
ATOM     30   C  NAG B   2      23.243  11.295  41.0900  0.00  0.00     0.000 C
ATOM     31   C  NAG B   2      24.237  10.171  41.1570  0.00  0.00     0.000 C
ATOM     32   O  NAG B   2      22.072  11.124  41.3390  0.00  0.00     0.000 OA
ENDBRANCH 18 30
BRANCH 17 33
ATOM     33  O4  BDP B   3      21.448  13.411  38.1860  0.00  0.00     0.000 O
BRANCH 33 37
ATOM     34  C1  BDP B   3      18.884  11.216  35.5680  0.00  0.00     0.000 C
ATOM     35  C2  BDP B   3      19.643  10.424  36.6260  0.00  0.00     0.000 C
ATOM     36  C3  BDP B   3      20.185  11.285  37.7620  0.00  0.00     0.000 C
ATOM     37  C4  BDP B   3      20.860  12.536  37.1800  0.00  0.00     0.000 C
ATOM     38  C5  BDP B   3      19.814  13.256  36.3070  0.00  0.00     0.000 C
ATOM     39  O5  BDP B   3      19.593  12.400  35.1850  0.00  0.00     0.000 O
ATOM     40   O  BDP B   3      18.744   9.416  37.0920  0.00  0.00     0.000 O
ATOM     42  HD  BDP B   3      19.026   9.046  36.3620  0.00  0.00     0.000 HD
ATOM     42   O  BDP B   3      21.107  10.473  38.4870  0.00  0.00     0.000 O
ATOM     44  HD  BDP B   3      21.389  10.103  37.7570  0.00  0.00     0.000 HD
BRANCH 38 44
ATOM     44   C  BDP B   3      20.230  14.614  35.8340  0.00  0.00     0.000 C
ATOM     45   O  BDP B   3      21.097  14.680  34.9350  0.00  0.00     0.000 OA
ATOM     46   O  BDP B   3      19.711  15.631  36.3430  0.00  0.00     0.000 OA
ENDBRANCH 38 44
BRANCH 34 47
ATOM     47  O3  NAG B   4      19.125  10.719  34.2530  0.00  0.00     0.000 O
BRANCH 47 50
ATOM     48  C1  NAG B   4      16.067  10.379  32.0910  0.00  0.00     0.000 C
ATOM     49  C2  NAG B   4      16.980  10.114  33.2750  0.00  0.00     0.000 C
ATOM     50  C3  NAG B   4      18.213  11.004  33.1730  0.00  0.00     0.000 C
ATOM     51  C4  NAG B   4      18.928  10.820  31.8440  0.00  0.00     0.000 C
ATOM     52  C5  NAG B   4      17.944  11.030  30.6920  0.00  0.00     0.000 C
ATOM     53  O5  NAG B   4      16.792  10.193  30.8600  0.00  0.00     0.000 O
ATOM     54   O  NAG B   4      20.007  11.753  31.7620  0.00  0.00     0.000 O
ATOM     56  HD  NAG B   4      20.057  11.133  31.1600  0.00  0.00     0.000 HD
ATOM     56   C  NAG B   4      18.594  10.730  29.3470  0.00  0.00     0.000 C
ATOM     57   O  NAG B   4      19.036   9.366  29.3340  0.00  0.00     0.000 O
ATOM     59  HD  NAG B   4      19.085   8.746  28.7310  0.00  0.00     0.000 HD
BRANCH 49 61
ATOM     59   N  NAG B   4      16.947   8.652  33.2090  0.00  0.00     0.000 N
ATOM     61  HD  NAG B   4      17.295   9.273  33.7020  0.00  0.00     0.000 HD
ATOM     61   O  NAG B   4      16.698   8.285  35.4240  0.00  0.00     0.000 OA
ATOM     62   C  NAG B   4      16.736   7.870  34.2740  0.00  0.00     0.000 C
ATOM     63   C  NAG B   4      16.522   6.419  33.9800  0.00  0.00     0.000 C
ENDBRANCH 49 61
BRANCH 48 64
ATOM     64  O4  BDP B   5      14.656  10.292  31.9150  0.00  0.00     0.000 O
BRANCH 64 68
ATOM     65  C1  BDP B   5      12.297   7.112  33.2170  0.00  0.00     0.000 C
ATOM     66  C2  BDP B   5      12.228   7.427  31.7290  0.00  0.00     0.000 C
ATOM     67  C3  BDP B   5      13.422   8.286  31.3320  0.00  0.00     0.000 C
ATOM     68  C4  BDP B   5      13.471   9.545  32.1910  0.00  0.00     0.000 C
ATOM     69  C5  BDP B   5      13.433   9.226  33.6800  0.00  0.00     0.000 C
ATOM     70  O5  BDP B   5      12.349   8.329  33.9780  0.00  0.00     0.000 O
ATOM     71   O  BDP B   5      12.182   6.204  30.9780  0.00  0.00     0.000 O
ATOM     73  HD  BDP B   5      12.177   5.438  30.5740  0.00  0.00     0.000 HD
ATOM     73   O  BDP B   5      13.336   8.660  29.9510  0.00  0.00     0.000 O
ATOM     75  HD  BDP B   5      13.331   7.894  29.5470  0.00  0.00     0.000 HD
BRANCH 69 75
ATOM     75   C  BDP B   5      13.241  10.516  34.4360  0.00  0.00     0.000 C
ATOM     76   O  BDP B   5      14.066  10.822  35.3200  0.00  0.00     0.000 OA
ATOM     77   O  BDP B   5      12.268  11.241  34.1540  0.00  0.00     0.000 OA
ENDBRANCH 69 75
BRANCH 65 78
ATOM     78  O3  NAG B   6      11.186   6.882  34.0880  0.00  0.00     0.000 O
BRANCH 78 81
ATOM     79  C1  NAG B   6      10.128   4.062  36.3820  0.00  0.00     0.000 C
ATOM     80  C2  NAG B   6      10.394   4.790  35.0550  0.00  0.00     0.000 C
ATOM     81  C3  NAG B   6      11.071   6.126  35.3130  0.00  0.00     0.000 C
ATOM     82  C4  NAG B   6      10.297   6.937  36.3580  0.00  0.00     0.000 C
ATOM     83  C5  NAG B   6      10.119   6.100  37.6190  0.00  0.00     0.000 C
ATOM     84  O5  NAG B   6       9.387   4.928  37.2600  0.00  0.00     0.000 O
BRANCH 80 87
ATOM     85   N  NAG B   6      11.121   3.839  34.2190  0.00  0.00     0.000 N
ATOM     87  HD  NAG B   6      11.121   3.144  33.7020  0.00  0.00     0.000 HD
ATOM     87   C  NAG B   6      10.960   3.730  32.8940  0.00  0.00     0.000 C
ATOM     88   C  NAG B   6      11.826   2.717  32.2160  0.00  0.00     0.000 C
ATOM     89   O  NAG B   6      10.170   4.418  32.2580  0.00  0.00     0.000 OA
ENDBRANCH 80 87
ATOM     90   O  NAG B   6      10.283   7.084  39.8230  0.00  0.00     0.000 O
ATOM     92  HD  NAG B   6      10.399   6.370  39.3460  0.00  0.00     0.000 HD
ATOM     92   O  NAG B   6      10.283   7.084  39.8230  0.00  0.00     0.000 O
ATOM     94  HD  NAG B   6      10.399   6.370  39.3460  0.00  0.00     0.000 HD
ENDBRANCH 78 81
ENDBRANCH 65 78
ENDBRANCH 64 68
ENDBRANCH 48 64
ENDBRANCH 47 50
ENDBRANCH 34 47
ENDBRANCH 33 37
ENDBRANCH 17 33
ENDBRANCH 16 19
ENDBRANCH 1 16
TORSDOF 16
ENDMDL
MODEL 59
REMARK VINA RESULT:      -3.8      8.041     15.416
ROOT
ATOM      1  C1  BDP B   1      21.354  22.328  38.0380  0.00  0.00     0.000 C
ATOM      2  C2  BDP B   1      22.358  23.413  37.6930  0.00  0.00     0.000 C
ATOM      3  C3  BDP B   1      23.735  23.111  38.2450  0.00  0.00     0.000 C
ATOM      4  C4  BDP B   1      23.919  21.669  38.7030  0.00  0.00     0.000 C
ATOM      5  C5  BDP B   1      22.760  21.170  39.5610  0.00  0.00     0.000 C
ATOM      6  O5  BDP B   1      21.578  21.971  39.3940  0.00  0.00     0.000 O
ATOM      7   O  BDP B   1      22.433  23.572  36.2720  0.00  0.00     0.000 O
ATOM      9  HD  BDP B   1      22.058  23.637  35.4940  0.00  0.00     0.000 HD
ATOM      9   O  BDP B   1      24.010  23.964  39.3670  0.00  0.00     0.000 O
ATOM     11  HD  BDP B   1      23.636  24.029  38.5890  0.00  0.00     0.000 HD
ATOM     11   O  BDP B   1      24.091  20.804  37.5730  0.00  0.00     0.000 O
ATOM     13  HD  BDP B   1      23.717  20.870  36.7950  0.00  0.00     0.000 HD
ENDROOT
BRANCH 5 13
ATOM     13   C  BDP B   1      23.208  21.224  40.9800  0.00  0.00     0.000 C
ATOM     14   O  BDP B   1      23.775  20.220  41.4580  0.00  0.00     0.000 OA
ATOM     15   O  BDP B   1      23.027  22.273  41.6340  0.00  0.00     0.000 OA
ENDBRANCH 5 13
BRANCH 1 16
ATOM     16  O3  NAG B   2      20.553  21.503  37.1940  0.00  0.00     0.000 O
BRANCH 16 19
ATOM     17  C1  NAG B   2      18.720  19.296  34.9520  0.00  0.00     0.000 C
ATOM     18  C2  NAG B   2      19.003  19.817  36.3610  0.00  0.00     0.000 C
ATOM     19  C3  NAG B   2      19.452  21.270  36.3140  0.00  0.00     0.000 C
ATOM     20  C4  NAG B   2      19.825  21.703  34.8940  0.00  0.00     0.000 C
ATOM     21  C5  NAG B   2      20.492  20.619  34.0360  0.00  0.00     0.000 C
ATOM     22  O5  NAG B   2      19.986  19.303  34.2880  0.00  0.00     0.000 O
ATOM     23   O  NAG B   2      18.645  22.182  34.2400  0.00  0.00     0.000 O
ATOM     25  HD  NAG B   2      18.131  21.564  34.5620  0.00  0.00     0.000 HD
ATOM     25   C  NAG B   2      22.011  20.612  34.2580  0.00  0.00     0.000 C
ATOM     26   O  NAG B   2      22.674  21.570  33.4220  0.00  0.00     0.000 O
ATOM     28  HD  NAG B   2      22.160  20.952  33.7440  0.00  0.00     0.000 HD
BRANCH 18 30
ATOM     28   N  NAG B   2      17.707  20.493  36.3960  0.00  0.00     0.000 N
ATOM     30  HD  NAG B   2      17.306  21.184  36.7300  0.00  0.00     0.000 HD
ATOM     30   C  NAG B   2      16.610  20.018  37.0020  0.00  0.00     0.000 C
ATOM     31   C  NAG B   2      15.395  20.895  36.8880  0.00  0.00     0.000 C
ATOM     32   O  NAG B   2      16.582  18.970  37.6050  0.00  0.00     0.000 OA
ENDBRANCH 18 30
BRANCH 17 33
ATOM     33  O4  BDP B   3      18.574  18.228  33.9900  0.00  0.00     0.000 O
BRANCH 33 37
ATOM     34  C1  BDP B   3      16.829  14.351  33.5870  0.00  0.00     0.000 C
ATOM     35  C2  BDP B   3      17.766  14.574  34.7680  0.00  0.00     0.000 C
ATOM     36  C3  BDP B   3      18.005  16.045  35.0890  0.00  0.00     0.000 C
ATOM     37  C4  BDP B   3      18.292  16.812  33.7890  0.00  0.00     0.000 C
ATOM     38  C5  BDP B   3      17.099  16.574  32.8440  0.00  0.00     0.000 C
ATOM     39  O5  BDP B   3      17.164  15.196  32.4800  0.00  0.00     0.000 O
ATOM     40   O  BDP B   3      17.195  13.866  35.8710  0.00  0.00     0.000 O
ATOM     42  HD  BDP B   3      17.589  13.216  35.4560  0.00  0.00     0.000 HD
ATOM     42   O  BDP B   3      19.110  16.094  35.9900  0.00  0.00     0.000 O
ATOM     44  HD  BDP B   3      19.504  15.443  35.5750  0.00  0.00     0.000 HD
BRANCH 38 44
ATOM     44   C  BDP B   3      17.106  17.425  31.6120  0.00  0.00     0.000 C
ATOM     45   O  BDP B   3      17.898  17.119  30.6940  0.00  0.00     0.000 OA
ATOM     46   O  BDP B   3      16.333  18.405  31.5340  0.00  0.00     0.000 OA
ENDBRANCH 38 44
BRANCH 34 47
ATOM     47  O3  NAG B   4      17.234  13.243  32.7860  0.00  0.00     0.000 O
BRANCH 47 50
ATOM     48  C1  NAG B   4      14.646  11.078  31.1240  0.00  0.00     0.000 C
ATOM     49  C2  NAG B   4      15.477  11.640  32.2640  0.00  0.00     0.000 C
ATOM     50  C3  NAG B   4      16.388  12.740  31.7310  0.00  0.00     0.000 C
ATOM     51  C4  NAG B   4      17.250  12.245  30.5820  0.00  0.00     0.000 C
ATOM     52  C5  NAG B   4      16.366  11.627  29.4980  0.00  0.00     0.000 C
ATOM     53  O5  NAG B   4      15.510  10.626  30.0630  0.00  0.00     0.000 O
ATOM     54   O  NAG B   4      18.001  13.342  30.0550  0.00  0.00     0.000 O
ATOM     56  HD  NAG B   4      18.293  12.576  29.7790  0.00  0.00     0.000 HD
ATOM     56   C  NAG B   4      17.204  11.006  28.3870  0.00  0.00     0.000 C
ATOM     57   O  NAG B   4      18.036   9.980  28.9450  0.00  0.00     0.000 O
ATOM     59  HD  NAG B   4      18.328   9.213  28.6690  0.00  0.00     0.000 HD
BRANCH 49 61
ATOM     59   N  NAG B   4      14.512  11.983  33.3090  0.00  0.00     0.000 N
ATOM     61  HD  NAG B   4      14.973  11.297  33.0500  0.00  0.00     0.000 HD
ATOM     61   O  NAG B   4      15.552  10.909  35.0020  0.00  0.00     0.000 OA
ATOM     62   C  NAG B   4      14.670  11.651  34.5960  0.00  0.00     0.000 C
ATOM     63   C  NAG B   4      13.696  12.269  35.5480  0.00  0.00     0.000 C
ENDBRANCH 49 61
BRANCH 48 64
ATOM     64  O4  BDP B   5      13.351  10.486  31.0670  0.00  0.00     0.000 O
BRANCH 64 68
ATOM     65  C1  BDP B   5      12.051   7.208  33.2890  0.00  0.00     0.000 C
ATOM     66  C2  BDP B   5      12.513   6.911  31.8690  0.00  0.00     0.000 C
ATOM     67  C3  BDP B   5      13.341   8.077  31.3440  0.00  0.00     0.000 C
ATOM     68  C4  BDP B   5      12.541   9.371  31.4350  0.00  0.00     0.000 C
ATOM     69  C5  BDP B   5      11.992   9.610  32.8360  0.00  0.00     0.000 C
ATOM     70  O5  BDP B   5      11.311   8.439  33.3190  0.00  0.00     0.000 O
ATOM     71   O  BDP B   5      13.257   5.682  31.8520  0.00  0.00     0.000 O
ATOM     73  HD  BDP B   5      13.713   4.948  31.9010  0.00  0.00     0.000 HD
ATOM     73   O  BDP B   5      13.721   7.851  29.9820  0.00  0.00     0.000 O
ATOM     75  HD  BDP B   5      14.178   7.116  30.0310  0.00  0.00     0.000 HD
BRANCH 69 75
ATOM     75   C  BDP B   5      11.025  10.765  32.7750  0.00  0.00     0.000 C
ATOM     76   O  BDP B   5       9.984  10.641  32.0980  0.00  0.00     0.000 OA
ATOM     77   O  BDP B   5      11.289  11.807  33.4030  0.00  0.00     0.000 OA
ENDBRANCH 69 75
BRANCH 65 78
ATOM     78  O3  NAG B   6      10.852   6.736  33.9080  0.00  0.00     0.000 O
BRANCH 78 81
ATOM     79  C1  NAG B   6      10.018   4.734  37.0120  0.00  0.00     0.000 C
ATOM     80  C2  NAG B   6      10.526   4.998  35.5860  0.00  0.00     0.000 C
ATOM     81  C3  NAG B   6      10.523   6.490  35.2930  0.00  0.00     0.000 C
ATOM     82  C4  NAG B   6       9.161   7.109  35.6250  0.00  0.00     0.000 C
ATOM     83  C5  NAG B   6       8.793   6.779  37.0670  0.00  0.00     0.000 C
ATOM     84  O5  NAG B   6       8.732   5.356  37.1830  0.00  0.00     0.000 O
BRANCH 80 87
ATOM     85   N  NAG B   6      11.819   4.326  35.4850  0.00  0.00     0.000 N
ATOM     87  HD  NAG B   6      12.279   3.598  35.3910  0.00  0.00     0.000 HD
ATOM     87   C  NAG B   6      12.254   3.699  34.3850  0.00  0.00     0.000 C
ATOM     88   C  NAG B   6      13.623   3.104  34.4760  0.00  0.00     0.000 C
ATOM     89   O  NAG B   6      11.594   3.621  33.3560  0.00  0.00     0.000 OA
ENDBRANCH 80 87
ATOM     90   O  NAG B   6       7.690   8.392  38.4910  0.00  0.00     0.000 O
ATOM     92  HD  NAG B   6       8.233   7.718  38.4580  0.00  0.00     0.000 HD
ATOM     92   O  NAG B   6       7.690   8.392  38.4910  0.00  0.00     0.000 O
ATOM     94  HD  NAG B   6       8.233   7.718  38.4580  0.00  0.00     0.000 HD
ENDBRANCH 78 81
ENDBRANCH 65 78
ENDBRANCH 64 68
ENDBRANCH 48 64
ENDBRANCH 47 50
ENDBRANCH 34 47
ENDBRANCH 33 37
ENDBRANCH 17 33
ENDBRANCH 16 19
ENDBRANCH 1 16
TORSDOF 16
ENDMDL
MODEL 60
REMARK VINA RESULT:      -3.8      8.799     15.040
ROOT
ATOM      1  C1  BDP B   1      32.040  14.054  38.6170  0.00  0.00     0.000 C
ATOM      2  C2  BDP B   1      33.265  13.748  39.4610  0.00  0.00     0.000 C
ATOM      3  C3  BDP B   1      32.922  12.925  40.6840  0.00  0.00     0.000 C
ATOM      4  C4  BDP B   1      31.539  12.286  40.6360  0.00  0.00     0.000 C
ATOM      5  C5  BDP B   1      30.453  13.262  40.1950  0.00  0.00     0.000 C
ATOM      6  O5  BDP B   1      30.996  14.405  39.5130  0.00  0.00     0.000 O
ATOM      7   O  BDP B   1      34.239  13.056  38.6720  0.00  0.00     0.000 O
ATOM      9  HD  BDP B   1      34.688  12.952  37.9390  0.00  0.00     0.000 HD
ATOM      9   O  BDP B   1      32.982  13.747  41.8600  0.00  0.00     0.000 O
ATOM     11  HD  BDP B   1      33.431  13.643  41.1270  0.00  0.00     0.000 HD
ATOM     11   O  BDP B   1      31.545  11.146  39.7680  0.00  0.00     0.000 O
ATOM     13  HD  BDP B   1      31.994  11.042  39.0350  0.00  0.00     0.000 HD
ENDROOT
BRANCH 5 13
ATOM     13   C  BDP B   1      29.733  13.704  41.4210  0.00  0.00     0.000 C
ATOM     14   O  BDP B   1      29.525  14.926  41.5740  0.00  0.00     0.000 OA
ATOM     15   O  BDP B   1      29.340  12.845  42.2380  0.00  0.00     0.000 OA
ENDBRANCH 5 13
BRANCH 1 16
ATOM     16  O3  NAG B   2      31.754  13.749  37.2530  0.00  0.00     0.000 O
BRANCH 16 19
ATOM     17  C1  NAG B   2      30.055  13.208  34.0790  0.00  0.00     0.000 C
ATOM     18  C2  NAG B   2      31.312  13.588  34.8630  0.00  0.00     0.000 C
ATOM     19  C3  NAG B   2      31.344  12.871  36.2040  0.00  0.00     0.000 C
ATOM     20  C4  NAG B   2      29.986  12.253  36.5490  0.00  0.00     0.000 C
ATOM     21  C5  NAG B   2      28.766  13.063  36.0900  0.00  0.00     0.000 C
ATOM     22  O5  NAG B   2      28.965  13.734  34.8400  0.00  0.00     0.000 O
ATOM     23   O  NAG B   2      29.931  10.936  35.9930  0.00  0.00     0.000 O
ATOM     25  HD  NAG B   2      30.317  11.158  35.2500  0.00  0.00     0.000 HD
ATOM     25   C  NAG B   2      28.378  14.106  37.1480  0.00  0.00     0.000 C
ATOM     26   O  NAG B   2      27.527  13.546  38.1580  0.00  0.00     0.000 O
ATOM     28  HD  NAG B   2      27.913  13.768  37.4150  0.00  0.00     0.000 HD
BRANCH 18 30
ATOM     28   N  NAG B   2      31.631  12.481  33.9620  0.00  0.00     0.000 N
ATOM     30  HD  NAG B   2      31.684  11.617  33.9340  0.00  0.00     0.000 HD
ATOM     30   C  NAG B   2      32.853  12.208  33.4830  0.00  0.00     0.000 C
ATOM     31   C  NAG B   2      32.922  11.021  32.5660  0.00  0.00     0.000 C
ATOM     32   O  NAG B   2      33.837  12.853  33.7620  0.00  0.00     0.000 OA
ENDBRANCH 18 30
BRANCH 17 33
ATOM     33  O4  BDP B   3      29.058  13.458  33.0640  0.00  0.00     0.000 O
BRANCH 33 37
ATOM     34  C1  BDP B   3      25.750  12.203  30.6730  0.00  0.00     0.000 C
ATOM     35  C2  BDP B   3      25.765  13.656  31.1340  0.00  0.00     0.000 C
ATOM     36  C3  BDP B   3      27.135  14.134  31.6010  0.00  0.00     0.000 C
ATOM     37  C4  BDP B   3      27.757  13.079  32.5290  0.00  0.00     0.000 C
ATOM     38  C5  BDP B   3      27.801  11.751  31.7480  0.00  0.00     0.000 C
ATOM     39  O5  BDP B   3      26.440  11.350  31.5930  0.00  0.00     0.000 O
ATOM     40   O  BDP B   3      25.267  14.428  30.0390  0.00  0.00     0.000 O
ATOM     42  HD  BDP B   3      24.523  14.145  30.3800  0.00  0.00     0.000 HD
ATOM     42   O  BDP B   3      26.929  15.376  32.2720  0.00  0.00     0.000 O
ATOM     44  HD  BDP B   3      26.185  15.093  32.6130  0.00  0.00     0.000 HD
BRANCH 38 44
ATOM     44   C  BDP B   3      28.577  10.663  32.4210  0.00  0.00     0.000 C
ATOM     45   O  BDP B   3      29.599  10.230  31.8430  0.00  0.00     0.000 OA
ATOM     46   O  BDP B   3      28.192  10.220  33.5250  0.00  0.00     0.000 OA
ENDBRANCH 38 44
BRANCH 34 47
ATOM     47  O3  NAG B   4      24.547  11.536  31.0510  0.00  0.00     0.000 O
BRANCH 47 50
ATOM     48  C1  NAG B   4      22.809   9.536  28.3800  0.00  0.00     0.000 C
ATOM     49  C2  NAG B   4      23.340  10.777  29.0770  0.00  0.00     0.000 C
ATOM     50  C3  NAG B   4      24.091  10.367  30.3380  0.00  0.00     0.000 C
ATOM     51  C4  NAG B   4      23.223   9.520  31.2560  0.00  0.00     0.000 C
ATOM     52  C5  NAG B   4      22.661   8.327  30.4820  0.00  0.00     0.000 C
ATOM     53  O5  NAG B   4      21.997   8.771  29.2920  0.00  0.00     0.000 O
ATOM     54   O  NAG B   4      24.011   9.078  32.3640  0.00  0.00     0.000 O
ATOM     56  HD  NAG B   4      23.162   8.964  32.4920  0.00  0.00     0.000 HD
ATOM     56   C  NAG B   4      21.686   7.524  31.3360  0.00  0.00     0.000 C
ATOM     57   O  NAG B   4      20.599   8.373  31.7280  0.00  0.00     0.000 O
ATOM     59  HD  NAG B   4      19.750   8.260  31.8560  0.00  0.00     0.000 HD
BRANCH 49 61
ATOM     59   N  NAG B   4      23.813  11.445  27.8630  0.00  0.00     0.000 N
ATOM     61  HD  NAG B   4      23.112  11.442  28.3720  0.00  0.00     0.000 HD
ATOM     61   O  NAG B   4      23.073  13.514  28.3860  0.00  0.00     0.000 OA
ATOM     62   C  NAG B   4      23.704  12.762  27.6570  0.00  0.00     0.000 C
ATOM     63   C  NAG B   4      24.433  13.292  26.4620  0.00  0.00     0.000 C
ENDBRANCH 49 61
BRANCH 48 64
ATOM     64  O4  BDP B   5      22.538   9.231  27.0160  0.00  0.00     0.000 O
BRANCH 64 68
ATOM     65  C1  BDP B   5      21.936   7.509  23.2680  0.00  0.00     0.000 C
ATOM     66  C2  BDP B   5      21.045   6.993  24.3900  0.00  0.00     0.000 C
ATOM     67  C3  BDP B   5      21.065   7.976  25.5540  0.00  0.00     0.000 C
ATOM     68  C4  BDP B   5      22.498   8.216  26.0140  0.00  0.00     0.000 C
ATOM     69  C5  BDP B   5      23.408   8.631  24.8650  0.00  0.00     0.000 C
ATOM     70  O5  BDP B   5      23.269   7.726  23.7560  0.00  0.00     0.000 O
ATOM     71   O  BDP B   5      19.714   6.786  23.8930  0.00  0.00     0.000 O
ATOM     73  HD  BDP B   5      18.925   6.698  23.5470  0.00  0.00     0.000 HD
ATOM     73   O  BDP B   5      20.294   7.472  26.6510  0.00  0.00     0.000 O
ATOM     75  HD  BDP B   5      19.505   7.384  26.3060  0.00  0.00     0.000 HD
BRANCH 69 75
ATOM     75   C  BDP B   5      24.833   8.608  25.3570  0.00  0.00     0.000 C
ATOM     76   O  BDP B   5      25.322   9.655  25.8280  0.00  0.00     0.000 OA
ATOM     77   O  BDP B   5      25.480   7.547  25.2850  0.00  0.00     0.000 OA
ENDBRANCH 69 75
BRANCH 65 78
ATOM     78  O3  NAG B   6      22.654   6.715  22.3210  0.00  0.00     0.000 O
BRANCH 78 81
ATOM     79  C1  NAG B   6      23.146   6.834  18.5690  0.00  0.00     0.000 C
ATOM     80  C2  NAG B   6      22.406   6.617  19.8990  0.00  0.00     0.000 C
ATOM     81  C3  NAG B   6      23.279   7.056  21.0640  0.00  0.00     0.000 C
ATOM     82  C4  NAG B   6      24.667   6.413  20.9780  0.00  0.00     0.000 C
ATOM     83  C5  NAG B   6      25.284   6.719  19.6180  0.00  0.00     0.000 C
ATOM     84  O5  NAG B   6      24.422   6.171  18.6200  0.00  0.00     0.000 O
BRANCH 80 87
ATOM     85   N  NAG B   6      21.112   7.268  19.7140  0.00  0.00     0.000 N
ATOM     87  HD  NAG B   6      20.302   7.250  19.4070  0.00  0.00     0.000 HD
ATOM     87   C  NAG B   6      19.973   6.840  20.2710  0.00  0.00     0.000 C
ATOM     88   C  NAG B   6      18.760   7.668  19.9860  0.00  0.00     0.000 C
ATOM     89   O  NAG B   6      19.909   5.846  20.9850  0.00  0.00     0.000 OA
ENDBRANCH 80 87
ATOM     90   O  NAG B   6      27.639   7.215  19.3800  0.00  0.00     0.000 O
ATOM     92  HD  NAG B   6      26.843   7.352  19.0680  0.00  0.00     0.000 HD
ATOM     92   O  NAG B   6      27.639   7.215  19.3800  0.00  0.00     0.000 O
ATOM     94  HD  NAG B   6      26.843   7.352  19.0680  0.00  0.00     0.000 HD
ENDBRANCH 78 81
ENDBRANCH 65 78
ENDBRANCH 64 68
ENDBRANCH 48 64
ENDBRANCH 47 50
ENDBRANCH 34 47
ENDBRANCH 33 37
ENDBRANCH 17 33
ENDBRANCH 16 19
ENDBRANCH 1 16
TORSDOF 16
ENDMDL
MODEL 61
REMARK VINA RESULT:      -3.7     10.558     16.879
ROOT
ATOM      1  C1  BDP B   1      18.736  20.719  40.1700  0.00  0.00     0.000 C
ATOM      2  C2  BDP B   1      19.981  20.448  39.3450  0.00  0.00     0.000 C
ATOM      3  C3  BDP B   1      20.833  21.688  39.1750  0.00  0.00     0.000 C
ATOM      4  C4  BDP B   1      20.476  22.822  40.1290  0.00  0.00     0.000 C
ATOM      5  C5  BDP B   1      18.975  23.081  40.2040  0.00  0.00     0.000 C
ATOM      6  O5  BDP B   1      18.208  21.961  39.7290  0.00  0.00     0.000 O
ATOM      7   O  BDP B   1      20.756  19.412  39.9580  0.00  0.00     0.000 O
ATOM      9  HD  BDP B   1      20.820  18.643  40.3510  0.00  0.00     0.000 HD
ATOM      9   O  BDP B   1      20.707  22.189  37.8350  0.00  0.00     0.000 O
ATOM     11  HD  BDP B   1      20.771  21.420  38.2290  0.00  0.00     0.000 HD
ATOM     11   O  BDP B   1      20.986  22.551  41.4410  0.00  0.00     0.000 O
ATOM     13  HD  BDP B   1      21.050  21.782  41.8340  0.00  0.00     0.000 HD
ENDROOT
BRANCH 5 13
ATOM     13   C  BDP B   1      18.691  24.276  39.3620  0.00  0.00     0.000 C
ATOM     14   O  BDP B   1      18.689  25.397  39.9120  0.00  0.00     0.000 OA
ATOM     15   O  BDP B   1      18.492  24.124  38.1380  0.00  0.00     0.000 OA
ENDBRANCH 5 13
BRANCH 1 16
ATOM     16  O3  NAG B   2      18.286  20.130  41.3890  0.00  0.00     0.000 O
BRANCH 16 19
ATOM     17  C1  NAG B   2      16.729  16.955  42.2570  0.00  0.00     0.000 C
ATOM     18  C2  NAG B   2      17.833  17.742  41.5490  0.00  0.00     0.000 C
ATOM     19  C3  NAG B   2      18.130  19.035  42.2930  0.00  0.00     0.000 C
ATOM     20  C4  NAG B   2      17.042  19.362  43.3190  0.00  0.00     0.000 C
ATOM     21  C5  NAG B   2      15.616  18.973  42.9040  0.00  0.00     0.000 C
ATOM     22  O5  NAG B   2      15.557  17.764  42.1370  0.00  0.00     0.000 O
ATOM     23   O  NAG B   2      17.377  18.725  44.5560  0.00  0.00     0.000 O
ATOM     25  HD  NAG B   2      17.650  17.992  44.1850  0.00  0.00     0.000 HD
ATOM     25   C  NAG B   2      14.963  20.101  42.0920  0.00  0.00     0.000 C
ATOM     26   O  NAG B   2      14.361  21.087  42.9420  0.00  0.00     0.000 O
ATOM     28  HD  NAG B   2      14.634  20.353  42.5720  0.00  0.00     0.000 HD
BRANCH 18 30
ATOM     28   N  NAG B   2      18.379  16.592  42.2690  0.00  0.00     0.000 N
ATOM     30  HD  NAG B   2      18.521  16.291  43.0680  0.00  0.00     0.000 HD
ATOM     30   C  NAG B   2      19.676  16.255  42.3050  0.00  0.00     0.000 C
ATOM     31   C  NAG B   2      19.987  15.022  43.1070  0.00  0.00     0.000 C
ATOM     32   O  NAG B   2      20.545  16.886  41.7490  0.00  0.00     0.000 OA
ENDBRANCH 18 30
BRANCH 17 33
ATOM     33  O4  BDP B   3      15.670  15.974  42.2730  0.00  0.00     0.000 O
BRANCH 33 37
ATOM     34  C1  BDP B   3      13.579  12.497  40.9370  0.00  0.00     0.000 C
ATOM     35  C2  BDP B   3      14.998  12.701  40.4180  0.00  0.00     0.000 C
ATOM     36  C3  BDP B   3      15.813  13.692  41.2400  0.00  0.00     0.000 C
ATOM     37  C4  BDP B   3      14.966  14.942  41.5220  0.00  0.00     0.000 C
ATOM     38  C5  BDP B   3      13.678  14.472  42.2250  0.00  0.00     0.000 C
ATOM     39  O5  BDP B   3      12.944  13.745  41.2400  0.00  0.00     0.000 O
ATOM     40   O  BDP B   3      15.599  11.405  40.3810  0.00  0.00     0.000 O
ATOM     42  HD  BDP B   3      15.145  11.385  39.6440  0.00  0.00     0.000 HD
ATOM     42   O  BDP B   3      16.976  14.001  40.4730  0.00  0.00     0.000 O
ATOM     44  HD  BDP B   3      16.522  13.982  39.7360  0.00  0.00     0.000 HD
BRANCH 38 44
ATOM     44   C  BDP B   3      12.832  15.579  42.7720  0.00  0.00     0.000 C
ATOM     45   O  BDP B   3      12.744  15.689  44.0150  0.00  0.00     0.000 OA
ATOM     46   O  BDP B   3      12.243  16.354  41.9870  0.00  0.00     0.000 OA
ENDBRANCH 38 44
BRANCH 34 47
ATOM     47  O3  NAG B   4      12.639  12.345  39.8760  0.00  0.00     0.000 O
BRANCH 47 50
ATOM     48  C1  NAG B   4      10.310   9.396  39.7010  0.00  0.00     0.000 C
ATOM     49  C2  NAG B   4      11.617  10.158  39.5620  0.00  0.00     0.000 C
ATOM     50  C3  NAG B   4      11.427  11.585  40.0620  0.00  0.00     0.000 C
ATOM     51  C4  NAG B   4      10.278  12.280  39.3480  0.00  0.00     0.000 C
ATOM     52  C5  NAG B   4       9.009  11.434  39.4620  0.00  0.00     0.000 C
ATOM     53  O5  NAG B   4       9.258  10.097  39.0100  0.00  0.00     0.000 O
ATOM     54   O  NAG B   4      10.079  13.570  39.9310  0.00  0.00     0.000 O
ATOM     56  HD  NAG B   4       9.667  13.478  39.1750  0.00  0.00     0.000 HD
ATOM     56   C  NAG B   4       7.868  12.037  38.6520  0.00  0.00     0.000 C
ATOM     57   O  NAG B   4       8.256  12.103  37.2730  0.00  0.00     0.000 O
ATOM     59  HD  NAG B   4       7.843  12.012  36.5170  0.00  0.00     0.000 HD
BRANCH 49 61
ATOM     59   N  NAG B   4      12.526   9.156  40.1210  0.00  0.00     0.000 N
ATOM     61  HD  NAG B   4      12.217   9.394  39.3480  0.00  0.00     0.000 HD
ATOM     61   O  NAG B   4      14.119   9.316  38.5280  0.00  0.00     0.000 OA
ATOM     62   C  NAG B   4      13.726   8.876  39.5980  0.00  0.00     0.000 C
ATOM     63   C  NAG B   4      14.600   7.986  40.4240  0.00  0.00     0.000 C
ENDBRANCH 49 61
BRANCH 48 64
ATOM     64  O4  BDP B   5      10.007   8.021  39.9130  0.00  0.00     0.000 O
BRANCH 64 68
ATOM     65  C1  BDP B   5       7.863   5.458  37.4220  0.00  0.00     0.000 C
ATOM     66  C2  BDP B   5       7.656   5.261  38.9170  0.00  0.00     0.000 C
ATOM     67  C3  BDP B   5       8.135   6.497  39.6680  0.00  0.00     0.000 C
ATOM     68  C4  BDP B   5       9.589   6.794  39.3170  0.00  0.00     0.000 C
ATOM     69  C5  BDP B   5       9.810   6.885  37.8120  0.00  0.00     0.000 C
ATOM     70  O5  BDP B   5       9.245   5.741  37.1480  0.00  0.00     0.000 O
ATOM     71   O  BDP B   5       6.272   4.985  39.1800  0.00  0.00     0.000 O
ATOM     73  HD  BDP B   5       5.424   4.842  39.2850  0.00  0.00     0.000 HD
ATOM     73   O  BDP B   5       8.021   6.303  41.0820  0.00  0.00     0.000 O
ATOM     75  HD  BDP B   5       7.173   6.160  41.1870  0.00  0.00     0.000 HD
BRANCH 69 75
ATOM     75   C  BDP B   5      11.294   6.934  37.5540  0.00  0.00     0.000 C
ATOM     76   O  BDP B   5      11.736   7.786  36.7560  0.00  0.00     0.000 OA
ATOM     77   O  BDP B   5      12.037   6.129  38.1450  0.00  0.00     0.000 OA
ENDBRANCH 69 75
BRANCH 65 78
ATOM     78  O3  NAG B   6       8.118   4.432  36.4580  0.00  0.00     0.000 O
BRANCH 78 81
ATOM     79  C1  NAG B   6       6.633   3.211  33.1970  0.00  0.00     0.000 C
ATOM     80  C2  NAG B   6       6.770   3.387  34.7170  0.00  0.00     0.000 C
ATOM     81  C3  NAG B   6       7.880   4.377  35.0350  0.00  0.00     0.000 C
ATOM     82  C4  NAG B   6       9.172   4.000  34.3030  0.00  0.00     0.000 C
ATOM     83  C5  NAG B   6       8.890   3.872  32.8100  0.00  0.00     0.000 C
ATOM     84  O5  NAG B   6       7.909   2.848  32.6410  0.00  0.00     0.000 O
BRANCH 80 87
ATOM     85   N  NAG B   6       5.850   2.693  35.6130  0.00  0.00     0.000 N
ATOM     87  HD  NAG B   6       5.570   2.525  36.4160  0.00  0.00     0.000 HD
ATOM     87   C  NAG B   6       4.933   3.310  36.3700  0.00  0.00     0.000 C
ATOM     88   C  NAG B   6       4.063   2.414  37.1930  0.00  0.00     0.000 C
ATOM     89   O  NAG B   6       4.791   4.527  36.3890  0.00  0.00     0.000 OA
ENDBRANCH 80 87
ATOM     90   O  NAG B   6      10.476   4.640  31.1530  0.00  0.00     0.000 O
ATOM     92  HD  NAG B   6       9.640   4.510  31.3390  0.00  0.00     0.000 HD
ATOM     92   O  NAG B   6      10.476   4.640  31.1530  0.00  0.00     0.000 O
ATOM     94  HD  NAG B   6       9.640   4.510  31.3390  0.00  0.00     0.000 HD
ENDBRANCH 78 81
ENDBRANCH 65 78
ENDBRANCH 64 68
ENDBRANCH 48 64
ENDBRANCH 47 50
ENDBRANCH 34 47
ENDBRANCH 33 37
ENDBRANCH 17 33
ENDBRANCH 16 19
ENDBRANCH 1 16
TORSDOF 16
ENDMDL
MODEL 62
REMARK VINA RESULT:      -3.7     15.293     22.046
ROOT
ATOM      1  C1  BDP B   1      15.394  21.697  43.7530  0.00  0.00     0.000 C
ATOM      2  C2  BDP B   1      14.805  22.078  42.4070  0.00  0.00     0.000 C
ATOM      3  C3  BDP B   1      15.232  21.126  41.3090  0.00  0.00     0.000 C
ATOM      4  C4  BDP B   1      15.842  19.825  41.8170  0.00  0.00     0.000 C
ATOM      5  C5  BDP B   1      16.881  20.048  42.9120  0.00  0.00     0.000 C
ATOM      6  O5  BDP B   1      16.750  21.341  43.5270  0.00  0.00     0.000 O
ATOM      7   O  BDP B   1      13.376  22.106  42.4910  0.00  0.00     0.000 O
ATOM      9  HD  BDP B   1      12.644  22.321  42.8990  0.00  0.00     0.000 HD
ATOM      9   O  BDP B   1      16.201  21.761  40.4600  0.00  0.00     0.000 O
ATOM     11  HD  BDP B   1      15.468  21.975  40.8680  0.00  0.00     0.000 HD
ATOM     11   O  BDP B   1      14.817  18.945  42.2950  0.00  0.00     0.000 O
ATOM     13  HD  BDP B   1      14.085  19.160  42.7030  0.00  0.00     0.000 HD
ENDROOT
BRANCH 5 13
ATOM     13   C  BDP B   1      18.222  19.928  42.2770  0.00  0.00     0.000 C
ATOM     14   O  BDP B   1      18.827  20.977  41.9730  0.00  0.00     0.000 OA
ATOM     15   O  BDP B   1      18.709  18.791  42.0950  0.00  0.00     0.000 OA
ENDBRANCH 5 13
BRANCH 1 16
ATOM     16  O3  NAG B   2      14.755  21.374  44.9870  0.00  0.00     0.000 O
BRANCH 16 19
ATOM     17  C1  NAG B   2      14.423  18.105  46.5550  0.00  0.00     0.000 C
ATOM     18  C2  NAG B   2      15.301  19.244  46.0350  0.00  0.00     0.000 C
ATOM     19  C3  NAG B   2      14.578  20.577  46.1590  0.00  0.00     0.000 C
ATOM     20  C4  NAG B   2      13.084  20.388  46.4350  0.00  0.00     0.000 C
ATOM     21  C5  NAG B   2      12.442  19.177  45.7460  0.00  0.00     0.000 C
ATOM     22  O5  NAG B   2      13.315  18.045  45.6540  0.00  0.00     0.000 O
ATOM     23   O  NAG B   2      12.892  20.300  47.8510  0.00  0.00     0.000 O
ATOM     25  HD  NAG B   2      13.593  19.810  47.9860  0.00  0.00     0.000 HD
ATOM     25   C  NAG B   2      11.968  19.546  44.3330  0.00  0.00     0.000 C
ATOM     26   O  NAG B   2      10.659  20.132  44.3480  0.00  0.00     0.000 O
ATOM     28  HD  NAG B   2      11.359  19.641  44.4840  0.00  0.00     0.000 HD
BRANCH 18 30
ATOM     28   N  NAG B   2      15.692  18.868  47.3930  0.00  0.00     0.000 N
ATOM     30  HD  NAG B   2      15.474  18.984  48.2230  0.00  0.00     0.000 HD
ATOM     30   C  NAG B   2      16.812  19.271  48.0090  0.00  0.00     0.000 C
ATOM     31   C  NAG B   2      16.993  18.739  49.4030  0.00  0.00     0.000 C
ATOM     32   O  NAG B   2      17.623  20.010  47.5010  0.00  0.00     0.000 OA
ENDBRANCH 18 30
BRANCH 17 33
ATOM     33  O4  BDP B   3      14.043  16.714  46.6210  0.00  0.00     0.000 O
BRANCH 33 37
ATOM     34  C1  BDP B   3      11.601  13.238  46.1740  0.00  0.00     0.000 C
ATOM     35  C2  BDP B   3      12.535  13.586  45.0220  0.00  0.00     0.000 C
ATOM     36  C3  BDP B   3      13.650  14.552  45.4090  0.00  0.00     0.000 C
ATOM     37  C4  BDP B   3      13.062  15.709  46.2310  0.00  0.00     0.000 C
ATOM     38  C5  BDP B   3      12.336  15.088  47.4410  0.00  0.00     0.000 C
ATOM     39  O5  BDP B   3      11.204  14.406  46.9030  0.00  0.00     0.000 O
ATOM     40   O  BDP B   3      13.043  12.344  44.5300  0.00  0.00     0.000 O
ATOM     42  HD  BDP B   3      12.270  12.361  44.1390  0.00  0.00     0.000 HD
ATOM     42   O  BDP B   3      14.236  15.010  44.1920  0.00  0.00     0.000 O
ATOM     44  HD  BDP B   3      13.464  15.027  43.8010  0.00  0.00     0.000 HD
BRANCH 38 44
ATOM     44   C  BDP B   3      11.890  16.079  48.4700  0.00  0.00     0.000 C
ATOM     45   O  BDP B   3      11.043  16.935  48.1300  0.00  0.00     0.000 OA
ATOM     46   O  BDP B   3      12.367  16.029  49.6250  0.00  0.00     0.000 OA
ENDBRANCH 38 44
BRANCH 34 47
ATOM     47  O3  NAG B   4      10.245  13.120  45.7450  0.00  0.00     0.000 O
BRANCH 47 50
ATOM     48  C1  NAG B   4       8.463   9.904  46.5380  0.00  0.00     0.000 C
ATOM     49  C2  NAG B   4       9.483  10.811  45.8720  0.00  0.00     0.000 C
ATOM     50  C3  NAG B   4       9.330  12.228  46.4140  0.00  0.00     0.000 C
ATOM     51  C4  NAG B   4       7.909  12.741  46.2480  0.00  0.00     0.000 C
ATOM     52  C5  NAG B   4       6.924  11.753  46.8750  0.00  0.00     0.000 C
ATOM     53  O5  NAG B   4       7.137  10.436  46.3530  0.00  0.00     0.000 O
ATOM     54   O  NAG B   4       7.801  14.024  46.8700  0.00  0.00     0.000 O
ATOM     56  HD  NAG B   4       7.129  13.846  46.3540  0.00  0.00     0.000 HD
ATOM     56   C  NAG B   4       5.481  12.172  46.6190  0.00  0.00     0.000 C
ATOM     57   O  NAG B   4       5.252  12.217  45.2040  0.00  0.00     0.000 O
ATOM     59  HD  NAG B   4       4.580  12.038  44.6880  0.00  0.00     0.000 HD
BRANCH 49 61
ATOM     59   N  NAG B   4       9.253  10.300  44.5200  0.00  0.00     0.000 N
ATOM     61  HD  NAG B   4       9.747  10.890  44.9170  0.00  0.00     0.000 HD
ATOM     61   O  NAG B   4      11.419  10.231  43.8840  0.00  0.00     0.000 OA
ATOM     62   C  NAG B   4      10.240   9.986  43.6730  0.00  0.00     0.000 C
ATOM     63   C  NAG B   4       9.821   9.280  42.4230  0.00  0.00     0.000 C
ENDBRANCH 49 61
BRANCH 48 64
ATOM     64  O4  BDP B   5       8.459   8.513  46.8490  0.00  0.00     0.000 O
BRANCH 64 68
ATOM     65  C1  BDP B   5       9.201   4.711  48.3850  0.00  0.00     0.000 C
ATOM     66  C2  BDP B   5       8.001   5.444  48.9690  0.00  0.00     0.000 C
ATOM     67  C3  BDP B   5       7.600   6.587  48.0470  0.00  0.00     0.000 C
ATOM     68  C4  BDP B   5       8.788   7.513  47.8120  0.00  0.00     0.000 C
ATOM     69  C5  BDP B   5      10.019   6.758  47.3280  0.00  0.00     0.000 C
ATOM     70  O5  BDP B   5      10.286   5.629  48.1770  0.00  0.00     0.000 O
ATOM     71   O  BDP B   5       6.921   4.518  49.1680  0.00  0.00     0.000 O
ATOM     73  HD  BDP B   5       6.297   3.923  49.2480  0.00  0.00     0.000 HD
ATOM     73   O  BDP B   5       6.520   7.338  48.6160  0.00  0.00     0.000 O
ATOM     75  HD  BDP B   5       5.896   6.743  48.6960  0.00  0.00     0.000 HD
BRANCH 69 75
ATOM     75   C  BDP B   5      11.195   7.700  47.3570  0.00  0.00     0.000 C
ATOM     76   O  BDP B   5      11.769   7.978  46.2850  0.00  0.00     0.000 OA
ATOM     77   O  BDP B   5      11.558   8.178  48.4480  0.00  0.00     0.000 OA
ENDBRANCH 69 75
BRANCH 65 78
ATOM     78  O3  NAG B   6      10.219   4.028  49.1220  0.00  0.00     0.000 O
BRANCH 78 81
ATOM     79  C1  NAG B   6      12.198   0.875  49.8120  0.00  0.00     0.000 C
ATOM     80  C2  NAG B   6      11.263   2.058  50.1060  0.00  0.00     0.000 C
ATOM     81  C3  NAG B   6      10.970   2.829  48.8290  0.00  0.00     0.000 C
ATOM     82  C4  NAG B   6      12.268   3.190  48.1000  0.00  0.00     0.000 C
ATOM     83  C5  NAG B   6      13.085   1.925  47.8640  0.00  0.00     0.000 C
ATOM     84  O5  NAG B   6      13.377   1.354  49.1400  0.00  0.00     0.000 O
BRANCH 80 87
ATOM     85   N  NAG B   6      10.200   2.717  50.8600  0.00  0.00     0.000 N
ATOM     87  HD  NAG B   6       9.361   2.795  51.0590  0.00  0.00     0.000 HD
ATOM     87   C  NAG B   6       9.461   2.112  51.7980  0.00  0.00     0.000 C
ATOM     88   C  NAG B   6       8.445   2.972  52.4800  0.00  0.00     0.000 C
ATOM     89   O  NAG B   6       9.603   0.933  52.1030  0.00  0.00     0.000 OA
ENDBRANCH 80 87
ATOM     90   O  NAG B   6      14.318   1.580  45.8120  0.00  0.00     0.000 O
ATOM     92  HD  NAG B   6      13.890   1.202  46.4630  0.00  0.00     0.000 HD
ATOM     92   O  NAG B   6      14.318   1.580  45.8120  0.00  0.00     0.000 O
ATOM     94  HD  NAG B   6      13.890   1.202  46.4630  0.00  0.00     0.000 HD
ENDBRANCH 78 81
ENDBRANCH 65 78
ENDBRANCH 64 68
ENDBRANCH 48 64
ENDBRANCH 47 50
ENDBRANCH 34 47
ENDBRANCH 33 37
ENDBRANCH 17 33
ENDBRANCH 16 19
ENDBRANCH 1 16
TORSDOF 16
ENDMDL
MODEL 63
REMARK VINA RESULT:      -3.6      8.384     13.128
ROOT
ATOM      1  C1  BDP B   1      29.530   9.165  40.8410  0.00  0.00     0.000 C
ATOM      2  C2  BDP B   1      30.288   8.185  39.9620  0.00  0.00     0.000 C
ATOM      3  C3  BDP B   1      29.979   6.746  40.3160  0.00  0.00     0.000 C
ATOM      4  C4  BDP B   1      28.748   6.573  41.1980  0.00  0.00     0.000 C
ATOM      5  C5  BDP B   1      28.725   7.542  42.3760  0.00  0.00     0.000 C
ATOM      6  O5  BDP B   1      29.596   8.668  42.1690  0.00  0.00     0.000 O
ATOM      7   O  BDP B   1      29.973   8.421  38.5860  0.00  0.00     0.000 O
ATOM      9  HD  BDP B   1      29.841   8.956  37.9180  0.00  0.00     0.000 HD
ATOM      9   O  BDP B   1      31.095   6.160  41.0050  0.00  0.00     0.000 O
ATOM     11  HD  BDP B   1      30.963   6.695  40.3360  0.00  0.00     0.000 HD
ATOM     11   O  BDP B   1      27.553   6.726  40.4230  0.00  0.00     0.000 O
ATOM     13  HD  BDP B   1      27.421   7.261  39.7550  0.00  0.00     0.000 HD
ENDROOT
BRANCH 5 13
ATOM     13   C  BDP B   1      29.163   6.783  43.5800  0.00  0.00     0.000 C
ATOM     14   O  BDP B   1      30.179   7.178  44.1880  0.00  0.00     0.000 OA
ATOM     15   O  BDP B   1      28.491   5.799  43.9550  0.00  0.00     0.000 OA
ENDBRANCH 5 13
BRANCH 1 16
ATOM     16  O3  NAG B   2      28.606  10.195  40.4960  0.00  0.00     0.000 O
BRANCH 16 19
ATOM     17  C1  NAG B   2      26.094  10.842  37.9420  0.00  0.00     0.000 C
ATOM     18  C2  NAG B   2      26.750   9.895  38.9470  0.00  0.00     0.000 C
ATOM     19  C3  NAG B   2      27.312  10.673  40.1280  0.00  0.00     0.000 C
ATOM     20  C4  NAG B   2      27.379  12.175  39.8370  0.00  0.00     0.000 C
ATOM     21  C5  NAG B   2      27.718  12.543  38.3860  0.00  0.00     0.000 C
ATOM     22  O5  NAG B   2      27.162  11.638  37.4250  0.00  0.00     0.000 O
ATOM     23   O  NAG B   2      26.130  12.767  40.2090  0.00  0.00     0.000 O
ATOM     25  HD  NAG B   2      25.649  12.117  39.8970  0.00  0.00     0.000 HD
ATOM     25   C  NAG B   2      29.239  12.601  38.1830  0.00  0.00     0.000 C
ATOM     26   O  NAG B   2      29.775  13.880  38.5500  0.00  0.00     0.000 O
ATOM     28  HD  NAG B   2      29.295  13.230  38.2380  0.00  0.00     0.000 HD
BRANCH 18 30
ATOM     28   N  NAG B   2      25.727   9.747  39.9820  0.00  0.00     0.000 N
ATOM     30  HD  NAG B   2      25.589   9.390  40.7590  0.00  0.00     0.000 HD
ATOM     30   C  NAG B   2      24.605   9.024  39.8550  0.00  0.00     0.000 C
ATOM     31   C  NAG B   2      23.706   9.037  41.0580  0.00  0.00     0.000 C
ATOM     32   O  NAG B   2      24.325   8.399  38.8590  0.00  0.00     0.000 OA
ENDBRANCH 18 30
BRANCH 17 33
ATOM     33  O4  BDP B   3      25.624  11.172  36.6170  0.00  0.00     0.000 O
BRANCH 33 37
ATOM     34  C1  BDP B   3      24.086  10.322  32.7240  0.00  0.00     0.000 C
ATOM     35  C2  BDP B   3      24.053   9.194  33.7480  0.00  0.00     0.000 C
ATOM     36  C3  BDP B   3      24.210   9.671  35.1880  0.00  0.00     0.000 C
ATOM     37  C4  BDP B   3      25.364  10.681  35.2690  0.00  0.00     0.000 C
ATOM     38  C5  BDP B   3      25.050  11.816  34.2760  0.00  0.00     0.000 C
ATOM     39  O5  BDP B   3      25.162  11.233  32.9770  0.00  0.00     0.000 O
ATOM     40   O  BDP B   3      22.820   8.501  33.5400  0.00  0.00     0.000 O
ATOM     42  HD  BDP B   3      23.303   8.151  32.9110  0.00  0.00     0.000 HD
ATOM     42   O  BDP B   3      24.462   8.511  35.9790  0.00  0.00     0.000 O
ATOM     44  HD  BDP B   3      24.945   8.161  35.3500  0.00  0.00     0.000 HD
BRANCH 38 44
ATOM     44   C  BDP B   3      25.960  13.000  34.3800  0.00  0.00     0.000 C
ATOM     45   O  BDP B   3      25.456  14.100  34.6950  0.00  0.00     0.000 OA
ATOM     46   O  BDP B   3      27.182  12.862  34.1530  0.00  0.00     0.000 OA
ENDBRANCH 38 44
BRANCH 34 47
ATOM     47  O3  NAG B   4      24.770   9.941  31.5320  0.00  0.00     0.000 O
BRANCH 47 50
ATOM     48  C1  NAG B   4      23.185  10.801  28.2310  0.00  0.00     0.000 C
ATOM     49  C2  NAG B   4      23.348  10.087  29.5610  0.00  0.00     0.000 C
ATOM     50  C3  NAG B   4      24.558  10.652  30.2950  0.00  0.00     0.000 C
ATOM     51  C4  NAG B   4      25.815  10.574  29.4440  0.00  0.00     0.000 C
ATOM     52  C5  NAG B   4      25.570  11.247  28.0930  0.00  0.00     0.000 C
ATOM     53  O5  NAG B   4      24.403  10.699  27.4670  0.00  0.00     0.000 O
ATOM     54   O  NAG B   4      26.889  11.215  30.1390  0.00  0.00     0.000 O
ATOM     56  HD  NAG B   4      27.162  10.737  29.4700  0.00  0.00     0.000 HD
ATOM     56   C  NAG B   4      26.767  11.079  27.1650  0.00  0.00     0.000 C
ATOM     57   O  NAG B   4      26.999   9.681  26.9490  0.00  0.00     0.000 O
ATOM     59  HD  NAG B   4      27.273   9.203  26.2800  0.00  0.00     0.000 HD
BRANCH 49 61
ATOM     59   N  NAG B   4      21.925  10.094  29.9030  0.00  0.00     0.000 N
ATOM     61  HD  NAG B   4      22.503   9.561  29.5400  0.00  0.00     0.000 HD
ATOM     61   O  NAG B   4      21.826   7.983  30.7010  0.00  0.00     0.000 OA
ATOM     62   C  NAG B   4      21.307   9.073  30.5080  0.00  0.00     0.000 C
ATOM     63   C  NAG B   4      19.910   9.344  30.9700  0.00  0.00     0.000 C
ENDBRANCH 49 61
BRANCH 48 64
ATOM     64  O4  BDP B   5      22.052  11.096  27.4210  0.00  0.00     0.000 O
BRANCH 64 68
ATOM     65  C1  BDP B   5      21.544   9.872  23.4690  0.00  0.00     0.000 C
ATOM     66  C2  BDP B   5      21.358  11.360  23.7350  0.00  0.00     0.000 C
ATOM     67  C3  BDP B   5      21.980  11.722  25.0780  0.00  0.00     0.000 C
ATOM     68  C4  BDP B   5      21.385  10.855  26.1820  0.00  0.00     0.000 C
ATOM     69  C5  BDP B   5      21.480   9.369  25.8610  0.00  0.00     0.000 C
ATOM     70  O5  BDP B   5      20.974   9.104  24.5400  0.00  0.00     0.000 O
ATOM     71   O  BDP B   5      21.936  12.118  22.6620  0.00  0.00     0.000 O
ATOM     73  HD  BDP B   5      22.317  12.526  22.0000  0.00  0.00     0.000 HD
ATOM     73   O  BDP B   5      21.748  13.102  25.3840  0.00  0.00     0.000 O
ATOM     75  HD  BDP B   5      22.129  13.510  24.7220  0.00  0.00     0.000 HD
BRANCH 69 75
ATOM     75   C  BDP B   5      20.661   8.611  26.8750  0.00  0.00     0.000 C
ATOM     76   O  BDP B   5      21.218   7.727  27.5560  0.00  0.00     0.000 OA
ATOM     77   O  BDP B   5      19.455   8.892  27.0070  0.00  0.00     0.000 OA
ENDBRANCH 69 75
BRANCH 65 78
ATOM     78  O3  NAG B   6      20.675   9.031  22.7060  0.00  0.00     0.000 O
BRANCH 78 81
ATOM     79  C1  NAG B   6      20.278   6.192  20.2330  0.00  0.00     0.000 C
ATOM     80  C2  NAG B   6      20.205   7.631  20.7680  0.00  0.00     0.000 C
ATOM     81  C3  NAG B   6      20.873   7.722  22.1300  0.00  0.00     0.000 C
ATOM     82  C4  NAG B   6      20.330   6.646  23.0770  0.00  0.00     0.000 C
ATOM     83  C5  NAG B   6      20.478   5.276  22.4250  0.00  0.00     0.000 C
ATOM     84  O5  NAG B   6      19.727   5.292  21.2100  0.00  0.00     0.000 O
BRANCH 80 87
ATOM     85   N  NAG B   6      19.607   8.691  19.9600  0.00  0.00     0.000 N
ATOM     87  HD  NAG B   6      19.403   9.525  19.8530  0.00  0.00     0.000 HD
ATOM     87   C  NAG B   6      20.299   9.700  19.4170  0.00  0.00     0.000 C
ATOM     88   C  NAG B   6      19.504  10.663  18.5940  0.00  0.00     0.000 C
ATOM     89   O  NAG B   6      21.508   9.834  19.5600  0.00  0.00     0.000 OA
ENDBRANCH 80 87
ATOM     90   O  NAG B   6      21.106   3.326  23.7090  0.00  0.00     0.000 O
ATOM     92  HD  NAG B   6      21.137   3.715  22.9360  0.00  0.00     0.000 HD
ATOM     92   O  NAG B   6      21.106   3.326  23.7090  0.00  0.00     0.000 O
ATOM     94  HD  NAG B   6      21.137   3.715  22.9360  0.00  0.00     0.000 HD
ENDBRANCH 78 81
ENDBRANCH 65 78
ENDBRANCH 64 68
ENDBRANCH 48 64
ENDBRANCH 47 50
ENDBRANCH 34 47
ENDBRANCH 33 37
ENDBRANCH 17 33
ENDBRANCH 16 19
ENDBRANCH 1 16
TORSDOF 16
ENDMDL
MODEL 64
REMARK VINA RESULT:      -3.6      8.400     13.147
ROOT
ATOM      1  C1  BDP B   1      25.216  14.638  44.1300  0.00  0.00     0.000 C
ATOM      2  C2  BDP B   1      26.403  15.182  43.3560  0.00  0.00     0.000 C
ATOM      3  C3  BDP B   1      27.687  14.455  43.6950  0.00  0.00     0.000 C
ATOM      4  C4  BDP B   1      27.479  13.140  44.4390  0.00  0.00     0.000 C
ATOM      5  C5  BDP B   1      26.488  13.265  45.5920  0.00  0.00     0.000 C
ATOM      6  O5  BDP B   1      25.652  14.428  45.4660  0.00  0.00     0.000 O
ATOM      7   O  BDP B   1      26.153  15.086  41.9500  0.00  0.00     0.000 O
ATOM      9  HD  BDP B   1      25.633  15.175  41.2630  0.00  0.00     0.000 HD
ATOM      9   O  BDP B   1      28.522  15.290  44.5120  0.00  0.00     0.000 O
ATOM     11  HD  BDP B   1      28.002  15.379  43.8250  0.00  0.00     0.000 HD
ATOM     11   O  BDP B   1      27.041  12.119  43.5350  0.00  0.00     0.000 O
ATOM     13  HD  BDP B   1      26.522  12.208  42.8480  0.00  0.00     0.000 HD
ENDROOT
BRANCH 5 13
ATOM     13   C  BDP B   1      27.282  13.352  46.8480  0.00  0.00     0.000 C
ATOM     14   O  BDP B   1      26.673  13.562  47.9180  0.00  0.00     0.000 OA
ATOM     15   O  BDP B   1      28.520  13.187  46.7970  0.00  0.00     0.000 OA
ENDBRANCH 5 13
BRANCH 1 16
ATOM     16  O3  NAG B   2      23.990  14.073  43.6710  0.00  0.00     0.000 O
BRANCH 16 19
ATOM     17  C1  NAG B   2      22.926  12.174  40.7520  0.00  0.00     0.000 C
ATOM     18  C2  NAG B   2      23.912  12.403  41.8980  0.00  0.00     0.000 C
ATOM     19  C3  NAG B   2      23.207  13.026  43.0940  0.00  0.00     0.000 C
ATOM     20  C4  NAG B   2      21.822  13.562  42.7210  0.00  0.00     0.000 C
ATOM     21  C5  NAG B   2      21.713  14.160  41.3110  0.00  0.00     0.000 C
ATOM     22  O5  NAG B   2      22.519  13.481  40.3410  0.00  0.00     0.000 O
ATOM     23   O  NAG B   2      20.870  12.505  42.8740  0.00  0.00     0.000 O
ATOM     25  HD  NAG B   2      21.387  11.896  42.5390  0.00  0.00     0.000 HD
ATOM     25   C  NAG B   2      22.106  15.644  41.3220  0.00  0.00     0.000 C
ATOM     26   O  NAG B   2      20.999  16.484  41.6780  0.00  0.00     0.000 O
ATOM     28  HD  NAG B   2      21.516  15.875  41.3430  0.00  0.00     0.000 HD
BRANCH 18 30
ATOM     28   N  NAG B   2      23.554  10.991  41.7830  0.00  0.00     0.000 N
ATOM     30  HD  NAG B   2      22.898  10.440  41.9100  0.00  0.00     0.000 HD
ATOM     30   C  NAG B   2      24.049  10.008  42.5480  0.00  0.00     0.000 C
ATOM     31   C  NAG B   2      23.531   8.634  42.2260  0.00  0.00     0.000 C
ATOM     32   O  NAG B   2      24.848  10.193  43.4360  0.00  0.00     0.000 OA
ENDBRANCH 18 30
BRANCH 17 33
ATOM     33  O4  BDP B   3      22.614  11.979  39.3560  0.00  0.00     0.000 O
BRANCH 33 37
ATOM     34  C1  BDP B   3      20.064  10.217  36.4160  0.00  0.00     0.000 C
ATOM     35  C2  BDP B   3      20.102   9.560  37.7910  0.00  0.00     0.000 C
ATOM     36  C3  BDP B   3      20.677  10.456  38.8820  0.00  0.00     0.000 C
ATOM     37  C4  BDP B   3      21.961  11.126  38.3700  0.00  0.00     0.000 C
ATOM     38  C5  BDP B   3      21.599  11.883  37.0780  0.00  0.00     0.000 C
ATOM     39  O5  BDP B   3      21.300  10.876  36.1120  0.00  0.00     0.000 O
ATOM     40   O  BDP B   3      18.762   9.152  38.0750  0.00  0.00     0.000 O
ATOM     42  HD  BDP B   3      19.017   8.501  37.5640  0.00  0.00     0.000 HD
ATOM     42   O  BDP B   3      20.927   9.620  40.0100  0.00  0.00     0.000 O
ATOM     44  HD  BDP B   3      21.181   8.969  39.4990  0.00  0.00     0.000 HD
BRANCH 38 44
ATOM     44   C  BDP B   3      22.683  12.776  36.5600  0.00  0.00     0.000 C
ATOM     45   O  BDP B   3      23.663  12.240  35.9960  0.00  0.00     0.000 OA
ATOM     46   O  BDP B   3      22.585  14.014  36.7010  0.00  0.00     0.000 OA
ENDBRANCH 38 44
BRANCH 34 47
ATOM     47  O3  NAG B   4      20.370   9.293  35.3740  0.00  0.00     0.000 O
BRANCH 47 50
ATOM     48  C1  NAG B   4      18.207   9.218  32.2980  0.00  0.00     0.000 C
ATOM     49  C2  NAG B   4      18.576   8.997  33.7540  0.00  0.00     0.000 C
ATOM     50  C3  NAG B   4      19.972   9.553  34.0120  0.00  0.00     0.000 C
ATOM     51  C4  NAG B   4      20.997   8.955  33.0610  0.00  0.00     0.000 C
ATOM     52  C5  NAG B   4      20.537   9.145  31.6150  0.00  0.00     0.000 C
ATOM     53  O5  NAG B   4      19.209   8.635  31.4420  0.00  0.00     0.000 O
ATOM     54   O  NAG B   4      22.260   9.591  33.2770  0.00  0.00     0.000 O
ATOM     56  HD  NAG B   4      22.327   8.868  32.8050  0.00  0.00     0.000 HD
ATOM     56   C  NAG B   4      21.478   8.448  30.6390  0.00  0.00     0.000 C
ATOM     57   O  NAG B   4      21.503   7.045  30.9350  0.00  0.00     0.000 O
ATOM     59  HD  NAG B   4      21.570   6.323  30.4620  0.00  0.00     0.000 HD
BRANCH 49 61
ATOM     59   N  NAG B   4      17.361   9.476  34.4120  0.00  0.00     0.000 N
ATOM     61  HD  NAG B   4      17.685   8.733  34.1080  0.00  0.00     0.000 HD
ATOM     61   O  NAG B   4      17.120   7.740  35.8370  0.00  0.00     0.000 OA
ATOM     62   C  NAG B   4      16.782   8.846  35.4410  0.00  0.00     0.000 C
ATOM     63   C  NAG B   4      15.678   9.594  36.1190  0.00  0.00     0.000 C
ENDBRANCH 49 61
BRANCH 48 64
ATOM     64  O4  BDP B   5      16.962   9.413  31.6320  0.00  0.00     0.000 O
BRANCH 64 68
ATOM     65  C1  BDP B   5      15.255  13.122  30.7960  0.00  0.00     0.000 C
ATOM     66  C2  BDP B   5      14.373  12.137  31.5500  0.00  0.00     0.000 C
ATOM     67  C3  BDP B   5      15.234  11.034  32.1520  0.00  0.00     0.000 C
ATOM     68  C4  BDP B   5      16.059  10.358  31.0610  0.00  0.00     0.000 C
ATOM     69  C5  BDP B   5      16.859  11.362  30.2410  0.00  0.00     0.000 C
ATOM     70  O5  BDP B   5      16.014  12.434  29.7890  0.00  0.00     0.000 O
ATOM     71   O  BDP B   5      13.624  12.834  32.5570  0.00  0.00     0.000 O
ATOM     73  HD  BDP B   5      13.213  13.299  33.1610  0.00  0.00     0.000 HD
ATOM     73   O  BDP B   5      14.416  10.054  32.8010  0.00  0.00     0.000 O
ATOM     75  HD  BDP B   5      14.005  10.519  33.4040  0.00  0.00     0.000 HD
BRANCH 69 75
ATOM     75   C  BDP B   5      17.442  10.643  29.0510  0.00  0.00     0.000 C
ATOM     76   O  BDP B   5      18.682  10.599  28.9250  0.00  0.00     0.000 OA
ATOM     77   O  BDP B   5      16.671  10.111  28.2310  0.00  0.00     0.000 OA
ENDBRANCH 69 75
BRANCH 65 78
ATOM     78  O3  NAG B   6      14.877  13.900  29.6570  0.00  0.00     0.000 O
BRANCH 78 81
ATOM     79  C1  NAG B   6      14.915  17.556  28.6740  0.00  0.00     0.000 C
ATOM     80  C2  NAG B   6      14.431  16.280  29.3800  0.00  0.00     0.000 C
ATOM     81  C3  NAG B   6      15.402  15.137  29.1270  0.00  0.00     0.000 C
ATOM     82  C4  NAG B   6      15.688  14.986  27.6300  0.00  0.00     0.000 C
ATOM     83  C5  NAG B   6      16.170  16.319  27.0680  0.00  0.00     0.000 C
ATOM     84  O5  NAG B   6      15.132  17.277  27.2790  0.00  0.00     0.000 O
BRANCH 80 87
ATOM     85   N  NAG B   6      13.228  16.135  30.1950  0.00  0.00     0.000 N
ATOM     87  HD  NAG B   6      12.764  15.686  30.7710  0.00  0.00     0.000 HD
ATOM     87   C  NAG B   6      13.222  16.169  31.5330  0.00  0.00     0.000 C
ATOM     88   C  NAG B   6      11.879  16.037  32.1790  0.00  0.00     0.000 C
ATOM     89   O  NAG B   6      14.237  16.312  32.2030  0.00  0.00     0.000 OA
ENDBRANCH 80 87
ATOM     90   O  NAG B   6      17.924  16.431  25.4070  0.00  0.00     0.000 O
ATOM     92  HD  NAG B   6      17.540  16.831  26.0730  0.00  0.00     0.000 HD
ATOM     92   O  NAG B   6      17.924  16.431  25.4070  0.00  0.00     0.000 O
ATOM     94  HD  NAG B   6      17.540  16.831  26.0730  0.00  0.00     0.000 HD
ENDBRANCH 78 81
ENDBRANCH 65 78
ENDBRANCH 64 68
ENDBRANCH 48 64
ENDBRANCH 47 50
ENDBRANCH 34 47
ENDBRANCH 33 37
ENDBRANCH 17 33
ENDBRANCH 16 19
ENDBRANCH 1 16
TORSDOF 16
ENDMDL
MODEL 65
REMARK VINA RESULT:      -3.6      8.912     12.874
ROOT
ATOM      1  C1  BDP B   1      29.840   9.268  40.7140  0.00  0.00     0.000 C
ATOM      2  C2  BDP B   1      30.652   8.056  40.2950  0.00  0.00     0.000 C
ATOM      3  C3  BDP B   1      30.047   6.763  40.7990  0.00  0.00     0.000 C
ATOM      4  C4  BDP B   1      28.611   6.899  41.2910  0.00  0.00     0.000 C
ATOM      5  C5  BDP B   1      28.414   8.101  42.2110  0.00  0.00     0.000 C
ATOM      6  O5  BDP B   1      29.467   9.069  42.0690  0.00  0.00     0.000 O
ATOM      7   O  BDP B   1      30.762   8.012  38.8690  0.00  0.00     0.000 O
ATOM      9  HD  BDP B   1      30.899   8.397  38.1050  0.00  0.00     0.000 HD
ATOM      9   O  BDP B   1      30.832   6.243  41.8830  0.00  0.00     0.000 O
ATOM     11  HD  BDP B   1      30.969   6.628  41.1200  0.00  0.00     0.000 HD
ATOM     11   O  BDP B   1      27.708   6.987  40.1820  0.00  0.00     0.000 O
ATOM     13  HD  BDP B   1      27.844   7.372  39.4180  0.00  0.00     0.000 HD
ENDROOT
BRANCH 5 13
ATOM     13   C  BDP B   1      28.389   7.587  43.6080  0.00  0.00     0.000 C
ATOM     14   O  BDP B   1      28.412   6.351  43.7820  0.00  0.00     0.000 OA
ATOM     15   O  BDP B   1      28.372   8.402  44.5550  0.00  0.00     0.000 OA
ENDBRANCH 5 13
BRANCH 1 16
ATOM     16  O3  NAG B   2      29.210  10.278  39.9280  0.00  0.00     0.000 O
BRANCH 16 19
ATOM     17  C1  NAG B   2      27.328  10.335  36.8110  0.00  0.00     0.000 C
ATOM     18  C2  NAG B   2      27.586   9.736  38.1940  0.00  0.00     0.000 C
ATOM     19  C3  NAG B   2      28.134  10.793  39.1420  0.00  0.00     0.000 C
ATOM     20  C4  NAG B   2      28.596  12.044  38.3900  0.00  0.00     0.000 C
ATOM     21  C5  NAG B   2      29.224  11.782  37.0140  0.00  0.00     0.000 C
ATOM     22  O5  NAG B   2      28.619  10.690  36.3110  0.00  0.00     0.000 O
ATOM     23   O  NAG B   2      27.481  12.930  38.2540  0.00  0.00     0.000 O
ATOM     25  HD  NAG B   2      26.912  12.301  38.0770  0.00  0.00     0.000 HD
ATOM     25   C  NAG B   2      30.728  11.505  37.1490  0.00  0.00     0.000 C
ATOM     26   O  NAG B   2      31.491  12.720  37.1780  0.00  0.00     0.000 O
ATOM     28  HD  NAG B   2      30.922  12.091  37.0010  0.00  0.00     0.000 HD
BRANCH 18 30
ATOM     28   N  NAG B   2      26.168  10.052  38.0240  0.00  0.00     0.000 N
ATOM     30  HD  NAG B   2      25.605  10.709  38.0650  0.00  0.00     0.000 HD
ATOM     30   C  NAG B   2      25.186   9.637  38.8360  0.00  0.00     0.000 C
ATOM     31   C  NAG B   2      23.807  10.087  38.4430  0.00  0.00     0.000 C
ATOM     32   O  NAG B   2      25.376   8.958  39.8190  0.00  0.00     0.000 OA
ENDBRANCH 18 30
BRANCH 17 33
ATOM     33  O4  BDP B   3      27.152  10.220  35.3830  0.00  0.00     0.000 O
BRANCH 33 37
ATOM     34  C1  BDP B   3      25.314  10.781  31.5680  0.00  0.00     0.000 C
ATOM     35  C2  BDP B   3      26.502  11.674  31.9080  0.00  0.00     0.000 C
ATOM     36  C3  BDP B   3      27.351  11.149  33.0600  0.00  0.00     0.000 C
ATOM     37  C4  BDP B   3      26.434  10.705  34.2100  0.00  0.00     0.000 C
ATOM     38  C5  BDP B   3      25.457   9.659  33.6390  0.00  0.00     0.000 C
ATOM     39  O5  BDP B   3      24.605  10.375  32.7450  0.00  0.00     0.000 O
ATOM     40   O  BDP B   3      27.255  11.813  30.7010  0.00  0.00     0.000 O
ATOM     42  HD  BDP B   3      26.631  12.399  30.5630  0.00  0.00     0.000 HD
ATOM     42   O  BDP B   3      28.215  12.215  33.4510  0.00  0.00     0.000 O
ATOM     44  HD  BDP B   3      27.591  12.800  33.3130  0.00  0.00     0.000 HD
BRANCH 38 44
ATOM     44   C  BDP B   3      24.632   8.954  34.6700  0.00  0.00     0.000 C
ATOM     45   O  BDP B   3      24.996   7.813  35.0310  0.00  0.00     0.000 OA
ATOM     46   O  BDP B   3      23.616   9.514  35.1360  0.00  0.00     0.000 OA
ENDBRANCH 38 44
BRANCH 34 47
ATOM     47  O3  NAG B   4      24.161  11.541  31.2090  0.00  0.00     0.000 O
BRANCH 47 50
ATOM     48  C1  NAG B   4      22.259  10.050  28.3270  0.00  0.00     0.000 C
ATOM     49  C2  NAG B   4      23.453  10.626  29.0660  0.00  0.00     0.000 C
ATOM     50  C3  NAG B   4      23.059  10.929  30.5070  0.00  0.00     0.000 C
ATOM     51  C4  NAG B   4      21.845  11.843  30.5750  0.00  0.00     0.000 C
ATOM     52  C5  NAG B   4      20.700  11.246  29.7560  0.00  0.00     0.000 C
ATOM     53  O5  NAG B   4      21.139  10.952  28.4240  0.00  0.00     0.000 O
ATOM     54   O  NAG B   4      21.459  12.003  31.9420  0.00  0.00     0.000 O
ATOM     56  HD  NAG B   4      21.082  12.581  31.4190  0.00  0.00     0.000 HD
ATOM     56   C  NAG B   4      19.508  12.194  29.6980  0.00  0.00     0.000 C
ATOM     57   O  NAG B   4      19.919  13.425  29.0880  0.00  0.00     0.000 O
ATOM     59  HD  NAG B   4      19.543  14.003  28.5650  0.00  0.00     0.000 HD
BRANCH 49 61
ATOM     59   N  NAG B   4      24.431   9.689  28.5120  0.00  0.00     0.000 N
ATOM     61  HD  NAG B   4      24.136  10.488  28.3560  0.00  0.00     0.000 HD
ATOM     61   O  NAG B   4      26.072  11.196  28.1410  0.00  0.00     0.000 OA
ATOM     62   C  NAG B   4      25.676  10.040  28.1670  0.00  0.00     0.000 C
ATOM     63   C  NAG B   4      26.595   8.911  27.8240  0.00  0.00     0.000 C
ENDBRANCH 49 61
BRANCH 48 64
ATOM     64  O4  BDP B   5      22.140   9.142  27.2360  0.00  0.00     0.000 O
BRANCH 64 68
ATOM     65  C1  BDP B   5      20.334  10.053  23.5910  0.00  0.00     0.000 C
ATOM     66  C2  BDP B   5      19.705   8.913  24.3810  0.00  0.00     0.000 C
ATOM     67  C3  BDP B   5      20.170   8.976  25.8300  0.00  0.00     0.000 C
ATOM     68  C4  BDP B   5      21.693   8.954  25.8940  0.00  0.00     0.000 C
ATOM     69  C5  BDP B   5      22.320  10.031  25.0180  0.00  0.00     0.000 C
ATOM     70  O5  BDP B   5      21.766   9.990  23.6910  0.00  0.00     0.000 O
ATOM     71   O  BDP B   5      18.274   8.989  24.2790  0.00  0.00     0.000 O
ATOM     73  HD  BDP B   5      17.418   9.093  24.2020  0.00  0.00     0.000 HD
ATOM     73   O  BDP B   5      19.650   7.867  26.5740  0.00  0.00     0.000 O
ATOM     75  HD  BDP B   5      18.794   7.971  26.4960  0.00  0.00     0.000 HD
BRANCH 69 75
ATOM     75   C  BDP B   5      23.805   9.782  24.9510  0.00  0.00     0.000 C
ATOM     76   O  BDP B   5      24.584  10.719  25.2200  0.00  0.00     0.000 OA
ATOM     77   O  BDP B   5      24.213   8.649  24.6330  0.00  0.00     0.000 OA
ENDBRANCH 69 75
BRANCH 65 78
ATOM     78  O3  NAG B   6      20.658  10.043  22.1980  0.00  0.00     0.000 O
BRANCH 78 81
ATOM     79  C1  NAG B   6      20.701  11.565  18.7320  0.00  0.00     0.000 C
ATOM     80  C2  NAG B   6      20.635  10.459  19.7970  0.00  0.00     0.000 C
ATOM     81  C3  NAG B   6      20.565  11.070  21.1870  0.00  0.00     0.000 C
ATOM     82  C4  NAG B   6      21.682  12.101  21.3860  0.00  0.00     0.000 C
ATOM     83  C5  NAG B   6      21.618  13.138  20.2710  0.00  0.00     0.000 C
ATOM     84  O5  NAG B   6      21.795  12.450  19.0310  0.00  0.00     0.000 O
BRANCH 80 87
ATOM     85   N  NAG B   6      20.315   9.103  20.2360  0.00  0.00     0.000 N
ATOM     87  HD  NAG B   6      19.735   8.524  20.5150  0.00  0.00     0.000 HD
ATOM     87   C  NAG B   6      19.517   8.266  19.5610  0.00  0.00     0.000 C
ATOM     88   C  NAG B   6      19.345   6.908  20.1620  0.00  0.00     0.000 C
ATOM     89   O  NAG B   6      18.966   8.570  18.5100  0.00  0.00     0.000 OA
ENDBRANCH 80 87
ATOM     90   O  NAG B   6      22.042  15.480  20.6960  0.00  0.00     0.000 O
ATOM     92  HD  NAG B   6      21.613  14.907  20.2090  0.00  0.00     0.000 HD
ATOM     92   O  NAG B   6      22.042  15.480  20.6960  0.00  0.00     0.000 O
ATOM     94  HD  NAG B   6      21.613  14.907  20.2090  0.00  0.00     0.000 HD
ENDBRANCH 78 81
ENDBRANCH 65 78
ENDBRANCH 64 68
ENDBRANCH 48 64
ENDBRANCH 47 50
ENDBRANCH 34 47
ENDBRANCH 33 37
ENDBRANCH 17 33
ENDBRANCH 16 19
ENDBRANCH 1 16
TORSDOF 16
ENDMDL
MODEL 66
REMARK VINA RESULT:      -3.6     13.718     22.602
ROOT
ATOM      1  C1  BDP B   1      18.049  31.280  21.3820  0.00  0.00     0.000 C
ATOM      2  C2  BDP B   1      19.082  30.297  21.9010  0.00  0.00     0.000 C
ATOM      3  C3  BDP B   1      19.780  30.807  23.1440  0.00  0.00     0.000 C
ATOM      4  C4  BDP B   1      19.083  31.989  23.8070  0.00  0.00     0.000 C
ATOM      5  C5  BDP B   1      18.676  33.070  22.8100  0.00  0.00     0.000 C
ATOM      6  O5  BDP B   1      18.630  32.574  21.4620  0.00  0.00     0.000 O
ATOM      7   O  BDP B   1      18.460  29.039  22.1820  0.00  0.00     0.000 O
ATOM      9  HD  BDP B   1      17.917  28.396  21.9740  0.00  0.00     0.000 HD
ATOM      9   O  BDP B   1      21.119  31.216  22.8210  0.00  0.00     0.000 O
ATOM     11  HD  BDP B   1      20.577  30.573  22.6130  0.00  0.00     0.000 HD
ATOM     11   O  BDP B   1      17.932  31.545  24.5360  0.00  0.00     0.000 O
ATOM     13  HD  BDP B   1      17.390  30.903  24.3280  0.00  0.00     0.000 HD
ENDROOT
BRANCH 5 13
ATOM     13   C  BDP B   1      19.683  34.162  22.9090  0.00  0.00     0.000 C
ATOM     14   O  BDP B   1      19.429  35.133  23.6530  0.00  0.00     0.000 OA
ATOM     15   O  BDP B   1      20.753  34.062  22.2710  0.00  0.00     0.000 OA
ENDBRANCH 5 13
BRANCH 1 16
ATOM     16  O3  NAG B   2      16.647  31.126  21.1710  0.00  0.00     0.000 O
BRANCH 16 19
ATOM     17  C1  NAG B   2      14.918  27.947  21.5690  0.00  0.00     0.000 C
ATOM     18  C2  NAG B   2      15.474  29.238  22.1700  0.00  0.00     0.000 C
ATOM     19  C3  NAG B   2      15.439  30.363  21.1450  0.00  0.00     0.000 C
ATOM     20  C4  NAG B   2      15.193  29.834  19.7300  0.00  0.00     0.000 C
ATOM     21  C5  NAG B   2      15.834  28.473  19.4220  0.00  0.00     0.000 C
ATOM     22  O5  NAG B   2      15.843  27.582  20.5430  0.00  0.00     0.000 O
ATOM     23   O  NAG B   2      13.780  29.765  19.5100  0.00  0.00     0.000 O
ATOM     25  HD  NAG B   2      13.601  29.464  20.3020  0.00  0.00     0.000 HD
ATOM     25   C  NAG B   2      17.277  28.654  18.9280  0.00  0.00     0.000 C
ATOM     26   O  NAG B   2      17.327  28.908  17.5170  0.00  0.00     0.000 O
ATOM     28  HD  NAG B   2      17.147  28.607  18.3090  0.00  0.00     0.000 HD
BRANCH 18 30
ATOM     28   N  NAG B   2      14.040  29.208  22.4540  0.00  0.00     0.000 N
ATOM     30  HD  NAG B   2      13.284  29.540  22.1910  0.00  0.00     0.000 HD
ATOM     30   C  NAG B   2      13.464  29.716  23.5530  0.00  0.00     0.000 C
ATOM     31   C  NAG B   2      11.972  29.551  23.6190  0.00  0.00     0.000 C
ATOM     32   O  NAG B   2      14.081  30.273  24.4310  0.00  0.00     0.000 OA
ENDBRANCH 18 30
BRANCH 17 33
ATOM     33  O4  BDP B   3      14.789  26.509  21.5300  0.00  0.00     0.000 O
BRANCH 33 37
ATOM     34  C1  BDP B   3      12.784  22.758  21.1400  0.00  0.00     0.000 C
ATOM     35  C2  BDP B   3      13.739  23.157  20.0220  0.00  0.00     0.000 C
ATOM     36  C3  BDP B   3      14.713  24.262  20.4160  0.00  0.00     0.000 C
ATOM     37  C4  BDP B   3      13.951  25.380  21.1430  0.00  0.00     0.000 C
ATOM     38  C5  BDP B   3      13.231  24.737  22.3440  0.00  0.00     0.000 C
ATOM     39  O5  BDP B   3      12.216  23.904  21.7840  0.00  0.00     0.000 O
ATOM     40   O  BDP B   3      14.412  21.960  19.6240  0.00  0.00     0.000 O
ATOM     42  HD  BDP B   3      13.666  21.869  19.1920  0.00  0.00     0.000 HD
ATOM     42   O  BDP B   3      15.315  24.727  19.2090  0.00  0.00     0.000 O
ATOM     44  HD  BDP B   3      14.569  24.637  18.7770  0.00  0.00     0.000 HD
BRANCH 38 44
ATOM     44   C  BDP B   3      12.617  25.717  23.2940  0.00  0.00     0.000 C
ATOM     45   O  BDP B   3      11.520  26.229  22.9780  0.00  0.00     0.000 OA
ATOM     46   O  BDP B   3      13.205  25.996  24.3610  0.00  0.00     0.000 OA
ENDBRANCH 38 44
BRANCH 34 47
ATOM     47  O3  NAG B   4      11.478  22.463  20.6470  0.00  0.00     0.000 O
BRANCH 47 50
ATOM     48  C1  NAG B   4       9.736  19.441  22.0540  0.00  0.00     0.000 C
ATOM     49  C2  NAG B   4      10.780  20.215  21.2680  0.00  0.00     0.000 C
ATOM     50  C3  NAG B   4      10.538  21.710  21.4410  0.00  0.00     0.000 C
ATOM     51  C4  NAG B   4       9.121  22.097  21.0500  0.00  0.00     0.000 C
ATOM     52  C5  NAG B   4       8.117  21.238  21.8200  0.00  0.00     0.000 C
ATOM     53  O5  NAG B   4       8.414  19.846  21.6470  0.00  0.00     0.000 O
ATOM     54   O  NAG B   4       8.921  23.484  21.3340  0.00  0.00     0.000 O
ATOM     56  HD  NAG B   4       8.301  23.154  20.8270  0.00  0.00     0.000 HD
ATOM     56   C  NAG B   4       6.689  21.510  21.3620  0.00  0.00     0.000 C
ATOM     57   O  NAG B   4       6.580  21.206  19.9650  0.00  0.00     0.000 O
ATOM     59  HD  NAG B   4       5.960  20.877  19.4580  0.00  0.00     0.000 HD
BRANCH 49 61
ATOM     59   N  NAG B   4      11.912  19.374  21.6600  0.00  0.00     0.000 N
ATOM     61  HD  NAG B   4      11.353  19.446  21.0030  0.00  0.00     0.000 HD
ATOM     61   O  NAG B   4      12.896  19.279  19.6300  0.00  0.00     0.000 OA
ATOM     62   C  NAG B   4      12.906  19.041  20.8290  0.00  0.00     0.000 C
ATOM     63   C  NAG B   4      14.078  18.360  21.4610  0.00  0.00     0.000 C
ENDBRANCH 49 61
BRANCH 48 64
ATOM     64  O4  BDP B   5       9.749  18.166  22.6890  0.00  0.00     0.000 O
BRANCH 64 68
ATOM     65  C1  BDP B   5       8.310  17.283  26.5000  0.00  0.00     0.000 C
ATOM     66  C2  BDP B   5       9.804  17.563  26.3990  0.00  0.00     0.000 C
ATOM     67  C3  BDP B   5      10.104  18.274  25.0860  0.00  0.00     0.000 C
ATOM     68  C4  BDP B   5       9.587  17.449  23.9120  0.00  0.00     0.000 C
ATOM     69  C5  BDP B   5       8.117  17.084  24.0710  0.00  0.00     0.000 C
ATOM     70  O5  BDP B   5       7.875  16.513  25.3690  0.00  0.00     0.000 O
ATOM     71   O  BDP B   5      10.227  18.338  27.5310  0.00  0.00     0.000 O
ATOM     73  HD  BDP B   5      10.424  18.821  28.2220  0.00  0.00     0.000 HD
ATOM     73   O  BDP B   5      11.514  18.477  24.9350  0.00  0.00     0.000 O
ATOM     75  HD  BDP B   5      11.712  18.961  25.6260  0.00  0.00     0.000 HD
BRANCH 69 75
ATOM     75   C  BDP B   5       7.761  16.079  23.0050  0.00  0.00     0.000 C
ATOM     76   O  BDP B   5       7.103  16.461  22.0160  0.00  0.00     0.000 OA
ATOM     77   O  BDP B   5       8.138  14.899  23.1380  0.00  0.00     0.000 OA
ENDBRANCH 69 75
BRANCH 65 78
ATOM     78  O3  NAG B   6       7.695  16.193  27.1920  0.00  0.00     0.000 O
BRANCH 78 81
ATOM     79  C1  NAG B   6       5.506  15.606  30.2240  0.00  0.00     0.000 C
ATOM     80  C2  NAG B   6       6.800  15.848  29.4320  0.00  0.00     0.000 C
ATOM     81  C3  NAG B   6       6.481  16.118  27.9710  0.00  0.00     0.000 C
ATOM     82  C4  NAG B   6       5.563  15.030  27.4030  0.00  0.00     0.000 C
ATOM     83  C5  NAG B   6       4.320  14.909  28.2770  0.00  0.00     0.000 C
ATOM     84  O5  NAG B   6       4.749  14.558  29.5930  0.00  0.00     0.000 O
BRANCH 80 87
ATOM     85   N  NAG B   6       8.130  15.844  30.0350  0.00  0.00     0.000 N
ATOM     87  HD  NAG B   6       8.981  15.993  29.9730  0.00  0.00     0.000 HD
ATOM     87   C  NAG B   6       8.847  16.948  30.2770  0.00  0.00     0.000 C
ATOM     88   C  NAG B   6      10.173  16.731  30.9340  0.00  0.00     0.000 C
ATOM     89   O  NAG B   6       8.453  18.075  29.9980  0.00  0.00     0.000 OA
ENDBRANCH 80 87
ATOM     90   O  NAG B   6       2.134  14.522  27.3190  0.00  0.00     0.000 O
ATOM     92  HD  NAG B   6       2.577  14.880  27.9710  0.00  0.00     0.000 HD
ATOM     92   O  NAG B   6       2.134  14.522  27.3190  0.00  0.00     0.000 O
ATOM     94  HD  NAG B   6       2.577  14.880  27.9710  0.00  0.00     0.000 HD
ENDBRANCH 78 81
ENDBRANCH 65 78
ENDBRANCH 64 68
ENDBRANCH 48 64
ENDBRANCH 47 50
ENDBRANCH 34 47
ENDBRANCH 33 37
ENDBRANCH 17 33
ENDBRANCH 16 19
ENDBRANCH 1 16
TORSDOF 16
ENDMDL
MODEL 67
REMARK VINA RESULT:      -3.6     10.573     16.881
ROOT
ATOM      1  C1  BDP B   1      32.951  11.306  39.0710  0.00  0.00     0.000 C
ATOM      2  C2  BDP B   1      32.473  10.049  39.7770  0.00  0.00     0.000 C
ATOM      3  C3  BDP B   1      30.980   9.845  39.6280  0.00  0.00     0.000 C
ATOM      4  C4  BDP B   1      30.340  10.703  38.5420  0.00  0.00     0.000 C
ATOM      5  C5  BDP B   1      30.786  12.161  38.6040  0.00  0.00     0.000 C
ATOM      6  O5  BDP B   1      32.003  12.325  39.3520  0.00  0.00     0.000 O
ATOM      7   O  BDP B   1      33.168   8.908  39.2630  0.00  0.00     0.000 O
ATOM      9  HD  BDP B   1      33.894   8.515  39.0020  0.00  0.00     0.000 HD
ATOM      9   O  BDP B   1      30.318  10.144  40.8670  0.00  0.00     0.000 O
ATOM     11  HD  BDP B   1      31.045   9.751  40.6060  0.00  0.00     0.000 HD
ATOM     11   O  BDP B   1      30.627  10.165  37.2460  0.00  0.00     0.000 O
ATOM     13  HD  BDP B   1      31.353   9.772  36.9850  0.00  0.00     0.000 HD
ENDROOT
BRANCH 5 13
ATOM     13   C  BDP B   1      29.689  12.930  39.2560  0.00  0.00     0.000 C
ATOM     14   O  BDP B   1      28.792  13.406  38.5300  0.00  0.00     0.000 OA
ATOM     15   O  BDP B   1      29.687  13.050  40.5000  0.00  0.00     0.000 OA
ENDBRANCH 5 13
BRANCH 1 16
ATOM     16  O3  NAG B   2      33.915  11.477  38.0340  0.00  0.00     0.000 O
BRANCH 16 19
ATOM     17  C1  NAG B   2      33.714  11.885  34.4220  0.00  0.00     0.000 C
ATOM     18  C2  NAG B   2      33.268  12.284  35.8280  0.00  0.00     0.000 C
ATOM     19  C3  NAG B   2      34.395  12.073  36.8280  0.00  0.00     0.000 C
ATOM     20  C4  NAG B   2      35.521  11.217  36.2410  0.00  0.00     0.000 C
ATOM     21  C5  NAG B   2      35.064  10.107  35.2850  0.00  0.00     0.000 C
ATOM     22  O5  NAG B   2      33.934  10.474  34.4850  0.00  0.00     0.000 O
ATOM     23   O  NAG B   2      36.448  12.081  35.5750  0.00  0.00     0.000 O
ATOM     25  HD  NAG B   2      35.836  12.586  35.2280  0.00  0.00     0.000 HD
ATOM     25   C  NAG B   2      34.720   8.830  36.0640  0.00  0.00     0.000 C
ATOM     26   O  NAG B   2      35.884   8.029  36.3120  0.00  0.00     0.000 O
ATOM     28  HD  NAG B   2      35.272   8.534  35.9650  0.00  0.00     0.000 HD
BRANCH 18 30
ATOM     28   N  NAG B   2      33.408  13.462  34.9730  0.00  0.00     0.000 N
ATOM     30  HD  NAG B   2      33.984  13.887  34.4850  0.00  0.00     0.000 HD
ATOM     30   C  NAG B   2      33.382  14.731  35.4040  0.00  0.00     0.000 C
ATOM     31   C  NAG B   2      33.537  15.768  34.3270  0.00  0.00     0.000 C
ATOM     32   O  NAG B   2      33.251  15.038  36.5660  0.00  0.00     0.000 OA
ENDBRANCH 18 30
BRANCH 17 33
ATOM     33  O4  BDP B   3      33.443  11.465  33.0670  0.00  0.00     0.000 O
BRANCH 33 37
ATOM     34  C1  BDP B   3      30.715  11.139  29.7970  0.00  0.00     0.000 C
ATOM     35  C2  BDP B   3      32.201  11.203  29.4610  0.00  0.00     0.000 C
ATOM     36  C3  BDP B   3      33.108  10.893  30.6460  0.00  0.00     0.000 C
ATOM     37  C4  BDP B   3      32.617  11.663  31.8820  0.00  0.00     0.000 C
ATOM     38  C5  BDP B   3      31.146  11.266  32.1130  0.00  0.00     0.000 C
ATOM     39  O5  BDP B   3      30.420  11.825  31.0190  0.00  0.00     0.000 O
ATOM     40   O  BDP B   3      32.404  10.299  28.3730  0.00  0.00     0.000 O
ATOM     42  HD  BDP B   3      32.100  10.988  27.9470  0.00  0.00     0.000 HD
ATOM     42   O  BDP B   3      34.426  11.285  30.2660  0.00  0.00     0.000 O
ATOM     44  HD  BDP B   3      34.122  11.975  29.8400  0.00  0.00     0.000 HD
BRANCH 38 44
ATOM     44   C  BDP B   3      30.570  11.753  33.4060  0.00  0.00     0.000 C
ATOM     45   O  BDP B   3      30.462  12.988  33.5700  0.00  0.00     0.000 OA
ATOM     46   O  BDP B   3      30.216  10.927  34.2750  0.00  0.00     0.000 OA
ENDBRANCH 38 44
BRANCH 34 47
ATOM     47  O3  NAG B   4      29.971  12.151  29.1200  0.00  0.00     0.000 O
BRANCH 47 50
ATOM     48  C1  NAG B   4      26.853  11.299  27.1960  0.00  0.00     0.000 C
ATOM     49  C2  NAG B   4      28.343  11.396  27.4750  0.00  0.00     0.000 C
ATOM     50  C3  NAG B   4      28.561  11.988  28.8620  0.00  0.00     0.000 C
ATOM     51  C4  NAG B   4      27.860  13.328  29.0160  0.00  0.00     0.000 C
ATOM     52  C5  NAG B   4      26.381  13.183  28.6550  0.00  0.00     0.000 C
ATOM     53  O5  NAG B   4      26.238  12.592  27.3570  0.00  0.00     0.000 O
ATOM     54   O  NAG B   4      28.009  13.780  30.3640  0.00  0.00     0.000 O
ATOM     56  HD  NAG B   4      27.730  14.404  29.8320  0.00  0.00     0.000 HD
ATOM     56   C  NAG B   4      25.671  14.532  28.6760  0.00  0.00     0.000 C
ATOM     57   O  NAG B   4      26.296  15.404  27.7240  0.00  0.00     0.000 O
ATOM     59  HD  NAG B   4      26.016  16.028  27.1920  0.00  0.00     0.000 HD
BRANCH 49 61
ATOM     59   N  NAG B   4      28.777  10.058  27.0690  0.00  0.00     0.000 N
ATOM     61  HD  NAG B   4      28.683  10.845  26.7200  0.00  0.00     0.000 HD
ATOM     61   O  NAG B   4      30.554  10.711  25.8370  0.00  0.00     0.000 OA
ATOM     62   C  NAG B   4      29.882   9.828  26.3500  0.00  0.00     0.000 C
ATOM     63   C  NAG B   4      30.280   8.392  26.2170  0.00  0.00     0.000 C
ENDBRANCH 49 61
BRANCH 48 64
ATOM     64  O4  BDP B   5      26.071  10.414  26.4000  0.00  0.00     0.000 O
BRANCH 64 68
ATOM     65  C1  BDP B   5      22.925   8.034  25.0530  0.00  0.00     0.000 C
ATOM     66  C2  BDP B   5      22.691   8.768  26.3670  0.00  0.00     0.000 C
ATOM     67  C3  BDP B   5      23.703   9.897  26.5100  0.00  0.00     0.000 C
ATOM     68  C4  BDP B   5      25.121   9.349  26.3960  0.00  0.00     0.000 C
ATOM     69  C5  BDP B   5      25.319   8.526  25.1290  0.00  0.00     0.000 C
ATOM     70  O5  BDP B   5      24.275   7.546  24.9940  0.00  0.00     0.000 O
ATOM     71   O  BDP B   5      21.342   9.256  26.4130  0.00  0.00     0.000 O
ATOM     73  HD  BDP B   5      20.526   9.545  26.3800  0.00  0.00     0.000 HD
ATOM     73   O  BDP B   5      23.551  10.552  27.7750  0.00  0.00     0.000 O
ATOM     75  HD  BDP B   5      22.735  10.841  27.7430  0.00  0.00     0.000 HD
BRANCH 69 75
ATOM     75   C  BDP B   5      26.653   7.831  25.2190  0.00  0.00     0.000 C
ATOM     76   O  BDP B   5      27.002   7.341  26.3120  0.00  0.00     0.000 OA
ATOM     77   O  BDP B   5      27.367   7.762  24.2010  0.00  0.00     0.000 OA
ENDBRANCH 69 75
BRANCH 65 78
ATOM     78  O3  NAG B   6      22.655   6.654  24.7920  0.00  0.00     0.000 O
BRANCH 78 81
ATOM     79  C1  NAG B   6      20.606   4.889  22.1430  0.00  0.00     0.000 C
ATOM     80  C2  NAG B   6      20.885   5.779  23.3650  0.00  0.00     0.000 C
ATOM     81  C3  NAG B   6      22.383   5.949  23.5620  0.00  0.00     0.000 C
ATOM     82  C4  NAG B   6      23.090   4.589  23.5710  0.00  0.00     0.000 C
ATOM     83  C5  NAG B   6      22.734   3.825  22.3010  0.00  0.00     0.000 C
ATOM     84  O5  NAG B   6      21.317   3.646  22.2860  0.00  0.00     0.000 O
BRANCH 80 87
ATOM     85   N  NAG B   6      20.196   7.053  23.1740  0.00  0.00     0.000 N
ATOM     87  HD  NAG B   6      19.460   7.507  23.1380  0.00  0.00     0.000 HD
ATOM     87   C  NAG B   6      19.506   7.681  24.1330  0.00  0.00     0.000 C
ATOM     88   C  NAG B   6      18.903   8.994  23.7440  0.00  0.00     0.000 C
ATOM     89   O  NAG B   6      19.377   7.234  25.2670  0.00  0.00     0.000 OA
ENDBRANCH 80 87
ATOM     90   O  NAG B   6      24.371   2.483  21.1320  0.00  0.00     0.000 O
ATOM     92  HD  NAG B   6      23.660   2.971  21.0580  0.00  0.00     0.000 HD
ATOM     92   O  NAG B   6      24.371   2.483  21.1320  0.00  0.00     0.000 O
ATOM     94  HD  NAG B   6      23.660   2.971  21.0580  0.00  0.00     0.000 HD
ENDBRANCH 78 81
ENDBRANCH 65 78
ENDBRANCH 64 68
ENDBRANCH 48 64
ENDBRANCH 47 50
ENDBRANCH 34 47
ENDBRANCH 33 37
ENDBRANCH 17 33
ENDBRANCH 16 19
ENDBRANCH 1 16
TORSDOF 16
ENDMDL
MODEL 68
REMARK VINA RESULT:      -3.4      7.762     11.262
ROOT
ATOM      1  C1  BDP B   1      17.801  19.220  39.8440  0.00  0.00     0.000 C
ATOM      2  C2  BDP B   1      16.638  19.758  39.0290  0.00  0.00     0.000 C
ATOM      3  C3  BDP B   1      16.025  20.992  39.6560  0.00  0.00     0.000 C
ATOM      4  C4  BDP B   1      16.888  21.633  40.7370  0.00  0.00     0.000 C
ATOM      5  C5  BDP B   1      17.442  20.616  41.7300  0.00  0.00     0.000 C
ATOM      6  O5  BDP B   1      17.412  19.277  41.2080  0.00  0.00     0.000 O
ATOM      7   O  BDP B   1      17.075  20.061  37.6990  0.00  0.00     0.000 O
ATOM      9  HD  BDP B   1      17.519  19.864  36.9820  0.00  0.00     0.000 HD
ATOM      9   O  BDP B   1      14.758  20.664  40.2470  0.00  0.00     0.000 O
ATOM     11  HD  BDP B   1      15.202  20.466  39.5290  0.00  0.00     0.000 HD
ATOM     11   O  BDP B   1      17.966  22.368  40.1460  0.00  0.00     0.000 O
ATOM     13  HD  BDP B   1      18.410  22.171  39.4290  0.00  0.00     0.000 HD
ENDROOT
BRANCH 5 13
ATOM     13   C  BDP B   1      16.603  20.696  42.9570  0.00  0.00     0.000 C
ATOM     14   O  BDP B   1      15.715  21.573  43.0080  0.00  0.00     0.000 OA
ATOM     15   O  BDP B   1      16.793  19.873  43.8790  0.00  0.00     0.000 OA
ENDBRANCH 5 13
BRANCH 1 16
ATOM     16  O3  NAG B   2      19.165  19.010  39.4860  0.00  0.00     0.000 O
BRANCH 16 19
ATOM     17  C1  NAG B   2      20.282  16.182  37.4830  0.00  0.00     0.000 C
ATOM     18  C2  NAG B   2      19.699  17.593  37.5780  0.00  0.00     0.000 C
ATOM     19  C3  NAG B   2      20.213  18.302  38.8220  0.00  0.00     0.000 C
ATOM     20  C4  NAG B   2      20.877  17.326  39.7980  0.00  0.00     0.000 C
ATOM     21  C5  NAG B   2      20.236  15.933  39.8630  0.00  0.00     0.000 C
ATOM     22  O5  NAG B   2      19.737  15.476  38.6000  0.00  0.00     0.000 O
ATOM     23   O  NAG B   2      22.260  17.208  39.4520  0.00  0.00     0.000 O
ATOM     25  HD  NAG B   2      22.118  17.197  38.5970  0.00  0.00     0.000 HD
ATOM     25   C  NAG B   2      19.085  15.914  40.8800  0.00  0.00     0.000 C
ATOM     26   O  NAG B   2      19.558  15.672  42.2120  0.00  0.00     0.000 O
ATOM     28  HD  NAG B   2      19.416  15.661  41.3580  0.00  0.00     0.000 HD
BRANCH 18 30
ATOM     28   N  NAG B   2      20.801  17.545  36.6180  0.00  0.00     0.000 N
ATOM     30  HD  NAG B   2      21.665  17.527  36.5700  0.00  0.00     0.000 HD
ATOM     30   C  NAG B   2      21.140  18.543  35.7890  0.00  0.00     0.000 C
ATOM     31   C  NAG B   2      22.305  18.246  34.8870  0.00  0.00     0.000 C
ATOM     32   O  NAG B   2      20.569  19.608  35.7590  0.00  0.00     0.000 OA
ENDBRANCH 18 30
BRANCH 17 33
ATOM     33  O4  BDP B   3      20.256  14.819  37.0080  0.00  0.00     0.000 O
BRANCH 33 37
ATOM     34  C1  BDP B   3      19.710  13.007  33.1790  0.00  0.00     0.000 C
ATOM     35  C2  BDP B   3      18.461  13.261  34.0140  0.00  0.00     0.000 C
ATOM     36  C3  BDP B   3      18.673  14.266  35.1410  0.00  0.00     0.000 C
ATOM     37  C4  BDP B   3      19.978  13.936  35.8820  0.00  0.00     0.000 C
ATOM     38  C5  BDP B   3      21.110  13.935  34.8370  0.00  0.00     0.000 C
ATOM     39  O5  BDP B   3      20.864  12.802  34.0030  0.00  0.00     0.000 O
ATOM     40   O  BDP B   3      17.447  13.681  33.0990  0.00  0.00     0.000 O
ATOM     42  HD  BDP B   3      17.410  12.823  32.9870  0.00  0.00     0.000 HD
ATOM     42   O  BDP B   3      17.537  14.167  35.9970  0.00  0.00     0.000 O
ATOM     44  HD  BDP B   3      17.500  13.309  35.8860  0.00  0.00     0.000 HD
BRANCH 38 44
ATOM     44   C  BDP B   3      22.487  13.848  35.4160  0.00  0.00     0.000 C
ATOM     45   O  BDP B   3      22.869  12.740  35.8550  0.00  0.00     0.000 OA
ATOM     46   O  BDP B   3      23.210  14.867  35.4480  0.00  0.00     0.000 OA
ENDBRANCH 38 44
BRANCH 34 47
ATOM     47  O3  NAG B   4      19.822  11.640  32.7880  0.00  0.00     0.000 O
BRANCH 47 50
ATOM     48  C1  NAG B   4      20.652  10.827  29.2100  0.00  0.00     0.000 C
ATOM     49  C2  NAG B   4      19.804  11.303  30.3770  0.00  0.00     0.000 C
ATOM     50  C3  NAG B   4      20.630  11.255  31.6570  0.00  0.00     0.000 C
ATOM     51  C4  NAG B   4      21.212   9.871  31.8960  0.00  0.00     0.000 C
ATOM     52  C5  NAG B   4      21.994   9.417  30.6640  0.00  0.00     0.000 C
ATOM     53  O5  NAG B   4      21.179   9.515  29.4890  0.00  0.00     0.000 O
ATOM     54   O  NAG B   4      22.061   9.914  33.0460  0.00  0.00     0.000 O
ATOM     56  HD  NAG B   4      21.868   9.105  32.8040  0.00  0.00     0.000 HD
ATOM     56   C  NAG B   4      22.487   7.982  30.8180  0.00  0.00     0.000 C
ATOM     57   O  NAG B   4      21.357   7.116  30.9920  0.00  0.00     0.000 O
ATOM     59  HD  NAG B   4      21.164   6.307  30.7500  0.00  0.00     0.000 HD
BRANCH 49 61
ATOM     59   N  NAG B   4      19.215  12.477  29.7320  0.00  0.00     0.000 N
ATOM     61  HD  NAG B   4      19.023  11.643  29.8630  0.00  0.00     0.000 HD
ATOM     61   O  NAG B   4      17.097  12.143  30.4420  0.00  0.00     0.000 OA
ATOM     62   C  NAG B   4      17.933  12.834  29.8800  0.00  0.00     0.000 C
ATOM     63   C  NAG B   4      17.567  14.174  29.3240  0.00  0.00     0.000 C
ENDBRANCH 49 61
BRANCH 48 64
ATOM     64  O4  BDP B   5      20.647  11.133  27.8190  0.00  0.00     0.000 O
BRANCH 64 68
ATOM     65  C1  BDP B   5      23.076   9.309  24.9650  0.00  0.00     0.000 C
ATOM     66  C2  BDP B   5      23.448  10.736  25.3430  0.00  0.00     0.000 C
ATOM     67  C3  BDP B   5      22.777  11.109  26.6590  0.00  0.00     0.000 C
ATOM     68  C4  BDP B   5      21.269  10.910  26.5540  0.00  0.00     0.000 C
ATOM     69  C5  BDP B   5      20.907   9.510  26.0750  0.00  0.00     0.000 C
ATOM     70  O5  BDP B   5      21.648   9.174  24.8890  0.00  0.00     0.000 O
ATOM     71   O  BDP B   5      24.876  10.858  25.4220  0.00  0.00     0.000 O
ATOM     73  HD  BDP B   5      25.740  10.871  25.4760  0.00  0.00     0.000 HD
ATOM     73   O  BDP B   5      23.051  12.475  26.9940  0.00  0.00     0.000 O
ATOM     75  HD  BDP B   5      23.915  12.488  27.0470  0.00  0.00     0.000 HD
BRANCH 69 75
ATOM     75   C  BDP B   5      19.430   9.482  25.7700  0.00  0.00     0.000 C
ATOM     76   O  BDP B   5      19.058   9.652  24.5920  0.00  0.00     0.000 OA
ATOM     77   O  BDP B   5      18.626   9.285  26.7000  0.00  0.00     0.000 OA
ENDBRANCH 69 75
BRANCH 65 78
ATOM     78  O3  NAG B   6      22.970   8.782  23.6400  0.00  0.00     0.000 O
BRANCH 78 81
ATOM     79  C1  NAG B   6      24.197   5.578  22.0380  0.00  0.00     0.000 C
ATOM     80  C2  NAG B   6      24.291   6.960  22.7050  0.00  0.00     0.000 C
ATOM     81  C3  NAG B   6      22.914   7.423  23.1530  0.00  0.00     0.000 C
ATOM     82  C4  NAG B   6      21.904   7.321  22.0050  0.00  0.00     0.000 C
ATOM     83  C5  NAG B   6      21.909   5.900  21.4510  0.00  0.00     0.000 C
ATOM     84  O5  NAG B   6      23.228   5.626  20.9760  0.00  0.00     0.000 O
BRANCH 80 87
ATOM     85   N  NAG B   6      25.300   6.835  23.7530  0.00  0.00     0.000 N
ATOM     87  HD  NAG B   6      26.132   6.792  23.9900  0.00  0.00     0.000 HD
ATOM     87   C  NAG B   6      26.173   7.799  24.0710  0.00  0.00     0.000 C
ATOM     88   C  NAG B   6      27.103   7.486  25.2000  0.00  0.00     0.000 C
ATOM     89   O  NAG B   6      26.213   8.881  23.4970  0.00  0.00     0.000 OA
ENDBRANCH 80 87
ATOM     90   O  NAG B   6      19.867   4.807  20.7560  0.00  0.00     0.000 O
ATOM     92  HD  NAG B   6      20.662   4.700  21.0830  0.00  0.00     0.000 HD
ATOM     92   O  NAG B   6      19.867   4.807  20.7560  0.00  0.00     0.000 O
ATOM     94  HD  NAG B   6      20.662   4.700  21.0830  0.00  0.00     0.000 HD
ENDBRANCH 78 81
ENDBRANCH 65 78
ENDBRANCH 64 68
ENDBRANCH 48 64
ENDBRANCH 47 50
ENDBRANCH 34 47
ENDBRANCH 33 37
ENDBRANCH 17 33
ENDBRANCH 16 19
ENDBRANCH 1 16
TORSDOF 16
ENDMDL
MODEL 69
REMARK VINA RESULT:      -3.3     21.171     29.559
ROOT
ATOM      1  C1  BDP B   1      15.140  15.740  62.8330  0.00  0.00     0.000 C
ATOM      2  C2  BDP B   1      15.560  17.116  63.3190  0.00  0.00     0.000 C
ATOM      3  C3  BDP B   1      16.391  17.853  62.2910  0.00  0.00     0.000 C
ATOM      4  C4  BDP B   1      16.337  17.244  60.8950  0.00  0.00     0.000 C
ATOM      5  C5  BDP B   1      16.522  15.730  60.9030  0.00  0.00     0.000 C
ATOM      6  O5  BDP B   1      16.271  15.161  62.1990  0.00  0.00     0.000 O
ATOM      7   O  BDP B   1      14.402  17.891  63.6470  0.00  0.00     0.000 O
ATOM      9  HD  BDP B   1      13.621  17.973  64.0130  0.00  0.00     0.000 HD
ATOM      9   O  BDP B   1      17.767  17.880  62.7020  0.00  0.00     0.000 O
ATOM     11  HD  BDP B   1      16.987  17.962  63.0680  0.00  0.00     0.000 HD
ATOM     11   O  BDP B   1      15.099  17.576  60.2530  0.00  0.00     0.000 O
ATOM     13  HD  BDP B   1      14.319  17.658  60.6200  0.00  0.00     0.000 HD
ENDROOT
BRANCH 5 13
ATOM     13   C  BDP B   1      17.929  15.456  60.4990  0.00  0.00     0.000 C
ATOM     14   O  BDP B   1      18.175  15.307  59.2840  0.00  0.00     0.000 OA
ATOM     15   O  BDP B   1      18.816  15.411  61.3780  0.00  0.00     0.000 OA
ENDBRANCH 5 13
BRANCH 1 16
ATOM     16  O3  NAG B   2      13.842  15.174  62.6610  0.00  0.00     0.000 O
BRANCH 16 19
ATOM     17  C1  NAG B   2      11.184  15.082  60.1750  0.00  0.00     0.000 C
ATOM     18  C2  NAG B   2      12.669  15.016  60.5310  0.00  0.00     0.000 C
ATOM     19  C3  NAG B   2      12.860  14.441  61.9270  0.00  0.00     0.000 C
ATOM     20  C4  NAG B   2      11.545  14.409  62.7120  0.00  0.00     0.000 C
ATOM     21  C5  NAG B   2      10.596  15.584  62.4400  0.00  0.00     0.000 C
ATOM     22  O5  NAG B   2      10.623  16.035  61.0810  0.00  0.00     0.000 O
ATOM     23   O  NAG B   2      10.880  13.173  62.4340  0.00  0.00     0.000 O
ATOM     25  HD  NAG B   2      11.074  13.177  61.5900  0.00  0.00     0.000 HD
ATOM     25   C  NAG B   2      10.926  16.770  63.3570  0.00  0.00     0.000 C
ATOM     26   O  NAG B   2      10.283  16.649  64.6340  0.00  0.00     0.000 O
ATOM     28  HD  NAG B   2      10.477  16.654  63.7900  0.00  0.00     0.000 HD
BRANCH 18 30
ATOM     28   N  NAG B   2      12.933  13.600  60.2840  0.00  0.00     0.000 N
ATOM     30  HD  NAG B   2      13.529  12.983  60.4080  0.00  0.00     0.000 HD
ATOM     30   C  NAG B   2      13.154  13.059  59.0770  0.00  0.00     0.000 C
ATOM     31   C  NAG B   2      13.390  11.576  59.0820  0.00  0.00     0.000 C
ATOM     32   O  NAG B   2      13.173  13.702  58.0530  0.00  0.00     0.000 OA
ENDBRANCH 18 30
BRANCH 17 33
ATOM     33  O4  BDP B   3      10.074  15.615  59.4200  0.00  0.00     0.000 O
BRANCH 33 37
ATOM     34  C1  BDP B   3       7.321  13.867  56.6620  0.00  0.00     0.000 C
ATOM     35  C2  BDP B   3       8.383  14.799  56.0900  0.00  0.00     0.000 C
ATOM     36  C3  BDP B   3       9.557  15.038  57.0330  0.00  0.00     0.000 C
ATOM     37  C4  BDP B   3       9.028  15.332  58.4450  0.00  0.00     0.000 C
ATOM     38  C5  BDP B   3       8.140  14.142  58.8580  0.00  0.00     0.000 C
ATOM     39  O5  BDP B   3       6.991  14.208  58.0130  0.00  0.00     0.000 O
ATOM     40   O  BDP B   3       8.794  14.222  54.8490  0.00  0.00     0.000 O
ATOM     42  HD  BDP B   3       8.064  14.618  54.6020  0.00  0.00     0.000 HD
ATOM     42   O  BDP B   3      10.291  16.140  56.5010  0.00  0.00     0.000 O
ATOM     44  HD  BDP B   3       9.561  16.535  56.2540  0.00  0.00     0.000 HD
BRANCH 38 44
ATOM     44   C  BDP B   3       7.716  14.155  60.2930  0.00  0.00     0.000 C
ATOM     45   O  BDP B   3       8.216  13.303  61.0590  0.00  0.00     0.000 OA
ATOM     46   O  BDP B   3       6.884  15.003  60.6840  0.00  0.00     0.000 OA
ENDBRANCH 38 44
BRANCH 34 47
ATOM     47  O3  NAG B   4       6.003  14.274  56.3010  0.00  0.00     0.000 O
BRANCH 47 50
ATOM     48  C1  NAG B   4       3.546  11.626  55.2500  0.00  0.00     0.000 C
ATOM     49  C2  NAG B   4       4.765  12.526  55.1430  0.00  0.00     0.000 C
ATOM     50  C3  NAG B   4       4.889  13.364  56.4100  0.00  0.00     0.000 C
ATOM     51  C4  NAG B   4       3.617  14.150  56.6870  0.00  0.00     0.000 C
ATOM     52  C5  NAG B   4       2.417  13.203  56.7130  0.00  0.00     0.000 C
ATOM     53  O5  NAG B   4       2.373  12.419  55.5140  0.00  0.00     0.000 O
ATOM     54   O  NAG B   4       3.752  14.828  57.9390  0.00  0.00     0.000 O
ATOM     56  HD  NAG B   4       3.083  15.120  57.4720  0.00  0.00     0.000 HD
ATOM     56   C  NAG B   4       1.109  13.971  56.8640  0.00  0.00     0.000 C
ATOM     57   O  NAG B   4       0.964  14.869  55.7560  0.00  0.00     0.000 O
ATOM     59  HD  NAG B   4       0.295  15.160  55.2890  0.00  0.00     0.000 HD
BRANCH 49 61
ATOM     59   N  NAG B   4       5.837  11.607  54.7560  0.00  0.00     0.000 N
ATOM     61  HD  NAG B   4       5.234  12.100  54.3760  0.00  0.00     0.000 HD
ATOM     61   O  NAG B   4       6.631  12.828  53.0300  0.00  0.00     0.000 OA
ATOM     62   C  NAG B   4       6.719  11.871  53.7840  0.00  0.00     0.000 C
ATOM     63   C  NAG B   4       7.866  10.917  53.6760  0.00  0.00     0.000 C
ENDBRANCH 49 61
BRANCH 48 64
ATOM     64  O4  BDP B   5       3.234  10.347  54.7060  0.00  0.00     0.000 O
BRANCH 64 68
ATOM     65  C1  BDP B   5       3.839   9.168  50.7540  0.00  0.00     0.000 C
ATOM     66  C2  BDP B   5       2.419   9.583  51.1160  0.00  0.00     0.000 C
ATOM     67  C3  BDP B   5       2.433  10.377  52.4160  0.00  0.00     0.000 C
ATOM     68  C4  BDP B   5       3.101   9.564  53.5200  0.00  0.00     0.000 C
ATOM     69  C5  BDP B   5       4.480   9.063  53.1110  0.00  0.00     0.000 C
ATOM     70  O5  BDP B   5       4.423   8.415  51.8290  0.00  0.00     0.000 O
ATOM     71   O  BDP B   5       1.849  10.340  50.0380  0.00  0.00     0.000 O
ATOM     73  HD  BDP B   5       1.560  10.807  49.3680  0.00  0.00     0.000 HD
ATOM     73   O  BDP B   5       1.099  10.711  52.8160  0.00  0.00     0.000 O
ATOM     75  HD  BDP B   5       0.811  11.178  52.1460  0.00  0.00     0.000 HD
BRANCH 69 75
ATOM     75   C  BDP B   5       4.954   8.081  54.1510  0.00  0.00     0.000 C
ATOM     76   O  BDP B   5       5.763   8.469  55.0190  0.00  0.00     0.000 OA
ATOM     77   O  BDP B   5       4.524   6.913  54.1190  0.00  0.00     0.000 OA
ENDBRANCH 69 75
BRANCH 65 78
ATOM     78  O3  NAG B   6       4.222   7.998  50.0270  0.00  0.00     0.000 O
BRANCH 78 81
ATOM     79  C1  NAG B   6       7.328   6.500  48.4640  0.00  0.00     0.000 C
ATOM     80  C2  NAG B   6       6.086   7.398  48.5760  0.00  0.00     0.000 C
ATOM     81  C3  NAG B   6       5.473   7.279  49.9620  0.00  0.00     0.000 C
ATOM     82  C4  NAG B   6       5.252   5.810  50.3370  0.00  0.00     0.000 C
ATOM     83  C5  NAG B   6       6.564   5.047  50.1930  0.00  0.00     0.000 C
ATOM     84  O5  NAG B   6       6.978   5.153  48.8300  0.00  0.00     0.000 O
BRANCH 80 87
ATOM     85   N  NAG B   6       5.502   8.274  47.5640  0.00  0.00     0.000 N
ATOM     87  HD  NAG B   6       4.988   8.938  47.3560  0.00  0.00     0.000 HD
ATOM     87   C  NAG B   6       5.758   9.584  47.4710  0.00  0.00     0.000 C
ATOM     88   C  NAG B   6       5.086  10.297  46.3400  0.00  0.00     0.000 C
ATOM     89   O  NAG B   6       6.502  10.177  48.2420  0.00  0.00     0.000 OA
ENDBRANCH 80 87
ATOM     90   O  NAG B   6       7.207   3.329  51.7680  0.00  0.00     0.000 O
ATOM     92  HD  NAG B   6       7.485   3.943  51.2240  0.00  0.00     0.000 HD
ATOM     92   O  NAG B   6       7.207   3.329  51.7680  0.00  0.00     0.000 O
ATOM     94  HD  NAG B   6       7.485   3.943  51.2240  0.00  0.00     0.000 HD
ENDBRANCH 78 81
ENDBRANCH 65 78
ENDBRANCH 64 68
ENDBRANCH 48 64
ENDBRANCH 47 50
ENDBRANCH 34 47
ENDBRANCH 33 37
ENDBRANCH 17 33
ENDBRANCH 16 19
ENDBRANCH 1 16
TORSDOF 16
ENDMDL
MODEL 70
REMARK VINA RESULT:      -3.2     10.680     15.588
ROOT
ATOM      1  C1  BDP B   1      21.792  21.076  40.5600  0.00  0.00     0.000 C
ATOM      2  C2  BDP B   1      22.113  21.369  42.0150  0.00  0.00     0.000 C
ATOM      3  C3  BDP B   1      21.404  22.609  42.5170  0.00  0.00     0.000 C
ATOM      4  C4  BDP B   1      20.275  23.087  41.6120  0.00  0.00     0.000 C
ATOM      5  C5  BDP B   1      20.674  23.128  40.1400  0.00  0.00     0.000 C
ATOM      6  O5  BDP B   1      21.829  22.316  39.8690  0.00  0.00     0.000 O
ATOM      7   O  BDP B   1      21.754  20.247  42.8290  0.00  0.00     0.000 O
ATOM      9  HD  BDP B   1      21.731  19.394  42.9800  0.00  0.00     0.000 HD
ATOM      9   O  BDP B   1      22.342  23.688  42.6520  0.00  0.00     0.000 O
ATOM     11  HD  BDP B   1      22.319  22.836  42.8030  0.00  0.00     0.000 HD
ATOM     11   O  BDP B   1      19.117  22.258  41.7770  0.00  0.00     0.000 O
ATOM     13  HD  BDP B   1      19.095  21.406  41.9280  0.00  0.00     0.000 HD
ENDROOT
BRANCH 5 13
ATOM     13   C  BDP B   1      20.967  24.547  39.8020  0.00  0.00     0.000 C
ATOM     14   O  BDP B   1      21.370  24.807  38.6490  0.00  0.00     0.000 OA
ATOM     15   O  BDP B   1      20.777  25.430  40.6660  0.00  0.00     0.000 OA
ENDBRANCH 5 13
BRANCH 1 16
ATOM     16  O3  NAG B   2      21.210  19.924  39.9530  0.00  0.00     0.000 O
BRANCH 16 19
ATOM     17  C1  NAG B   2      19.666  19.208  36.7350  0.00  0.00     0.000 C
ATOM     18  C2  NAG B   2      20.814  19.800  37.5530  0.00  0.00     0.000 C
ATOM     19  C3  NAG B   2      20.992  19.036  38.8560  0.00  0.00     0.000 C
ATOM     20  C4  NAG B   2      19.792  18.132  39.1530  0.00  0.00     0.000 C
ATOM     21  C5  NAG B   2      18.431  18.694  38.7200  0.00  0.00     0.000 C
ATOM     22  O5  NAG B   2      18.489  19.456  37.5080  0.00  0.00     0.000 O
ATOM     23   O  NAG B   2      20.013  16.863  38.5290  0.00  0.00     0.000 O
ATOM     25  HD  NAG B   2      20.346  17.199  37.8040  0.00  0.00     0.000 HD
ATOM     25   C  NAG B   2      17.833  19.577  39.8250  0.00  0.00     0.000 C
ATOM     26   O  NAG B   2      17.115  18.801  40.7940  0.00  0.00     0.000 O
ATOM     28  HD  NAG B   2      17.448  19.136  40.0680  0.00  0.00     0.000 HD
BRANCH 18 30
ATOM     28   N  NAG B   2      22.125  19.820  36.9040  0.00  0.00     0.000 N
ATOM     30  HD  NAG B   2      22.572  20.220  36.2800  0.00  0.00     0.000 HD
ATOM     30   C  NAG B   2      22.611  18.844  36.1240  0.00  0.00     0.000 C
ATOM     31   C  NAG B   2      23.989  19.095  35.5820  0.00  0.00     0.000 C
ATOM     32   O  NAG B   2      21.999  17.835  35.8610  0.00  0.00     0.000 OA
ENDBRANCH 18 30
BRANCH 17 33
ATOM     33  O4  BDP B   3      18.640  19.299  35.7220  0.00  0.00     0.000 O
BRANCH 33 37
ATOM     34  C1  BDP B   3      17.063  19.065  31.7600  0.00  0.00     0.000 C
ATOM     35  C2  BDP B   3      18.428  18.433  32.0050  0.00  0.00     0.000 C
ATOM     36  C3  BDP B   3      18.728  18.179  33.4780  0.00  0.00     0.000 C
ATOM     37  C4  BDP B   3      18.355  19.423  34.2980  0.00  0.00     0.000 C
ATOM     38  C5  BDP B   3      16.871  19.730  34.0160  0.00  0.00     0.000 C
ATOM     39  O5  BDP B   3      16.818  20.157  32.6540  0.00  0.00     0.000 O
ATOM     40   O  BDP B   3      18.456  17.231  31.2320  0.00  0.00     0.000 O
ATOM     42  HD  BDP B   3      18.642  17.813  30.6190  0.00  0.00     0.000 HD
ATOM     42   O  BDP B   3      20.120  17.882  33.5670  0.00  0.00     0.000 O
ATOM     44  HD  BDP B   3      20.306  18.465  32.9540  0.00  0.00     0.000 HD
BRANCH 38 44
ATOM     44   C  BDP B   3      16.277  20.781  34.9000  0.00  0.00     0.000 C
ATOM     45   O  BDP B   3      16.583  21.974  34.6780  0.00  0.00     0.000 OA
ATOM     46   O  BDP B   3      15.504  20.447  35.8240  0.00  0.00     0.000 OA
ENDBRANCH 38 44
BRANCH 34 47
ATOM     47  O3  NAG B   4      17.100  20.020  30.7010  0.00  0.00     0.000 O
BRANCH 47 50
ATOM     48  C1  NAG B   4      14.309  20.005  28.1790  0.00  0.00     0.000 C
ATOM     49  C2  NAG B   4      15.545  19.499  28.9010  0.00  0.00     0.000 C
ATOM     50  C3  NAG B   4      15.888  20.447  30.0440  0.00  0.00     0.000 C
ATOM     51  C4  NAG B   4      16.053  21.877  29.5550  0.00  0.00     0.000 C
ATOM     52  C5  NAG B   4      14.809  22.306  28.7770  0.00  0.00     0.000 C
ATOM     53  O5  NAG B   4      14.517  21.362  27.7400  0.00  0.00     0.000 O
ATOM     54   O  NAG B   4      16.265  22.733  30.6800  0.00  0.00     0.000 O
ATOM     56  HD  NAG B   4      16.455  23.118  29.9280  0.00  0.00     0.000 HD
ATOM     56   C  NAG B   4      14.989  23.690  28.1640  0.00  0.00     0.000 C
ATOM     57   O  NAG B   4      16.107  23.663  27.2670  0.00  0.00     0.000 O
ATOM     59  HD  NAG B   4      16.297  24.048  26.5150  0.00  0.00     0.000 HD
BRANCH 49 61
ATOM     59   N  NAG B   4      15.170  18.088  29.0020  0.00  0.00     0.000 N
ATOM     61  HD  NAG B   4      15.616  18.605  28.4690  0.00  0.00     0.000 HD
ATOM     61   O  NAG B   4      17.164  17.231  28.3780  0.00  0.00     0.000 OA
ATOM     62   C  NAG B   4      16.028  17.081  28.8040  0.00  0.00     0.000 C
ATOM     63   C  NAG B   4      15.521  15.719  29.1600  0.00  0.00     0.000 C
ENDBRANCH 49 61
BRANCH 48 64
ATOM     64  O4  BDP B   5      13.268  19.349  27.4610  0.00  0.00     0.000 O
BRANCH 64 68
ATOM     65  C1  BDP B   5       9.687  17.903  25.8950  0.00  0.00     0.000 C
ATOM     66  C2  BDP B   5      10.062  19.324  25.4990  0.00  0.00     0.000 C
ATOM     67  C3  BDP B   5      11.543  19.558  25.7690  0.00  0.00     0.000 C
ATOM     68  C4  BDP B   5      11.863  19.258  27.2290  0.00  0.00     0.000 C
ATOM     69  C5  BDP B   5      11.391  17.872  27.6480  0.00  0.00     0.000 C
ATOM     70  O5  BDP B   5      10.016  17.671  27.2740  0.00  0.00     0.000 O
ATOM     71   O  BDP B   5       9.733  19.543  24.1190  0.00  0.00     0.000 O
ATOM     73  HD  BDP B   5       9.535  19.614  23.2790  0.00  0.00     0.000 HD
ATOM     73   O  BDP B   5      11.900  20.914  25.4760  0.00  0.00     0.000 O
ATOM     75  HD  BDP B   5      11.701  20.985  24.6360  0.00  0.00     0.000 HD
BRANCH 69 75
ATOM     75   C  BDP B   5      11.526  17.758  29.1460  0.00  0.00     0.000 C
ATOM     76   O  BDP B   5      12.330  16.926  29.6130  0.00  0.00     0.000 OA
ATOM     77   O  BDP B   5      10.837  18.498  29.8720  0.00  0.00     0.000 OA
ENDBRANCH 69 75
BRANCH 65 78
ATOM     78  O3  NAG B   6       8.409  17.461  26.3620  0.00  0.00     0.000 O
BRANCH 78 81
ATOM     79  C1  NAG B   6       6.310  14.319  26.1160  0.00  0.00     0.000 C
ATOM     80  C2  NAG B   6       6.950  15.640  25.6590  0.00  0.00     0.000 C
ATOM     81  C3  NAG B   6       7.921  16.147  26.7130  0.00  0.00     0.000 C
ATOM     82  C4  NAG B   6       7.256  16.188  28.0930  0.00  0.00     0.000 C
ATOM     83  C5  NAG B   6       6.681  14.815  28.4190  0.00  0.00     0.000 C
ATOM     84  O5  NAG B   6       5.716  14.501  27.4140  0.00  0.00     0.000 O
BRANCH 80 87
ATOM     85   N  NAG B   6       6.674  16.290  24.3810  0.00  0.00     0.000 N
ATOM     87  HD  NAG B   6       6.865  16.897  23.7940  0.00  0.00     0.000 HD
ATOM     87   C  NAG B   6       7.508  16.266  23.3340  0.00  0.00     0.000 C
ATOM     88   C  NAG B   6       7.023  16.964  22.1030  0.00  0.00     0.000 C
ATOM     89   O  NAG B   6       8.595  15.702  23.3570  0.00  0.00     0.000 OA
ENDBRANCH 80 87
ATOM     90   O  NAG B   6       6.790  13.895  30.6530  0.00  0.00     0.000 O
ATOM     92  HD  NAG B   6       6.775  13.719  29.8050  0.00  0.00     0.000 HD
ATOM     92   O  NAG B   6       6.790  13.895  30.6530  0.00  0.00     0.000 O
ATOM     94  HD  NAG B   6       6.775  13.719  29.8050  0.00  0.00     0.000 HD
ENDBRANCH 78 81
ENDBRANCH 65 78
ENDBRANCH 64 68
ENDBRANCH 48 64
ENDBRANCH 47 50
ENDBRANCH 34 47
ENDBRANCH 33 37
ENDBRANCH 17 33
ENDBRANCH 16 19
ENDBRANCH 1 16
TORSDOF 16
ENDMDL
MODEL 71
REMARK VINA RESULT:      -3.2     13.648     21.915
ROOT
ATOM      1  C1  BDP B   1      27.959  17.345  47.4240  0.00  0.00     0.000 C
ATOM      2  C2  BDP B   1      26.933  18.443  47.2050  0.00  0.00     0.000 C
ATOM      3  C3  BDP B   1      27.104  19.123  45.8630  0.00  0.00     0.000 C
ATOM      4  C4  BDP B   1      27.998  18.362  44.8900  0.00  0.00     0.000 C
ATOM      5  C5  BDP B   1      29.293  17.879  45.5340  0.00  0.00     0.000 C
ATOM      6  O5  BDP B   1      29.207  17.847  46.9680  0.00  0.00     0.000 O
ATOM      7   O  BDP B   1      25.612  17.901  47.3050  0.00  0.00     0.000 O
ATOM      9  HD  BDP B   1      25.025  17.397  47.6940  0.00  0.00     0.000 HD
ATOM      9   O  BDP B   1      27.670  20.430  46.0440  0.00  0.00     0.000 O
ATOM     11  HD  BDP B   1      27.083  19.926  46.4330  0.00  0.00     0.000 HD
ATOM     11   O  BDP B   1      27.292  17.249  44.3290  0.00  0.00     0.000 O
ATOM     13  HD  BDP B   1      26.705  16.744  44.7180  0.00  0.00     0.000 HD
ENDROOT
BRANCH 5 13
ATOM     13   C  BDP B   1      30.370  18.818  45.1160  0.00  0.00     0.000 C
ATOM     14   O  BDP B   1      30.092  19.696  44.2730  0.00  0.00     0.000 OA
ATOM     15   O  BDP B   1      31.501  18.717  45.6370  0.00  0.00     0.000 OA
ENDBRANCH 5 13
BRANCH 1 16
ATOM     16  O3  NAG B   2      27.786  15.953  47.6800  0.00  0.00     0.000 O
BRANCH 16 19
ATOM     17  C1  NAG B   2      25.652  13.110  46.8940  0.00  0.00     0.000 C
ATOM     18  C2  NAG B   2      26.366  14.391  46.4630  0.00  0.00     0.000 C
ATOM     19  C3  NAG B   2      27.639  14.592  47.2710  0.00  0.00     0.000 C
ATOM     20  C4  NAG B   2      27.683  13.677  48.4980  0.00  0.00     0.000 C
ATOM     21  C5  NAG B   2      26.326  13.422  49.1690  0.00  0.00     0.000 C
ATOM     22  O5  NAG B   2      25.237  13.347  48.2420  0.00  0.00     0.000 O
ATOM     23   O  NAG B   2      28.276  12.432  48.1150  0.00  0.00     0.000 O
ATOM     25  HD  NAG B   2      27.869  12.392  47.3520  0.00  0.00     0.000 HD
ATOM     25   C  NAG B   2      26.018  14.517  50.1990  0.00  0.00     0.000 C
ATOM     26   O  NAG B   2      26.613  14.231  51.4730  0.00  0.00     0.000 O
ATOM     28  HD  NAG B   2      26.206  14.191  50.7100  0.00  0.00     0.000 HD
BRANCH 18 30
ATOM     28   N  NAG B   2      26.478  13.356  45.4360  0.00  0.00     0.000 N
ATOM     30  HD  NAG B   2      26.793  12.561  45.2990  0.00  0.00     0.000 HD
ATOM     30   C  NAG B   2      27.230  13.450  44.3300  0.00  0.00     0.000 C
ATOM     31   C  NAG B   2      27.169  12.255  43.4220  0.00  0.00     0.000 C
ATOM     32   O  NAG B   2      27.916  14.411  44.0710  0.00  0.00     0.000 OA
ENDBRANCH 18 30
BRANCH 17 33
ATOM     33  O4  BDP B   3      24.475  12.281  47.0100  0.00  0.00     0.000 O
BRANCH 33 37
ATOM     34  C1  BDP B   3      21.506   9.487  45.7360  0.00  0.00     0.000 C
ATOM     35  C2  BDP B   3      22.480   9.026  46.8150  0.00  0.00     0.000 C
ATOM     36  C3  BDP B   3      23.211  10.171  47.5070  0.00  0.00     0.000 C
ATOM     37  C4  BDP B   3      23.724  11.163  46.4520  0.00  0.00     0.000 C
ATOM     38  C5  BDP B   3      22.508  11.620  45.6240  0.00  0.00     0.000 C
ATOM     39  O5  BDP B   3      22.094  10.474  44.8810  0.00  0.00     0.000 O
ATOM     40   O  BDP B   3      21.717   8.239  47.7310  0.00  0.00     0.000 O
ATOM     42  HD  BDP B   3      21.860   7.655  47.1070  0.00  0.00     0.000 HD
ATOM     42   O  BDP B   3      24.279   9.586  48.2490  0.00  0.00     0.000 O
ATOM     44  HD  BDP B   3      24.422   9.002  47.6250  0.00  0.00     0.000 HD
BRANCH 38 44
ATOM     44   C  BDP B   3      22.786  12.757  44.6900  0.00  0.00     0.000 C
ATOM     45   O  BDP B   3      23.725  12.626  43.8740  0.00  0.00     0.000 OA
ATOM     46   O  BDP B   3      22.087  13.791  44.7490  0.00  0.00     0.000 OA
ENDBRANCH 38 44
BRANCH 34 47
ATOM     47  O3  NAG B   4      21.498   8.607  44.6140  0.00  0.00     0.000 O
BRANCH 47 50
ATOM     48  C1  NAG B   4      18.362   6.958  43.3490  0.00  0.00     0.000 C
ATOM     49  C2  NAG B   4      19.572   7.164  44.2440  0.00  0.00     0.000 C
ATOM     50  C3  NAG B   4      20.307   8.429  43.8190  0.00  0.00     0.000 C
ATOM     51  C4  NAG B   4      20.682   8.390  42.3460  0.00  0.00     0.000 C
ATOM     52  C5  NAG B   4      19.438   8.111  41.5010  0.00  0.00     0.000 C
ATOM     53  O5  NAG B   4      18.772   6.931  41.9680  0.00  0.00     0.000 O
ATOM     54   O  NAG B   4      21.268   9.642  41.9810  0.00  0.00     0.000 O
ATOM     56  HD  NAG B   4      21.398   9.027  41.3850  0.00  0.00     0.000 HD
ATOM     56   C  NAG B   4      19.795   7.940  40.0290  0.00  0.00     0.000 C
ATOM     57   O  NAG B   4      20.703   6.839  39.8930  0.00  0.00     0.000 O
ATOM     59  HD  NAG B   4      20.832   6.224  39.2970  0.00  0.00     0.000 HD
BRANCH 49 61
ATOM     59   N  NAG B   4      18.934   6.910  45.5370  0.00  0.00     0.000 N
ATOM     61  HD  NAG B   4      19.372   6.472  44.9310  0.00  0.00     0.000 HD
ATOM     61   O  NAG B   4      20.552   5.580  46.3820  0.00  0.00     0.000 OA
ATOM     62   C  NAG B   4      19.509   6.203  46.5170  0.00  0.00     0.000 C
ATOM     63   C  NAG B   4      18.803   6.231  47.8350  0.00  0.00     0.000 C
ENDBRANCH 49 61
BRANCH 48 64
ATOM     64  O4  BDP B   5      17.095   6.342  43.5580  0.00  0.00     0.000 O
BRANCH 64 68
ATOM     65  C1  BDP B   5      15.430   3.091  45.5670  0.00  0.00     0.000 C
ATOM     66  C2  BDP B   5      16.542   2.766  44.5780  0.00  0.00     0.000 C
ATOM     67  C3  BDP B   5      17.328   4.030  44.2570  0.00  0.00     0.000 C
ATOM     68  C4  BDP B   5      16.389   5.115  43.7400  0.00  0.00     0.000 C
ATOM     69  C5  BDP B   5      15.220   5.362  44.6850  0.00  0.00     0.000 C
ATOM     70  O5  BDP B   5      14.582   4.121  45.0350  0.00  0.00     0.000 O
ATOM     71   O  BDP B   5      17.386   1.740  45.1220  0.00  0.00     0.000 O
ATOM     73  HD  BDP B   5      17.874   1.135  45.5050  0.00  0.00     0.000 HD
ATOM     73   O  BDP B   5      18.330   3.762  43.2690  0.00  0.00     0.000 O
ATOM     75  HD  BDP B   5      18.818   3.158  43.6520  0.00  0.00     0.000 HD
BRANCH 69 75
ATOM     75   C  BDP B   5      14.229   6.259  43.9880  0.00  0.00     0.000 C
ATOM     76   O  BDP B   5      13.713   5.868  42.9210  0.00  0.00     0.000 OA
ATOM     77   O  BDP B   5      13.950   7.360  44.4970  0.00  0.00     0.000 OA
ENDBRANCH 69 75
BRANCH 65 78
ATOM     78  O3  NAG B   6      14.170   2.425  45.6770  0.00  0.00     0.000 O
BRANCH 78 81
ATOM     79  C1  NAG B   6      12.259   1.014  48.6250  0.00  0.00     0.000 C
ATOM     80  C2  NAG B   6      13.392   1.137  47.5930  0.00  0.00     0.000 C
ATOM     81  C3  NAG B   6      13.199   2.384  46.7450  0.00  0.00     0.000 C
ATOM     82  C4  NAG B   6      11.781   2.436  46.1670  0.00  0.00     0.000 C
ATOM     83  C5  NAG B   6      10.767   2.317  47.2990  0.00  0.00     0.000 C
ATOM     84  O5  NAG B   6      10.990   1.065  47.9490  0.00  0.00     0.000 O
BRANCH 80 87
ATOM     85   N  NAG B   6      14.634   1.048  48.3550  0.00  0.00     0.000 N
ATOM     87  HD  NAG B   6      15.224   0.569  48.7720  0.00  0.00     0.000 HD
ATOM     87   C  NAG B   6      15.743   0.441  47.9130  0.00  0.00     0.000 C
ATOM     88   C  NAG B   6      16.921   0.491  48.8330  0.00  0.00     0.000 C
ATOM     89   O  NAG B   6      15.812  -0.111  46.8210  0.00  0.00     0.000 OA
ENDBRANCH 80 87
ATOM     90   O  NAG B   6       8.717   3.600  47.3000  0.00  0.00     0.000 O
ATOM     92  HD  NAG B   6       9.328   3.225  47.7860  0.00  0.00     0.000 HD
ATOM     92   O  NAG B   6       8.717   3.600  47.3000  0.00  0.00     0.000 O
ATOM     94  HD  NAG B   6       9.328   3.225  47.7860  0.00  0.00     0.000 HD
ENDBRANCH 78 81
ENDBRANCH 65 78
ENDBRANCH 64 68
ENDBRANCH 48 64
ENDBRANCH 47 50
ENDBRANCH 34 47
ENDBRANCH 33 37
ENDBRANCH 17 33
ENDBRANCH 16 19
ENDBRANCH 1 16
TORSDOF 16
ENDMDL
MODEL 72
REMARK VINA RESULT:      -3.2     22.552     29.678
ROOT
ATOM      1  C1  BDP B   1      15.810  15.828  63.1250  0.00  0.00     0.000 C
ATOM      2  C2  BDP B   1      16.113  17.218  63.6540  0.00  0.00     0.000 C
ATOM      3  C3  BDP B   1      16.971  18.018  62.6960  0.00  0.00     0.000 C
ATOM      4  C4  BDP B   1      17.052  17.427  61.2930  0.00  0.00     0.000 C
ATOM      5  C5  BDP B   1      17.326  15.926  61.3000  0.00  0.00     0.000 C
ATOM      6  O5  BDP B   1      17.015  15.324  62.5680  0.00  0.00     0.000 O
ATOM      7   O  BDP B   1      14.891  17.920  63.9050  0.00  0.00     0.000 O
ATOM      9  HD  BDP B   1      14.083  17.952  64.2150  0.00  0.00     0.000 HD
ATOM      9   O  BDP B   1      18.310  18.118  63.2060  0.00  0.00     0.000 O
ATOM     11  HD  BDP B   1      17.502  18.149  63.5160  0.00  0.00     0.000 HD
ATOM     11   O  BDP B   1      15.847  17.696  60.5670  0.00  0.00     0.000 O
ATOM     13  HD  BDP B   1      15.039  17.727  60.8770  0.00  0.00     0.000 HD
ENDROOT
BRANCH 5 13
ATOM     13   C  BDP B   1      18.771  15.740  60.9960  0.00  0.00     0.000 C
ATOM     14   O  BDP B   1      19.460  15.072  61.7950  0.00  0.00     0.000 OA
ATOM     15   O  BDP B   1      19.240  16.231  59.9470  0.00  0.00     0.000 OA
ENDBRANCH 5 13
BRANCH 1 16
ATOM     16  O3  NAG B   2      14.563  15.190  62.8530  0.00  0.00     0.000 O
BRANCH 16 19
ATOM     17  C1  NAG B   2      12.498  14.701  59.8950  0.00  0.00     0.000 C
ATOM     18  C2  NAG B   2      13.862  14.647  60.5840  0.00  0.00     0.000 C
ATOM     19  C3  NAG B   2      13.699  14.365  62.0700  0.00  0.00     0.000 C
ATOM     20  C4  NAG B   2      12.251  14.553  62.5280  0.00  0.00     0.000 C
ATOM     21  C5  NAG B   2      11.487  15.686  61.8280  0.00  0.00     0.000 C
ATOM     22  O5  NAG B   2      11.843  15.844  60.4500  0.00  0.00     0.000 O
ATOM     23   O  NAG B   2      11.553  13.316  62.3500  0.00  0.00     0.000 O
ATOM     25  HD  NAG B   2      11.922  13.137  61.5870  0.00  0.00     0.000 HD
ATOM     25   C  NAG B   2      11.718  17.021  62.5510  0.00  0.00     0.000 C
ATOM     26   O  NAG B   2      10.810  17.194  63.6480  0.00  0.00     0.000 O
ATOM     28  HD  NAG B   2      11.179  17.016  62.8850  0.00  0.00     0.000 HD
BRANCH 18 30
ATOM     28   N  NAG B   2      14.089  13.206  60.6910  0.00  0.00     0.000 N
ATOM     30  HD  NAG B   2      14.626  12.624  61.0410  0.00  0.00     0.000 HD
ATOM     30   C  NAG B   2      14.471  12.412  59.6800  0.00  0.00     0.000 C
ATOM     31   C  NAG B   2      14.628  10.962  60.0410  0.00  0.00     0.000 C
ATOM     32   O  NAG B   2      14.684  12.815  58.5600  0.00  0.00     0.000 OA
ENDBRANCH 18 30
BRANCH 17 33
ATOM     33  O4  BDP B   3      11.626  15.114  58.8200  0.00  0.00     0.000 O
BRANCH 33 37
ATOM     34  C1  BDP B   3       9.105  13.175  55.9690  0.00  0.00     0.000 C
ATOM     35  C2  BDP B   3      10.608  13.120  55.7220  0.00  0.00     0.000 C
ATOM     36  C3  BDP B   3      11.442  13.444  56.9560  0.00  0.00     0.000 C
ATOM     37  C4  BDP B   3      10.873  14.694  57.6450  0.00  0.00     0.000 C
ATOM     38  C5  BDP B   3       9.392  14.408  57.9600  0.00  0.00     0.000 C
ATOM     39  O5  BDP B   3       8.733  14.352  56.6950  0.00  0.00     0.000 O
ATOM     40   O  BDP B   3      10.882  11.813  55.2130  0.00  0.00     0.000 O
ATOM     42  HD  BDP B   3      10.601  12.204  54.4930  0.00  0.00     0.000 HD
ATOM     42   O  BDP B   3      12.780  13.649  56.5050  0.00  0.00     0.000 O
ATOM     44  HD  BDP B   3      12.500  14.041  55.7840  0.00  0.00     0.000 HD
BRANCH 38 44
ATOM     44   C  BDP B   3       8.736  15.435  58.8290  0.00  0.00     0.000 C
ATOM     45   O  BDP B   3       8.497  16.557  58.3320  0.00  0.00     0.000 OA
ATOM     46   O  BDP B   3       8.447  15.150  60.0120  0.00  0.00     0.000 OA
ENDBRANCH 38 44
BRANCH 34 47
ATOM     47  O3  NAG B   4       8.401  13.715  54.8520  0.00  0.00     0.000 O
BRANCH 47 50
ATOM     48  C1  NAG B   4       5.171  12.075  53.8390  0.00  0.00     0.000 C
ATOM     49  C2  NAG B   4       6.671  12.210  54.0340  0.00  0.00     0.000 C
ATOM     50  C3  NAG B   4       6.976  13.538  54.7180  0.00  0.00     0.000 C
ATOM     51  C4  NAG B   4       6.388  14.711  53.9490  0.00  0.00     0.000 C
ATOM     52  C5  NAG B   4       4.893  14.486  53.7230  0.00  0.00     0.000 C
ATOM     53  O5  NAG B   4       4.667  13.211  53.1090  0.00  0.00     0.000 O
ATOM     54   O  NAG B   4       6.612  15.912  54.6920  0.00  0.00     0.000 O
ATOM     56  HD  NAG B   4       6.369  16.065  53.8750  0.00  0.00     0.000 HD
ATOM     56   C  NAG B   4       4.296  15.582  52.8470  0.00  0.00     0.000 C
ATOM     57   O  NAG B   4       4.961  15.580  51.5770  0.00  0.00     0.000 O
ATOM     59  HD  NAG B   4       4.717  15.733  50.7600  0.00  0.00     0.000 HD
BRANCH 49 61
ATOM     59   N  NAG B   4       7.048  10.945  54.6670  0.00  0.00     0.000 N
ATOM     61  HD  NAG B   4       6.956  11.271  53.8700  0.00  0.00     0.000 HD
ATOM     61   O  NAG B   4       8.772  10.457  53.2930  0.00  0.00     0.000 OA
ATOM     62   C  NAG B   4       8.106  10.218  54.2900  0.00  0.00     0.000 C
ATOM     63   C  NAG B   4       8.459   9.075  55.1870  0.00  0.00     0.000 C
ENDBRANCH 49 61
BRANCH 48 64
ATOM     64  O4  BDP B   5       4.297  10.952  53.7780  0.00  0.00     0.000 O
BRANCH 64 68
ATOM     65  C1  BDP B   5       4.980   7.451  51.6220  0.00  0.00     0.000 C
ATOM     66  C2  BDP B   5       4.049   8.465  50.9700  0.00  0.00     0.000 C
ATOM     67  C3  BDP B   5       4.230   9.825  51.6310  0.00  0.00     0.000 C
ATOM     68  C4  BDP B   5       4.005   9.712  53.1340  0.00  0.00     0.000 C
ATOM     69  C5  BDP B   5       4.863   8.623  53.7640  0.00  0.00     0.000 C
ATOM     70  O5  BDP B   5       4.731   7.390  53.0350  0.00  0.00     0.000 O
ATOM     71   O  BDP B   5       4.310   8.521  49.5590  0.00  0.00     0.000 O
ATOM     73  HD  BDP B   5       4.522   8.530  48.7190  0.00  0.00     0.000 HD
ATOM     73   O  BDP B   5       3.309  10.776  51.0850  0.00  0.00     0.000 O
ATOM     75  HD  BDP B   5       3.520  10.785  50.2450  0.00  0.00     0.000 HD
BRANCH 69 75
ATOM     75   C  BDP B   5       4.403   8.419  55.1850  0.00  0.00     0.000 C
ATOM     76   O  BDP B   5       5.096   8.883  56.1130  0.00  0.00     0.000 OA
ATOM     77   O  BDP B   5       3.343   7.799  55.3930  0.00  0.00     0.000 OA
ENDBRANCH 69 75
BRANCH 65 78
ATOM     78  O3  NAG B   6       4.748   6.045  51.7500  0.00  0.00     0.000 O
BRANCH 78 81
ATOM     79  C1  NAG B   6       6.696   3.015  52.9150  0.00  0.00     0.000 C
ATOM     80  C2  NAG B   6       6.262   4.149  51.9730  0.00  0.00     0.000 C
ATOM     81  C3  NAG B   6       5.276   5.069  52.6740  0.00  0.00     0.000 C
ATOM     82  C4  NAG B   6       4.130   4.266  53.2990  0.00  0.00     0.000 C
ATOM     83  C5  NAG B   6       4.705   3.191  54.2140  0.00  0.00     0.000 C
ATOM     84  O5  NAG B   6       5.529   2.340  53.4170  0.00  0.00     0.000 O
BRANCH 80 87
ATOM     85   N  NAG B   6       6.650   4.432  50.5930  0.00  0.00     0.000 N
ATOM     87  HD  NAG B   6       6.733   4.993  49.9390  0.00  0.00     0.000 HD
ATOM     87   C  NAG B   6       7.664   5.236  50.2500  0.00  0.00     0.000 C
ATOM     88   C  NAG B   6       7.921   5.366  48.7830  0.00  0.00     0.000 C
ATOM     89   O  NAG B   6       8.358   5.824  51.0710  0.00  0.00     0.000 OA
ENDBRANCH 80 87
ATOM     90   O  NAG B   6       3.653   2.627  56.3170  0.00  0.00     0.000 O
ATOM     92  HD  NAG B   6       4.398   2.676  55.8790  0.00  0.00     0.000 HD
ATOM     92   O  NAG B   6       3.653   2.627  56.3170  0.00  0.00     0.000 O
ATOM     94  HD  NAG B   6       4.398   2.676  55.8790  0.00  0.00     0.000 HD
ENDBRANCH 78 81
ENDBRANCH 65 78
ENDBRANCH 64 68
ENDBRANCH 48 64
ENDBRANCH 47 50
ENDBRANCH 34 47
ENDBRANCH 33 37
ENDBRANCH 17 33
ENDBRANCH 16 19
ENDBRANCH 1 16
TORSDOF 16
ENDMDL
MODEL 73
REMARK VINA RESULT:      -3.1     12.656     18.400
ROOT
ATOM      1  C1  BDP B   1      35.914  10.047  37.4810  0.00  0.00     0.000 C
ATOM      2  C2  BDP B   1      36.432  11.466  37.6350  0.00  0.00     0.000 C
ATOM      3  C3  BDP B   1      37.806  11.641  37.0250  0.00  0.00     0.000 C
ATOM      4  C4  BDP B   1      38.224  10.505  36.0980  0.00  0.00     0.000 C
ATOM      5  C5  BDP B   1      37.958   9.127  36.6960  0.00  0.00     0.000 C
ATOM      6  O5  BDP B   1      36.999   9.177  37.7670  0.00  0.00     0.000 O
ATOM      7   O  BDP B   1      35.517  12.386  37.0300  0.00  0.00     0.000 O
ATOM      9  HD  BDP B   1      34.712  12.670  36.8810  0.00  0.00     0.000 HD
ATOM      9   O  BDP B   1      38.794  11.742  38.0630  0.00  0.00     0.000 O
ATOM     11  HD  BDP B   1      37.990  12.025  37.9130  0.00  0.00     0.000 HD
ATOM     11   O  BDP B   1      37.557  10.620  34.8350  0.00  0.00     0.000 O
ATOM     13  HD  BDP B   1      36.753  10.904  34.6850  0.00  0.00     0.000 HD
ENDROOT
BRANCH 5 13
ATOM     13   C  BDP B   1      39.256   8.610  37.2080  0.00  0.00     0.000 C
ATOM     14   O  BDP B   1      39.592   8.910  38.3730  0.00  0.00     0.000 OA
ATOM     15   O  BDP B   1      39.952   7.878  36.4730  0.00  0.00     0.000 OA
ENDBRANCH 5 13
BRANCH 1 16
ATOM     16  O3  NAG B   2      34.736   9.554  36.8480  0.00  0.00     0.000 O
BRANCH 16 19
ATOM     17  C1  NAG B   2      34.136   7.949  33.6350  0.00  0.00     0.000 C
ATOM     18  C2  NAG B   2      34.900   8.025  34.9570  0.00  0.00     0.000 C
ATOM     19  C3  NAG B   2      34.019   8.609  36.0520  0.00  0.00     0.000 C
ATOM     20  C4  NAG B   2      32.761   9.266  35.4770  0.00  0.00     0.000 C
ATOM     21  C5  NAG B   2      32.952   9.970  34.1270  0.00  0.00     0.000 C
ATOM     22  O5  NAG B   2      33.887   9.307  33.2670  0.00  0.00     0.000 O
ATOM     23   O  NAG B   2      31.739   8.271  35.3650  0.00  0.00     0.000 O
ATOM     25  HD  NAG B   2      32.274   7.652  35.0810  0.00  0.00     0.000 HD
ATOM     25   C  NAG B   2      33.418  11.418  34.3330  0.00  0.00     0.000 C
ATOM     26   O  NAG B   2      32.312  12.306  34.5490  0.00  0.00     0.000 O
ATOM     28  HD  NAG B   2      32.848  11.688  34.2650  0.00  0.00     0.000 HD
BRANCH 18 30
ATOM     28   N  NAG B   2      34.349   6.683  34.7790  0.00  0.00     0.000 N
ATOM     30  HD  NAG B   2      33.640   6.209  34.9330  0.00  0.00     0.000 HD
ATOM     30   C  NAG B   2      34.778   5.585  35.4190  0.00  0.00     0.000 C
ATOM     31   C  NAG B   2      34.056   4.319  35.0550  0.00  0.00     0.000 C
ATOM     32   O  NAG B   2      35.672   5.596  36.2330  0.00  0.00     0.000 OA
ENDBRANCH 18 30
BRANCH 17 33
ATOM     33  O4  BDP B   3      34.081   7.876  32.1940  0.00  0.00     0.000 O
BRANCH 33 37
ATOM     34  C1  BDP B   3      31.839   7.620  28.5680  0.00  0.00     0.000 C
ATOM     35  C2  BDP B   3      33.160   8.378  28.5180  0.00  0.00     0.000 C
ATOM     36  C3  BDP B   3      34.084   8.074  29.6920  0.00  0.00     0.000 C
ATOM     37  C4  BDP B   3      33.280   8.117  31.0010  0.00  0.00     0.000 C
ATOM     38  C5  BDP B   3      32.117   7.117  30.8560  0.00  0.00     0.000 C
ATOM     39  O5  BDP B   3      31.247   7.675  29.8710  0.00  0.00     0.000 O
ATOM     40   O  BDP B   3      33.759   8.055  27.2610  0.00  0.00     0.000 O
ATOM     42  HD  BDP B   3      33.199   8.667  27.0130  0.00  0.00     0.000 HD
ATOM     42   O  BDP B   3      35.114   9.060  29.6700  0.00  0.00     0.000 O
ATOM     44  HD  BDP B   3      34.554   9.671  29.4210  0.00  0.00     0.000 HD
BRANCH 38 44
ATOM     44   C  BDP B   3      31.355   6.866  32.1200  0.00  0.00     0.000 C
ATOM     45   O  BDP B   3      30.749   7.829  32.6390  0.00  0.00     0.000 OA
ATOM     46   O  BDP B   3      31.345   5.719  32.6190  0.00  0.00     0.000 OA
ENDBRANCH 38 44
BRANCH 34 47
ATOM     47  O3  NAG B   4      30.749   8.416  28.1060  0.00  0.00     0.000 O
BRANCH 47 50
ATOM     48  C1  NAG B   4      28.413   7.072  25.4820  0.00  0.00     0.000 C
ATOM     49  C2  NAG B   4      29.698   7.651  26.0470  0.00  0.00     0.000 C
ATOM     50  C3  NAG B   4      29.563   7.805  27.5580  0.00  0.00     0.000 C
ATOM     51  C4  NAG B   4      28.346   8.637  27.9300  0.00  0.00     0.000 C
ATOM     52  C5  NAG B   4      27.096   8.047  27.2760  0.00  0.00     0.000 C
ATOM     53  O5  NAG B   4      27.294   7.895  25.8650  0.00  0.00     0.000 O
ATOM     54   O  NAG B   4      28.211   8.655  29.3530  0.00  0.00     0.000 O
ATOM     56  HD  NAG B   4      27.721   9.253  28.9640  0.00  0.00     0.000 HD
ATOM     56   C  NAG B   4      25.875   8.926  27.5240  0.00  0.00     0.000 C
ATOM     57   O  NAG B   4      26.115  10.226  26.9700  0.00  0.00     0.000 O
ATOM     59  HD  NAG B   4      25.625  10.825  26.5810  0.00  0.00     0.000 HD
BRANCH 49 61
ATOM     59   N  NAG B   4      30.648   6.806  25.3230  0.00  0.00     0.000 N
ATOM     61  HD  NAG B   4      30.266   7.578  25.2340  0.00  0.00     0.000 HD
ATOM     61   O  NAG B   4      32.076   8.451  24.7260  0.00  0.00     0.000 OA
ATOM     62   C  NAG B   4      31.787   7.265  24.7910  0.00  0.00     0.000 C
ATOM     63   C  NAG B   4      32.729   6.222  24.2800  0.00  0.00     0.000 C
ENDBRANCH 49 61
BRANCH 48 64
ATOM     64  O4  BDP B   5      28.133   6.257  24.3490  0.00  0.00     0.000 O
BRANCH 64 68
ATOM     65  C1  BDP B   5      24.389   5.053  22.9690  0.00  0.00     0.000 C
ATOM     66  C2  BDP B   5      25.494   4.007  22.8980  0.00  0.00     0.000 C
ATOM     67  C3  BDP B   5      26.647   4.418  23.8030  0.00  0.00     0.000 C
ATOM     68  C4  BDP B   5      27.140   5.811  23.4260  0.00  0.00     0.000 C
ATOM     69  C5  BDP B   5      26.011   6.832  23.3960  0.00  0.00     0.000 C
ATOM     70  O5  BDP B   5      24.908   6.344  22.6120  0.00  0.00     0.000 O
ATOM     71   O  BDP B   5      24.965   2.723  23.2620  0.00  0.00     0.000 O
ATOM     73  HD  BDP B   5      24.601   1.977  23.5080  0.00  0.00     0.000 HD
ATOM     73   O  BDP B   5      27.730   3.487  23.6920  0.00  0.00     0.000 O
ATOM     75  HD  BDP B   5      27.366   2.741  23.9390  0.00  0.00     0.000 HD
BRANCH 69 75
ATOM     75   C  BDP B   5      26.539   8.105  22.7840  0.00  0.00     0.000 C
ATOM     76   O  BDP B   5      27.440   8.028  21.9250  0.00  0.00     0.000 OA
ATOM     77   O  BDP B   5      26.059   9.194  23.1500  0.00  0.00     0.000 OA
ENDBRANCH 69 75
BRANCH 65 78
ATOM     78  O3  NAG B   6      23.468   5.387  21.9270  0.00  0.00     0.000 O
BRANCH 78 81
ATOM     79  C1  NAG B   6      19.762   5.082  21.2160  0.00  0.00     0.000 C
ATOM     80  C2  NAG B   6      21.229   4.638  21.3220  0.00  0.00     0.000 C
ATOM     81  C3  NAG B   6      22.066   5.733  21.9640  0.00  0.00     0.000 C
ATOM     82  C4  NAG B   6      21.840   7.076  21.2620  0.00  0.00     0.000 C
ATOM     83  C5  NAG B   6      20.349   7.393  21.2430  0.00  0.00     0.000 C
ATOM     84  O5  NAG B   6      19.693   6.344  20.5290  0.00  0.00     0.000 O
BRANCH 80 87
ATOM     85   N  NAG B   6      21.183   3.334  21.9780  0.00  0.00     0.000 N
ATOM     87  HD  NAG B   6      21.057   2.479  21.9340  0.00  0.00     0.000 HD
ATOM     87   C  NAG B   6      22.035   2.335  21.7190  0.00  0.00     0.000 C
ATOM     88   C  NAG B   6      21.839   1.090  22.5250  0.00  0.00     0.000 C
ATOM     89   O  NAG B   6      22.933   2.420  20.8900  0.00  0.00     0.000 OA
ENDBRANCH 80 87
ATOM     90   O  NAG B   6      19.530   9.643  21.5780  0.00  0.00     0.000 O
ATOM     92  HD  NAG B   6      19.366   8.799  21.6770  0.00  0.00     0.000 HD
ATOM     92   O  NAG B   6      19.530   9.643  21.5780  0.00  0.00     0.000 O
ATOM     94  HD  NAG B   6      19.366   8.799  21.6770  0.00  0.00     0.000 HD
ENDBRANCH 78 81
ENDBRANCH 65 78
ENDBRANCH 64 68
ENDBRANCH 48 64
ENDBRANCH 47 50
ENDBRANCH 34 47
ENDBRANCH 33 37
ENDBRANCH 17 33
ENDBRANCH 16 19
ENDBRANCH 1 16
TORSDOF 16
ENDMDL
MODEL 74
REMARK VINA RESULT:      -2.9     10.452     18.202
ROOT
ATOM      1  C1  BDP B   1      36.925   9.395  37.4880  0.00  0.00     0.000 C
ATOM      2  C2  BDP B   1      37.862  10.554  37.2000  0.00  0.00     0.000 C
ATOM      3  C3  BDP B   1      38.630  10.359  35.9100  0.00  0.00     0.000 C
ATOM      4  C4  BDP B   1      38.068   9.263  35.0120  0.00  0.00     0.000 C
ATOM      5  C5  BDP B   1      37.755   7.978  35.7730  0.00  0.00     0.000 C
ATOM      6  O5  BDP B   1      37.635   8.202  37.1880  0.00  0.00     0.000 O
ATOM      7   O  BDP B   1      37.120  11.776  37.1370  0.00  0.00     0.000 O
ATOM      9  HD  BDP B   1      36.511  12.312  37.4430  0.00  0.00     0.000 HD
ATOM      9   O  BDP B   1      39.997  10.027  36.1990  0.00  0.00     0.000 O
ATOM     11  HD  BDP B   1      39.389  10.563  36.5040  0.00  0.00     0.000 HD
ATOM     11   O  BDP B   1      36.890   9.724  34.3380  0.00  0.00     0.000 O
ATOM     13  HD  BDP B   1      36.282  10.259  34.6430  0.00  0.00     0.000 HD
ENDROOT
BRANCH 5 13
ATOM     13   C  BDP B   1      38.870   7.027  35.5080  0.00  0.00     0.000 C
ATOM     14   O  BDP B   1      39.852   7.041  36.2780  0.00  0.00     0.000 OA
ATOM     15   O  BDP B   1      38.776   6.233  34.5480  0.00  0.00     0.000 OA
ENDBRANCH 5 13
BRANCH 1 16
ATOM     16  O3  NAG B   2      35.511   9.370  37.6730  0.00  0.00     0.000 O
BRANCH 16 19
ATOM     17  C1  NAG B   2      32.799   8.491  35.4080  0.00  0.00     0.000 C
ATOM     18  C2  NAG B   2      34.114   8.137  36.1020  0.00  0.00     0.000 C
ATOM     19  C3  NAG B   2      34.208   8.826  37.4550  0.00  0.00     0.000 C
ATOM     20  C4  NAG B   2      33.156   9.929  37.6040  0.00  0.00     0.000 C
ATOM     21  C5  NAG B   2      32.838  10.704  36.3180  0.00  0.00     0.000 C
ATOM     22  O5  NAG B   2      32.882   9.892  35.1390  0.00  0.00     0.000 O
ATOM     23   O  NAG B   2      31.958   9.347  38.1280  0.00  0.00     0.000 O
ATOM     25  HD  NAG B   2      32.011   8.631  37.6440  0.00  0.00     0.000 HD
ATOM     25   C  NAG B   2      33.810  11.879  36.1400  0.00  0.00     0.000 C
ATOM     26   O  NAG B   2      33.373  13.043  36.8550  0.00  0.00     0.000 O
ATOM     28  HD  NAG B   2      33.426  12.327  36.3710  0.00  0.00     0.000 HD
BRANCH 18 30
ATOM     28   N  NAG B   2      33.146   7.048  36.2280  0.00  0.00     0.000 N
ATOM     30  HD  NAG B   2      32.438   6.811  36.6660  0.00  0.00     0.000 HD
ATOM     30   C  NAG B   2      33.418   5.833  36.7240  0.00  0.00     0.000 C
ATOM     31   C  NAG B   2      32.254   4.882  36.7380  0.00  0.00     0.000 C
ATOM     32   O  NAG B   2      34.507   5.510  37.1380  0.00  0.00     0.000 OA
ENDBRANCH 18 30
BRANCH 17 33
ATOM     33  O4  BDP B   3      31.974   8.632  34.2310  0.00  0.00     0.000 O
BRANCH 33 37
ATOM     34  C1  BDP B   3      28.001   9.026  32.7120  0.00  0.00     0.000 C
ATOM     35  C2  BDP B   3      29.147   9.316  31.7500  0.00  0.00     0.000 C
ATOM     36  C3  BDP B   3      30.488   8.758  32.2130  0.00  0.00     0.000 C
ATOM     37  C4  BDP B   3      30.696   9.090  33.6980  0.00  0.00     0.000 C
ATOM     38  C5  BDP B   3      29.492   8.515  34.4680  0.00  0.00     0.000 C
ATOM     39  O5  BDP B   3      28.369   9.300  34.0700  0.00  0.00     0.000 O
ATOM     40   O  BDP B   3      28.749   8.787  30.4840  0.00  0.00     0.000 O
ATOM     42  HD  BDP B   3      28.322   9.540  30.4780  0.00  0.00     0.000 HD
ATOM     42   O  BDP B   3      31.487   9.358  31.3900  0.00  0.00     0.000 O
ATOM     44  HD  BDP B   3      31.060  10.112  31.3840  0.00  0.00     0.000 HD
BRANCH 38 44
ATOM     44   C  BDP B   3      29.635   8.554  35.9580  0.00  0.00     0.000 C
ATOM     45   O  BDP B   3      29.908   7.485  36.5480  0.00  0.00     0.000 OA
ATOM     46   O  BDP B   3      29.478   9.635  36.5660  0.00  0.00     0.000 OA
ENDBRANCH 38 44
BRANCH 34 47
ATOM     47  O3  NAG B   4      27.090  10.120  32.8020  0.00  0.00     0.000 O
BRANCH 47 50
ATOM     48  C1  NAG B   4      23.450   9.368  32.2210  0.00  0.00     0.000 C
ATOM     49  C2  NAG B   4      24.921   9.521  31.8730  0.00  0.00     0.000 C
ATOM     50  C3  NAG B   4      25.701   9.904  33.1250  0.00  0.00     0.000 C
ATOM     51  C4  NAG B   4      25.132  11.153  33.7790  0.00  0.00     0.000 C
ATOM     52  C5  NAG B   4      23.637  10.967  34.0410  0.00  0.00     0.000 C
ATOM     53  O5  NAG B   4      22.964  10.576  32.8380  0.00  0.00     0.000 O
ATOM     54   O  NAG B   4      25.832  11.400  35.0010  0.00  0.00     0.000 O
ATOM     56  HD  NAG B   4      25.358  12.078  34.7450  0.00  0.00     0.000 HD
ATOM     56   C  NAG B   4      23.006  12.246  34.5800  0.00  0.00     0.000 C
ATOM     57   O  NAG B   4      23.179  13.294  33.6180  0.00  0.00     0.000 O
ATOM     59  HD  NAG B   4      22.705  13.973  33.3620  0.00  0.00     0.000 HD
BRANCH 49 61
ATOM     59   N  NAG B   4      24.632  10.227  30.6240  0.00  0.00     0.000 N
ATOM     61  HD  NAG B   4      25.321   9.980  31.0860  0.00  0.00     0.000 HD
ATOM     61   O  NAG B   4      26.244   9.250  29.3800  0.00  0.00     0.000 OA
ATOM     62   C  NAG B   4      25.267   9.978  29.4720  0.00  0.00     0.000 C
ATOM     63   C  NAG B   4      24.692  10.641  28.2610  0.00  0.00     0.000 C
ENDBRANCH 49 61
BRANCH 48 64
ATOM     64  O4  BDP B   5      22.404   8.567  31.6810  0.00  0.00     0.000 O
BRANCH 64 68
ATOM     65  C1  BDP B   5      18.406   8.808  32.8320  0.00  0.00     0.000 C
ATOM     66  C2  BDP B   5      19.133   7.525  33.2120  0.00  0.00     0.000 C
ATOM     67  C3  BDP B   5      20.638   7.744  33.1250  0.00  0.00     0.000 C
ATOM     68  C4  BDP B   5      21.017   8.237  31.7330  0.00  0.00     0.000 C
ATOM     69  C5  BDP B   5      20.210   9.460  31.3160  0.00  0.00     0.000 C
ATOM     70  O5  BDP B   5      18.804   9.231  31.5190  0.00  0.00     0.000 O
ATOM     71   O  BDP B   5      18.731   7.115  34.5280  0.00  0.00     0.000 O
ATOM     73  HD  BDP B   5      18.470   6.924  35.3310  0.00  0.00     0.000 HD
ATOM     73   O  BDP B   5      21.340   6.527  33.4030  0.00  0.00     0.000 O
ATOM     75  HD  BDP B   5      21.079   6.336  34.2070  0.00  0.00     0.000 HD
BRANCH 69 75
ATOM     75   C  BDP B   5      20.472   9.725  29.8560  0.00  0.00     0.000 C
ATOM     76   O  BDP B   5      21.445  10.439  29.5410  0.00  0.00     0.000 OA
ATOM     77   O  BDP B   5      19.714   9.221  29.0060  0.00  0.00     0.000 OA
ENDBRANCH 69 75
BRANCH 65 78
ATOM     78  O3  NAG B   6      17.115   8.904  32.2240  0.00  0.00     0.000 O
BRANCH 78 81
ATOM     79  C1  NAG B   6      13.956  10.824  33.0460  0.00  0.00     0.000 C
ATOM     80  C2  NAG B   6      15.057   9.763  33.2070  0.00  0.00     0.000 C
ATOM     81  C3  NAG B   6      16.156   9.984  32.1800  0.00  0.00     0.000 C
ATOM     82  C4  NAG B   6      15.569  10.105  30.7700  0.00  0.00     0.000 C
ATOM     83  C5  NAG B   6      14.506  11.197  30.7560  0.00  0.00     0.000 C
ATOM     84  O5  NAG B   6      13.488  10.822  31.6850  0.00  0.00     0.000 O
BRANCH 80 87
ATOM     85   N  NAG B   6      15.476   9.815  34.6050  0.00  0.00     0.000 N
ATOM     87  HD  NAG B   6      15.329   9.627  35.4380  0.00  0.00     0.000 HD
ATOM     87   C  NAG B   6      15.799   8.737  35.3310  0.00  0.00     0.000 C
ATOM     88   C  NAG B   6      16.236   9.008  36.7350  0.00  0.00     0.000 C
ATOM     89   O  NAG B   6      15.760   7.596  34.8860  0.00  0.00     0.000 OA
ENDBRANCH 80 87
ATOM     90   O  NAG B   6      14.264  12.702  28.8790  0.00  0.00     0.000 O
ATOM     92  HD  NAG B   6      14.176  12.604  29.7350  0.00  0.00     0.000 HD
ATOM     92   O  NAG B   6      14.264  12.702  28.8790  0.00  0.00     0.000 O
ATOM     94  HD  NAG B   6      14.176  12.604  29.7350  0.00  0.00     0.000 HD
ENDBRANCH 78 81
ENDBRANCH 65 78
ENDBRANCH 64 68
ENDBRANCH 48 64
ENDBRANCH 47 50
ENDBRANCH 34 47
ENDBRANCH 33 37
ENDBRANCH 17 33
ENDBRANCH 16 19
ENDBRANCH 1 16
TORSDOF 16
ENDMDL
MODEL 75
REMARK VINA RESULT:      -2.9      6.013      8.727
ROOT
ATOM      1  C1  BDP B   1      15.986  16.271  40.9720  0.00  0.00     0.000 C
ATOM      2  C2  BDP B   1      15.690  15.749  42.3660  0.00  0.00     0.000 C
ATOM      3  C3  BDP B   1      14.815  16.699  43.1560  0.00  0.00     0.000 C
ATOM      4  C4  BDP B   1      14.135  17.769  42.3090  0.00  0.00     0.000 C
ATOM      5  C5  BDP B   1      15.092  18.442  41.3290  0.00  0.00     0.000 C
ATOM      6  O5  BDP B   1      16.274  17.656  41.1000  0.00  0.00     0.000 O
ATOM      7   O  BDP B   1      15.055  14.469  42.2820  0.00  0.00     0.000 O
ATOM      9  HD  BDP B   1      14.990  13.674  41.9440  0.00  0.00     0.000 HD
ATOM      9   O  BDP B   1      15.598  17.368  44.1570  0.00  0.00     0.000 O
ATOM     11  HD  BDP B   1      15.533  16.574  43.8200  0.00  0.00     0.000 HD
ATOM     11   O  BDP B   1      13.026  17.210  41.5950  0.00  0.00     0.000 O
ATOM     13  HD  BDP B   1      12.961  16.415  41.2570  0.00  0.00     0.000 HD
ENDROOT
BRANCH 5 13
ATOM     13   C  BDP B   1      15.469  19.757  41.9150  0.00  0.00     0.000 C
ATOM     14   O  BDP B   1      14.752  20.746  41.6550  0.00  0.00     0.000 OA
ATOM     15   O  BDP B   1      16.467  19.826  42.6640  0.00  0.00     0.000 OA
ENDBRANCH 5 13
BRANCH 1 16
ATOM     16  O3  NAG B   2      15.719  15.701  39.6920  0.00  0.00     0.000 O
BRANCH 16 19
ATOM     17  C1  NAG B   2      15.929  14.704  36.1970  0.00  0.00     0.000 C
ATOM     18  C2  NAG B   2      15.454  14.438  37.6260  0.00  0.00     0.000 C
ATOM     19  C3  NAG B   2      15.206  15.747  38.3600  0.00  0.00     0.000 C
ATOM     20  C4  NAG B   2      15.812  16.939  37.6140  0.00  0.00     0.000 C
ATOM     21  C5  NAG B   2      17.135  16.651  36.8900  0.00  0.00     0.000 C
ATOM     22  O5  NAG B   2      17.205  15.332  36.3370  0.00  0.00     0.000 O
ATOM     23   O  NAG B   2      14.845  17.430  36.6790  0.00  0.00     0.000 O
ATOM     25  HD  NAG B   2      14.579  16.643  36.4350  0.00  0.00     0.000 HD
ATOM     25   C  NAG B   2      18.325  16.848  37.8400  0.00  0.00     0.000 C
ATOM     26   O  NAG B   2      18.743  18.220  37.8900  0.00  0.00     0.000 O
ATOM     28  HD  NAG B   2      18.476  17.433  37.6460  0.00  0.00     0.000 HD
BRANCH 18 30
ATOM     28   N  NAG B   2      13.996  14.546  37.6470  0.00  0.00     0.000 N
ATOM     30  HD  NAG B   2      13.310  14.432  38.1630  0.00  0.00     0.000 HD
ATOM     30   C  NAG B   2      13.157  13.752  36.9660  0.00  0.00     0.000 C
ATOM     31   C  NAG B   2      11.700  14.072  37.1450  0.00  0.00     0.000 C
ATOM     32   O  NAG B   2      13.526  12.841  36.2630  0.00  0.00     0.000 OA
ENDBRANCH 18 30
BRANCH 17 33
ATOM     33  O4  BDP B   3      16.605  14.312  34.9820  0.00  0.00     0.000 O
BRANCH 33 37
ATOM     34  C1  BDP B   3      17.671  11.803  31.6940  0.00  0.00     0.000 C
ATOM     35  C2  BDP B   3      16.258  11.663  32.2480  0.00  0.00     0.000 C
ATOM     36  C3  BDP B   3      15.818  12.845  33.1040  0.00  0.00     0.000 C
ATOM     37  C4  BDP B   3      16.941  13.213  34.0860  0.00  0.00     0.000 C
ATOM     38  C5  BDP B   3      18.205  13.494  33.2510  0.00  0.00     0.000 C
ATOM     39  O5  BDP B   3      18.593  12.235  32.7020  0.00  0.00     0.000 O
ATOM     40   O  BDP B   3      15.405  11.465  31.1190  0.00  0.00     0.000 O
ATOM     42  HD  BDP B   3      15.712  10.662  31.2230  0.00  0.00     0.000 HD
ATOM     42   O  BDP B   3      14.631  12.440  33.7830  0.00  0.00     0.000 O
ATOM     44  HD  BDP B   3      14.939  11.637  33.8870  0.00  0.00     0.000 HD
BRANCH 38 44
ATOM     44   C  BDP B   3      19.342  14.081  34.0280  0.00  0.00     0.000 C
ATOM     45   O  BDP B   3      19.943  13.339  34.8360  0.00  0.00     0.000 OA
ATOM     46   O  BDP B   3      19.657  15.278  33.8530  0.00  0.00     0.000 OA
ENDBRANCH 38 44
BRANCH 34 47
ATOM     47  O3  NAG B   4      18.365  10.556  31.6800  0.00  0.00     0.000 O
BRANCH 47 50
ATOM     48  C1  NAG B   4      20.365   9.806  28.5840  0.00  0.00     0.000 C
ATOM     49  C2  NAG B   4      19.124  10.072  29.4180  0.00  0.00     0.000 C
ATOM     50  C3  NAG B   4      19.533  10.367  30.8570  0.00  0.00     0.000 C
ATOM     51  C4  NAG B   4      20.386   9.249  31.4360  0.00  0.00     0.000 C
ATOM     52  C5  NAG B   4      21.580   8.979  30.5190  0.00  0.00     0.000 C
ATOM     53  O5  NAG B   4      21.136   8.742  29.1770  0.00  0.00     0.000 O
ATOM     54   O  NAG B   4      20.828   9.630  32.7410  0.00  0.00     0.000 O
ATOM     56  HD  NAG B   4      20.946   8.787  32.5820  0.00  0.00     0.000 HD
ATOM     56   C  NAG B   4      22.389   7.781  31.0020  0.00  0.00     0.000 C
ATOM     57   O  NAG B   4      21.546   6.622  31.0160  0.00  0.00     0.000 O
ATOM     59  HD  NAG B   4      21.663   5.779  30.8560  0.00  0.00     0.000 HD
BRANCH 49 61
ATOM     59   N  NAG B   4      18.447  10.929  28.4440  0.00  0.00     0.000 N
ATOM     61  HD  NAG B   4      18.458  10.096  28.6790  0.00  0.00     0.000 HD
ATOM     61   O  NAG B   4      16.386  10.035  28.6800  0.00  0.00     0.000 OA
ATOM     62   C  NAG B   4      17.129  10.886  28.2140  0.00  0.00     0.000 C
ATOM     63   C  NAG B   4      16.588  11.978  27.3470  0.00  0.00     0.000 C
ENDBRANCH 49 61
BRANCH 48 64
ATOM     64  O4  BDP B   5      20.668  10.002  27.2060  0.00  0.00     0.000 O
BRANCH 64 68
ATOM     65  C1  BDP B   5      20.399   8.651  23.2720  0.00  0.00     0.000 C
ATOM     66  C2  BDP B   5      20.586   7.576  24.3350  0.00  0.00     0.000 C
ATOM     67  C3  BDP B   5      20.239   8.145  25.7050  0.00  0.00     0.000 C
ATOM     68  C4  BDP B   5      21.076   9.389  25.9840  0.00  0.00     0.000 C
ATOM     69  C5  BDP B   5      20.967  10.417  24.8650  0.00  0.00     0.000 C
ATOM     70  O5  BDP B   5      21.201   9.800  23.5870  0.00  0.00     0.000 O
ATOM     71   O  BDP B   5      19.776   6.435  24.0140  0.00  0.00     0.000 O
ATOM     73  HD  BDP B   5      19.254   5.783  23.7850  0.00  0.00     0.000 HD
ATOM     73   O  BDP B   5      20.482   7.173  26.7290  0.00  0.00     0.000 O
ATOM     75  HD  BDP B   5      19.960   6.521  26.5000  0.00  0.00     0.000 HD
BRANCH 69 75
ATOM     75   C  BDP B   5      22.001  11.488  25.1040  0.00  0.00     0.000 C
ATOM     76   O  BDP B   5      21.616  12.654  25.3240  0.00  0.00     0.000 OA
ATOM     77   O  BDP B   5      23.206  11.179  25.0800  0.00  0.00     0.000 OA
ENDBRANCH 69 75
BRANCH 65 78
ATOM     78  O3  NAG B   6      21.123   8.764  22.0440  0.00  0.00     0.000 O
BRANCH 78 81
ATOM     79  C1  NAG B   6      20.954   8.440  18.2760  0.00  0.00     0.000 C
ATOM     80  C2  NAG B   6      21.292   8.045  19.7220  0.00  0.00     0.000 C
ATOM     81  C3  NAG B   6      20.683   9.040  20.6970  0.00  0.00     0.000 C
ATOM     82  C4  NAG B   6      21.049  10.477  20.3100  0.00  0.00     0.000 C
ATOM     83  C5  NAG B   6      20.646  10.730  18.8620  0.00  0.00     0.000 C
ATOM     84  O5  NAG B   6      21.360   9.801  18.0460  0.00  0.00     0.000 O
BRANCH 80 87
ATOM     85   N  NAG B   6      20.783   6.821  20.3330  0.00  0.00     0.000 N
ATOM     87  HD  NAG B   6      20.601   5.976  20.2770  0.00  0.00     0.000 HD
ATOM     87   C  NAG B   6      21.534   5.743  20.5910  0.00  0.00     0.000 C
ATOM     88   C  NAG B   6      20.828   4.603  21.2530  0.00  0.00     0.000 C
ATOM     89   O  NAG B   6      22.728   5.681  20.3230  0.00  0.00     0.000 OA
ENDBRANCH 80 87
ATOM     90   O  NAG B   6      19.713  12.849  18.1620  0.00  0.00     0.000 O
ATOM     92  HD  NAG B   6      19.734  11.994  18.0240  0.00  0.00     0.000 HD
ATOM     92   O  NAG B   6      19.713  12.849  18.1620  0.00  0.00     0.000 O
ATOM     94  HD  NAG B   6      19.734  11.994  18.0240  0.00  0.00     0.000 HD
ENDBRANCH 78 81
ENDBRANCH 65 78
ENDBRANCH 64 68
ENDBRANCH 48 64
ENDBRANCH 47 50
ENDBRANCH 34 47
ENDBRANCH 33 37
ENDBRANCH 17 33
ENDBRANCH 16 19
ENDBRANCH 1 16
TORSDOF 16
ENDMDL
MODEL 76
REMARK VINA RESULT:      -2.9     10.123     16.962
ROOT
ATOM      1  C1  BDP B   1      33.879   5.338  40.4420  0.00  0.00     0.000 C
ATOM      2  C2  BDP B   1      34.116   6.072  41.7490  0.00  0.00     0.000 C
ATOM      3  C3  BDP B   1      35.542   5.926  42.2350  0.00  0.00     0.000 C
ATOM      4  C4  BDP B   1      36.507   5.400  41.1790  0.00  0.00     0.000 C
ATOM      5  C5  BDP B   1      35.959   4.192  40.4270  0.00  0.00     0.000 C
ATOM      6  O5  BDP B   1      34.530   4.081  40.5480  0.00  0.00     0.000 O
ATOM      7   O  BDP B   1      33.801   7.460  41.5920  0.00  0.00     0.000 O
ATOM      9  HD  BDP B   1      33.290   8.095  41.3000  0.00  0.00     0.000 HD
ATOM      9   O  BDP B   1      35.588   5.027  43.3540  0.00  0.00     0.000 O
ATOM     11  HD  BDP B   1      35.076   5.661  43.0630  0.00  0.00     0.000 HD
ATOM     11   O  BDP B   1      36.844   6.437  40.2490  0.00  0.00     0.000 O
ATOM     13  HD  BDP B   1      36.332   7.072  39.9570  0.00  0.00     0.000 HD
ENDROOT
BRANCH 5 13
ATOM     13   C  BDP B   1      36.607   2.982  41.0020  0.00  0.00     0.000 C
ATOM     14   O  BDP B   1      37.563   3.144  41.7900  0.00  0.00     0.000 OA
ATOM     15   O  BDP B   1      36.163   1.853  40.7030  0.00  0.00     0.000 OA
ENDBRANCH 5 13
BRANCH 1 16
ATOM     16  O3  NAG B   2      33.435   5.821  39.1750  0.00  0.00     0.000 O
BRANCH 16 19
ATOM     17  C1  NAG B   2      30.007   5.840  37.9480  0.00  0.00     0.000 C
ATOM     18  C2  NAG B   2      31.067   6.337  38.9330  0.00  0.00     0.000 C
ATOM     19  C3  NAG B   2      32.443   6.334  38.2840  0.00  0.00     0.000 C
ATOM     20  C4  NAG B   2      32.454   5.531  36.9810  0.00  0.00     0.000 C
ATOM     21  C5  NAG B   2      31.548   4.292  36.9710  0.00  0.00     0.000 C
ATOM     22  O5  NAG B   2      30.333   4.469  37.7080  0.00  0.00     0.000 O
ATOM     23   O  NAG B   2      32.093   6.404  35.9060  0.00  0.00     0.000 O
ATOM     25  HD  NAG B   2      31.474   6.812  36.3530  0.00  0.00     0.000 HD
ATOM     25   C  NAG B   2      32.291   3.073  37.5380  0.00  0.00     0.000 C
ATOM     26   O  NAG B   2      33.072   2.412  36.5320  0.00  0.00     0.000 O
ATOM     28  HD  NAG B   2      32.453   2.821  36.9790  0.00  0.00     0.000 HD
BRANCH 18 30
ATOM     28   N  NAG B   2      31.280   7.734  38.5560  0.00  0.00     0.000 N
ATOM     30  HD  NAG B   2      31.759   8.429  38.7510  0.00  0.00     0.000 HD
ATOM     30   C  NAG B   2      30.407   8.729  38.7710  0.00  0.00     0.000 C
ATOM     31   C  NAG B   2      30.854  10.078  38.2820  0.00  0.00     0.000 C
ATOM     32   O  NAG B   2      29.341   8.573  39.3190  0.00  0.00     0.000 OA
ENDBRANCH 18 30
BRANCH 17 33
ATOM     33  O4  BDP B   3      28.720   5.263  37.6420  0.00  0.00     0.000 O
BRANCH 33 37
ATOM     34  C1  BDP B   3      25.253   6.555  35.5080  0.00  0.00     0.000 C
ATOM     35  C2  BDP B   3      25.390   7.009  36.9560  0.00  0.00     0.000 C
ATOM     36  C3  BDP B   3      26.805   6.879  37.5060  0.00  0.00     0.000 C
ATOM     37  C4  BDP B   3      27.377   5.505  37.1280  0.00  0.00     0.000 C
ATOM     38  C5  BDP B   3      27.300   5.383  35.5940  0.00  0.00     0.000 C
ATOM     39  O5  BDP B   3      25.909   5.301  35.2840  0.00  0.00     0.000 O
ATOM     40   O  BDP B   3      24.914   8.356  36.9980  0.00  0.00     0.000 O
ATOM     42  HD  BDP B   3      24.163   7.927  37.0210  0.00  0.00     0.000 HD
ATOM     42   O  BDP B   3      26.712   7.045  38.9200  0.00  0.00     0.000 O
ATOM     44  HD  BDP B   3      25.961   6.615  38.9430  0.00  0.00     0.000 HD
BRANCH 38 44
ATOM     44   C  BDP B   3      28.016   4.196  35.0300  0.00  0.00     0.000 C
ATOM     45   O  BDP B   3      27.548   3.061  35.2720  0.00  0.00     0.000 OA
ATOM     46   O  BDP B   3      29.047   4.364  34.3440  0.00  0.00     0.000 OA
ENDBRANCH 38 44
BRANCH 34 47
ATOM     47  O3  NAG B   4      24.018   5.882  35.2730  0.00  0.00     0.000 O
BRANCH 47 50
ATOM     48  C1  NAG B   4      21.413   7.053  32.8250  0.00  0.00     0.000 C
ATOM     49  C2  NAG B   4      22.166   6.986  34.1430  0.00  0.00     0.000 C
ATOM     50  C3  NAG B   4      23.330   6.011  34.0120  0.00  0.00     0.000 C
ATOM     51  C4  NAG B   4      22.862   4.641  33.5470  0.00  0.00     0.000 C
ATOM     52  C5  NAG B   4      22.053   4.779  32.2570  0.00  0.00     0.000 C
ATOM     53  O5  NAG B   4      20.996   5.732  32.4300  0.00  0.00     0.000 O
ATOM     54   O  NAG B   4      24.004   3.805  33.3390  0.00  0.00     0.000 O
ATOM     56  HD  NAG B   4      23.262   3.358  33.3580  0.00  0.00     0.000 HD
ATOM     56   C  NAG B   4      21.462   3.441  31.8290  0.00  0.00     0.000 C
ATOM     57   O  NAG B   4      20.598   2.957  32.8660  0.00  0.00     0.000 O
ATOM     59  HD  NAG B   4      19.856   2.510  32.8850  0.00  0.00     0.000 HD
BRANCH 49 61
ATOM     59   N  NAG B   4      22.203   8.425  34.4100  0.00  0.00     0.000 N
ATOM     61  HD  NAG B   4      21.712   7.739  34.6080  0.00  0.00     0.000 HD
ATOM     61   O  NAG B   4      21.665   8.308  36.6000  0.00  0.00     0.000 OA
ATOM     62   C  NAG B   4      22.022   8.954  35.6260  0.00  0.00     0.000 C
ATOM     63   C  NAG B   4      22.308  10.417  35.7430  0.00  0.00     0.000 C
ENDBRANCH 49 61
BRANCH 48 64
ATOM     64  O4  BDP B   5      20.656   8.080  32.1920  0.00  0.00     0.000 O
BRANCH 64 68
ATOM     65  C1  BDP B   5      16.964   9.792  31.2920  0.00  0.00     0.000 C
ATOM     66  C2  BDP B   5      18.179  10.692  31.1100  0.00  0.00     0.000 C
ATOM     67  C3  BDP B   5      19.442   9.843  31.0510  0.00  0.00     0.000 C
ATOM     68  C4  BDP B   5      19.547   8.971  32.2970  0.00  0.00     0.000 C
ATOM     69  C5  BDP B   5      18.285   8.150  32.5330  0.00  0.00     0.000 C
ATOM     70  O5  BDP B   5      17.118   8.989  32.4730  0.00  0.00     0.000 O
ATOM     71   O  BDP B   5      18.016  11.485  29.9240  0.00  0.00     0.000 O
ATOM     73  HD  BDP B   5      17.878  11.923  29.1900  0.00  0.00     0.000 HD
ATOM     73   O  BDP B   5      20.604  10.675  30.9570  0.00  0.00     0.000 O
ATOM     75  HD  BDP B   5      20.465  11.113  30.2230  0.00  0.00     0.000 HD
BRANCH 69 75
ATOM     75   C  BDP B   5      18.381   7.516  33.8970  0.00  0.00     0.000 C
ATOM     76   O  BDP B   5      18.788   8.207  34.8530  0.00  0.00     0.000 OA
ATOM     77   O  BDP B   5      18.047   6.325  34.0330  0.00  0.00     0.000 OA
ENDBRANCH 69 75
BRANCH 65 78
ATOM     78  O3  NAG B   6      15.746  10.134  31.9590  0.00  0.00     0.000 O
BRANCH 78 81
ATOM     79  C1  NAG B   6      11.971  10.320  32.1880  0.00  0.00     0.000 C
ATOM     80  C2  NAG B   6      13.430  10.771  32.3670  0.00  0.00     0.000 C
ATOM     81  C3  NAG B   6      14.370   9.804  31.6670  0.00  0.00     0.000 C
ATOM     82  C4  NAG B   6      14.079   8.359  32.0880  0.00  0.00     0.000 C
ATOM     83  C5  NAG B   6      12.607   8.048  31.8440  0.00  0.00     0.000 C
ATOM     84  O5  NAG B   6      11.837   8.957  32.6300  0.00  0.00     0.000 O
BRANCH 80 87
ATOM     85   N  NAG B   6      13.723  12.014  33.0750  0.00  0.00     0.000 N
ATOM     87  HD  NAG B   6      14.298  12.595  33.3620  0.00  0.00     0.000 HD
ATOM     87   C  NAG B   6      14.232  13.106  32.4920  0.00  0.00     0.000 C
ATOM     88   C  NAG B   6      14.426  14.289  33.3860  0.00  0.00     0.000 C
ATOM     89   O  NAG B   6      14.514  13.158  31.3000  0.00  0.00     0.000 OA
ENDBRANCH 80 87
ATOM     90   O  NAG B   6      11.891   5.893  31.0120  0.00  0.00     0.000 O
ATOM     92  HD  NAG B   6      11.724   6.742  31.0390  0.00  0.00     0.000 HD
ATOM     92   O  NAG B   6      11.891   5.893  31.0120  0.00  0.00     0.000 O
ATOM     94  HD  NAG B   6      11.724   6.742  31.0390  0.00  0.00     0.000 HD
ENDBRANCH 78 81
ENDBRANCH 65 78
ENDBRANCH 64 68
ENDBRANCH 48 64
ENDBRANCH 47 50
ENDBRANCH 34 47
ENDBRANCH 33 37
ENDBRANCH 17 33
ENDBRANCH 16 19
ENDBRANCH 1 16
TORSDOF 16
ENDMDL
MODEL 77
REMARK VINA RESULT:      -2.8     10.567     19.357
ROOT
ATOM      1  C1  BDP B   1      36.870   6.792  33.4080  0.00  0.00     0.000 C
ATOM      2  C2  BDP B   1      37.613   7.909  32.6980  0.00  0.00     0.000 C
ATOM      3  C3  BDP B   1      37.256   7.988  31.2300  0.00  0.00     0.000 C
ATOM      4  C4  BDP B   1      36.005   7.203  30.8510  0.00  0.00     0.000 C
ATOM      5  C5  BDP B   1      35.991   5.796  31.4400  0.00  0.00     0.000 C
ATOM      6  O5  BDP B   1      36.898   5.663  32.5470  0.00  0.00     0.000 O
ATOM      7   O  BDP B   1      37.329   9.161  33.3310  0.00  0.00     0.000 O
ATOM      9  HD  BDP B   1      37.224   9.648  34.0400  0.00  0.00     0.000 HD
ATOM      9   O  BDP B   1      38.342   7.489  30.4330  0.00  0.00     0.000 O
ATOM     11  HD  BDP B   1      38.237   7.975  31.1420  0.00  0.00     0.000 HD
ATOM     11   O  BDP B   1      34.828   7.910  31.2610  0.00  0.00     0.000 O
ATOM     13  HD  BDP B   1      34.723   8.397  31.9690  0.00  0.00     0.000 HD
ENDROOT
BRANCH 5 13
ATOM     13   C  BDP B   1      36.385   4.859  30.3520  0.00  0.00     0.000 C
ATOM     14   O  BDP B   1      36.533   5.321  29.2020  0.00  0.00     0.000 OA
ATOM     15   O  BDP B   1      36.579   3.655  30.6270  0.00  0.00     0.000 OA
ENDBRANCH 5 13
BRANCH 1 16
ATOM     16  O3  NAG B   2      35.983   6.831  34.5240  0.00  0.00     0.000 O
BRANCH 16 19
ATOM     17  C1  NAG B   2      32.545   5.711  34.9510  0.00  0.00     0.000 C
ATOM     18  C2  NAG B   2      33.992   5.427  34.5450  0.00  0.00     0.000 C
ATOM     19  C3  NAG B   2      34.952   6.288  35.3520  0.00  0.00     0.000 C
ATOM     20  C4  NAG B   2      34.224   7.421  36.0800  0.00  0.00     0.000 C
ATOM     21  C5  NAG B   2      33.033   8.024  35.3220  0.00  0.00     0.000 C
ATOM     22  O5  NAG B   2      32.302   7.062  34.5530  0.00  0.00     0.000 O
ATOM     23   O  NAG B   2      33.792   6.937  37.3560  0.00  0.00     0.000 O
ATOM     25  HD  NAG B   2      33.547   6.162  37.0570  0.00  0.00     0.000 HD
ATOM     25   C  NAG B   2      33.501   9.146  34.3840  0.00  0.00     0.000 C
ATOM     26   O  NAG B   2      33.600  10.403  35.0690  0.00  0.00     0.000 O
ATOM     28  HD  NAG B   2      33.356   9.628  34.7700  0.00  0.00     0.000 HD
BRANCH 18 30
ATOM     28   N  NAG B   2      33.460   4.358  35.3900  0.00  0.00     0.000 N
ATOM     30  HD  NAG B   2      33.230   4.183  36.2060  0.00  0.00     0.000 HD
ATOM     30   C  NAG B   2      34.121   3.240  35.7200  0.00  0.00     0.000 C
ATOM     31   C  NAG B   2      33.354   2.287  36.5920  0.00  0.00     0.000 C
ATOM     32   O  NAG B   2      35.250   3.002  35.3580  0.00  0.00     0.000 OA
ENDBRANCH 18 30
BRANCH 17 33
ATOM     33  O4  BDP B   3      31.124   5.710  34.6960  0.00  0.00     0.000 O
BRANCH 33 37
ATOM     34  C1  BDP B   3      27.158   4.178  34.2870  0.00  0.00     0.000 C
ATOM     35  C2  BDP B   3      27.943   3.758  35.5240  0.00  0.00     0.000 C
ATOM     36  C3  BDP B   3      29.145   4.650  35.8170  0.00  0.00     0.000 C
ATOM     37  C4  BDP B   3      29.927   4.896  34.5180  0.00  0.00     0.000 C
ATOM     38  C5  BDP B   3      28.944   5.503  33.4990  0.00  0.00     0.000 C
ATOM     39  O5  BDP B   3      28.024   4.459  33.1820  0.00  0.00     0.000 O
ATOM     40   O  BDP B   3      27.007   3.739  36.6040  0.00  0.00     0.000 O
ATOM     42  HD  BDP B   3      26.836   2.973  36.2380  0.00  0.00     0.000 HD
ATOM     42   O  BDP B   3      29.933   3.968  36.7900  0.00  0.00     0.000 O
ATOM     44  HD  BDP B   3      29.762   3.202  36.4240  0.00  0.00     0.000 HD
BRANCH 38 44
ATOM     44   C  BDP B   3      29.586   6.012  32.2460  0.00  0.00     0.000 C
ATOM     45   O  BDP B   3      29.978   7.199  32.2290  0.00  0.00     0.000 OA
ATOM     46   O  BDP B   3      29.712   5.250  31.2630  0.00  0.00     0.000 OA
ENDBRANCH 38 44
BRANCH 34 47
ATOM     47  O3  NAG B   4      26.681   3.054  33.5500  0.00  0.00     0.000 O
BRANCH 47 50
ATOM     48  C1  NAG B   4      23.159   3.095  32.2310  0.00  0.00     0.000 C
ATOM     49  C2  NAG B   4      24.263   3.014  33.2710  0.00  0.00     0.000 C
ATOM     50  C3  NAG B   4      25.614   3.195  32.5890  0.00  0.00     0.000 C
ATOM     51  C4  NAG B   4      25.811   2.194  31.4620  0.00  0.00     0.000 C
ATOM     52  C5  NAG B   4      24.636   2.272  30.4870  0.00  0.00     0.000 C
ATOM     53  O5  NAG B   4      23.395   2.129  31.1880  0.00  0.00     0.000 O
ATOM     54   O  NAG B   4      27.042   2.481  30.7940  0.00  0.00     0.000 O
ATOM     56  HD  NAG B   4      26.724   1.702  30.5870  0.00  0.00     0.000 HD
ATOM     56   C  NAG B   4      24.737   1.197  29.4110  0.00  0.00     0.000 C
ATOM     57   O  NAG B   4      24.731  -0.093  30.0380  0.00  0.00     0.000 O
ATOM     59  HD  NAG B   4      24.412  -0.871  29.8310  0.00  0.00     0.000 HD
BRANCH 49 61
ATOM     59   N  NAG B   4      23.662   3.877  34.2880  0.00  0.00     0.000 N
ATOM     61  HD  NAG B   4      23.699   3.035  34.0900  0.00  0.00     0.000 HD
ATOM     61   O  NAG B   4      24.109   2.555  36.0640  0.00  0.00     0.000 OA
ATOM     62   C  NAG B   4      23.702   3.610  35.5990  0.00  0.00     0.000 C
ATOM     63   C  NAG B   4      23.227   4.707  36.4980  0.00  0.00     0.000 C
ENDBRANCH 49 61
BRANCH 48 64
ATOM     64  O4  BDP B   5      21.800   3.518  32.2900  0.00  0.00     0.000 O
BRANCH 64 68
ATOM     65  C1  BDP B   5      18.867   2.163  34.9240  0.00  0.00     0.000 C
ATOM     66  C2  BDP B   5      18.937   1.451  33.5800  0.00  0.00     0.000 C
ATOM     67  C3  BDP B   5      20.279   1.736  32.9180  0.00  0.00     0.000 C
ATOM     68  C4  BDP B   5      20.493   3.240  32.7900  0.00  0.00     0.000 C
ATOM     69  C5  BDP B   5      20.318   3.960  34.1210  0.00  0.00     0.000 C
ATOM     70  O5  BDP B   5      19.082   3.572  34.7480  0.00  0.00     0.000 O
ATOM     71   O  BDP B   5      18.726   0.043  33.7690  0.00  0.00     0.000 O
ATOM     73  HD  BDP B   5      18.614  -0.798  33.9410  0.00  0.00     0.000 HD
ATOM     73   O  BDP B   5      20.335   1.138  31.6170  0.00  0.00     0.000 O
ATOM     75  HD  BDP B   5      20.223   0.297  31.7890  0.00  0.00     0.000 HD
BRANCH 69 75
ATOM     75   C  BDP B   5      20.304   5.445  33.8580  0.00  0.00     0.000 C
ATOM     76   O  BDP B   5      21.329   6.108  34.1130  0.00  0.00     0.000 OA
ATOM     77   O  BDP B   5      19.274   5.965  33.3900  0.00  0.00     0.000 OA
ENDBRANCH 69 75
BRANCH 65 78
ATOM     78  O3  NAG B   6      17.687   2.654  35.5640  0.00  0.00     0.000 O
BRANCH 78 81
ATOM     79  C1  NAG B   6      15.396   2.603  38.5780  0.00  0.00     0.000 C
ATOM     80  C2  NAG B   6      15.831   2.382  37.1210  0.00  0.00     0.000 C
ATOM     81  C3  NAG B   6      17.307   2.710  36.9570  0.00  0.00     0.000 C
ATOM     82  C4  NAG B   6      17.625   4.095  37.5300  0.00  0.00     0.000 C
ATOM     83  C5  NAG B   6      17.151   4.165  38.9770  0.00  0.00     0.000 C
ATOM     84  O5  NAG B   6      15.741   3.939  38.9820  0.00  0.00     0.000 O
BRANCH 80 87
ATOM     85   N  NAG B   6      14.798   1.779  36.2840  0.00  0.00     0.000 N
ATOM     87  HD  NAG B   6      14.508   1.550  35.5010  0.00  0.00     0.000 HD
ATOM     87   C  NAG B   6      14.966   0.651  35.5820  0.00  0.00     0.000 C
ATOM     88   C  NAG B   6      13.772   0.180  34.8160  0.00  0.00     0.000 C
ATOM     89   O  NAG B   6      16.019   0.024  35.5680  0.00  0.00     0.000 OA
ENDBRANCH 80 87
ATOM     90   O  NAG B   6      18.436   5.314  40.6740  0.00  0.00     0.000 O
ATOM     92  HD  NAG B   6      17.886   4.667  40.5080  0.00  0.00     0.000 HD
ATOM     92   O  NAG B   6      18.436   5.314  40.6740  0.00  0.00     0.000 O
ATOM     94  HD  NAG B   6      17.886   4.667  40.5080  0.00  0.00     0.000 HD
ENDBRANCH 78 81
ENDBRANCH 65 78
ENDBRANCH 64 68
ENDBRANCH 48 64
ENDBRANCH 47 50
ENDBRANCH 34 47
ENDBRANCH 33 37
ENDBRANCH 17 33
ENDBRANCH 16 19
ENDBRANCH 1 16
TORSDOF 16
ENDMDL
MODEL 78
REMARK VINA RESULT:      -2.8     10.921     15.685
ROOT
ATOM      1  C1  BDP B   1      29.012  12.583  46.5620  0.00  0.00     0.000 C
ATOM      2  C2  BDP B   1      29.313  12.034  47.9450  0.00  0.00     0.000 C
ATOM      3  C3  BDP B   1      30.784  12.134  48.2900  0.00  0.00     0.000 C
ATOM      4  C4  BDP B   1      31.576  13.057  47.3720  0.00  0.00     0.000 C
ATOM      5  C5  BDP B   1      31.279  12.819  45.8950  0.00  0.00     0.000 C
ATOM      6  O5  BDP B   1      30.039  12.118  45.6980  0.00  0.00     0.000 O
ATOM      7   O  BDP B   1      28.540  12.733  48.9260  0.00  0.00     0.000 O
ATOM      9  HD  BDP B   1      27.796  13.081  49.1990  0.00  0.00     0.000 HD
ATOM      9   O  BDP B   1      31.391  10.833  48.2300  0.00  0.00     0.000 O
ATOM     11  HD  BDP B   1      30.647  11.182  48.5040  0.00  0.00     0.000 HD
ATOM     11   O  BDP B   1      31.321  14.428  47.7010  0.00  0.00     0.000 O
ATOM     13  HD  BDP B   1      30.577  14.776  47.9750  0.00  0.00     0.000 HD
ENDROOT
BRANCH 5 13
ATOM     13   C  BDP B   1      32.404  12.014  45.3440  0.00  0.00     0.000 C
ATOM     14   O  BDP B   1      33.334  12.617  44.7690  0.00  0.00     0.000 OA
ATOM     15   O  BDP B   1      32.395  10.774  45.4950  0.00  0.00     0.000 OA
ENDBRANCH 5 13
BRANCH 1 16
ATOM     16  O3  NAG B   2      28.140  13.634  46.1520  0.00  0.00     0.000 O
BRANCH 16 19
ATOM     17  C1  NAG B   2      25.252  13.231  43.9710  0.00  0.00     0.000 C
ATOM     18  C2  NAG B   2      25.938  13.006  45.3190  0.00  0.00     0.000 C
ATOM     19  C3  NAG B   2      26.913  14.135  45.6190  0.00  0.00     0.000 C
ATOM     20  C4  NAG B   2      27.198  14.983  44.3760  0.00  0.00     0.000 C
ATOM     21  C5  NAG B   2      27.235  14.208  43.0520  0.00  0.00     0.000 C
ATOM     22  O5  NAG B   2      26.295  13.128  42.9990  0.00  0.00     0.000 O
ATOM     23   O  NAG B   2      26.218  16.024  44.3010  0.00  0.00     0.000 O
ATOM     25  HD  NAG B   2      25.559  15.516  44.5420  0.00  0.00     0.000 HD
ATOM     25   C  NAG B   2      28.640  13.647  42.7920  0.00  0.00     0.000 C
ATOM     26   O  NAG B   2      29.489  14.614  42.1570  0.00  0.00     0.000 O
ATOM     28  HD  NAG B   2      28.830  14.107  42.3980  0.00  0.00     0.000 HD
BRANCH 18 30
ATOM     28   N  NAG B   2      24.516  12.972  45.6600  0.00  0.00     0.000 N
ATOM     30  HD  NAG B   2      23.739  13.225  45.3740  0.00  0.00     0.000 HD
ATOM     30   C  NAG B   2      23.955  13.640  46.6780  0.00  0.00     0.000 C
ATOM     31   C  NAG B   2      22.474  13.433  46.8290  0.00  0.00     0.000 C
ATOM     32   O  NAG B   2      24.575  14.362  47.4240  0.00  0.00     0.000 OA
ENDBRANCH 18 30
BRANCH 17 33
ATOM     33  O4  BDP B   3      24.545  12.759  42.8040  0.00  0.00     0.000 O
BRANCH 33 37
ATOM     34  C1  BDP B   3      23.635  10.225  39.4890  0.00  0.00     0.000 C
ATOM     35  C2  BDP B   3      24.194   9.560  40.7410  0.00  0.00     0.000 C
ATOM     36  C3  BDP B   3      24.094  10.429  41.9900  0.00  0.00     0.000 C
ATOM     37  C4  BDP B   3      24.565  11.854  41.6620  0.00  0.00     0.000 C
ATOM     38  C5  BDP B   3      23.705  12.361  40.4880  0.00  0.00     0.000 C
ATOM     39  O5  BDP B   3      24.091  11.577  39.3600  0.00  0.00     0.000 O
ATOM     40   O  BDP B   3      23.493   8.324  40.8840  0.00  0.00     0.000 O
ATOM     42  HD  BDP B   3      24.082   8.099  40.2910  0.00  0.00     0.000 HD
ATOM     42   O  BDP B   3      24.913   9.815  42.9830  0.00  0.00     0.000 O
ATOM     44  HD  BDP B   3      25.502   9.590  42.3890  0.00  0.00     0.000 HD
BRANCH 38 44
ATOM     44   C  BDP B   3      23.877  13.815  40.1780  0.00  0.00     0.000 C
ATOM     45   O  BDP B   3      22.863  14.546  40.2170  0.00  0.00     0.000 OA
ATOM     46   O  BDP B   3      25.011  14.256  39.8910  0.00  0.00     0.000 OA
ENDBRANCH 38 44
BRANCH 34 47
ATOM     47  O3  NAG B   4      24.409   9.918  38.3310  0.00  0.00     0.000 O
BRANCH 47 50
ATOM     48  C1  NAG B   4      22.670   8.726  35.2160  0.00  0.00     0.000 C
ATOM     49  C2  NAG B   4      23.209   8.650  36.6340  0.00  0.00     0.000 C
ATOM     50  C3  NAG B   4      23.831   9.989  37.0110  0.00  0.00     0.000 C
ATOM     51  C4  NAG B   4      24.897  10.412  36.0120  0.00  0.00     0.000 C
ATOM     52  C5  NAG B   4      24.316  10.402  34.5980  0.00  0.00     0.000 C
ATOM     53  O5  NAG B   4      23.717   9.131  34.3130  0.00  0.00     0.000 O
ATOM     54   O  NAG B   4      25.366  11.719  36.3560  0.00  0.00     0.000 O
ATOM     56  HD  NAG B   4      25.879  11.320  35.7840  0.00  0.00     0.000 HD
ATOM     56   C  NAG B   4      25.389  10.699  33.5570  0.00  0.00     0.000 C
ATOM     57   O  NAG B   4      26.414   9.700  33.6420  0.00  0.00     0.000 O
ATOM     59  HD  NAG B   4      26.928   9.301  33.0710  0.00  0.00     0.000 HD
BRANCH 49 61
ATOM     59   N  NAG B   4      22.059   7.971  37.2320  0.00  0.00     0.000 N
ATOM     61  HD  NAG B   4      22.827   7.767  36.8870  0.00  0.00     0.000 HD
ATOM     61   O  NAG B   4      23.231   6.486  38.4650  0.00  0.00     0.000 OA
ATOM     62   C  NAG B   4      22.169   7.001  38.1470  0.00  0.00     0.000 C
ATOM     63   C  NAG B   4      20.891   6.578  38.7990  0.00  0.00     0.000 C
ENDBRANCH 49 61
BRANCH 48 64
ATOM     64  O4  BDP B   5      21.595   8.068  34.5510  0.00  0.00     0.000 O
BRANCH 64 68
ATOM     65  C1  BDP B   5      19.055   9.859  31.7740  0.00  0.00     0.000 C
ATOM     66  C2  BDP B   5      18.456   9.585  33.1460  0.00  0.00     0.000 C
ATOM     67  C3  BDP B   5      19.572   9.346  34.1550  0.00  0.00     0.000 C
ATOM     68  C4  BDP B   5      20.475   8.214  33.6790  0.00  0.00     0.000 C
ATOM     69  C5  BDP B   5      20.988   8.443  32.2630  0.00  0.00     0.000 C
ATOM     70  O5  BDP B   5      19.901   8.768  31.3780  0.00  0.00     0.000 O
ATOM     71   O  BDP B   5      17.617  10.685  33.5340  0.00  0.00     0.000 O
ATOM     73  HD  BDP B   5      17.141  11.381  33.7270  0.00  0.00     0.000 HD
ATOM     73   O  BDP B   5      19.028   9.010  35.4370  0.00  0.00     0.000 O
ATOM     75  HD  BDP B   5      18.552   9.707  35.6300  0.00  0.00     0.000 HD
BRANCH 69 75
ATOM     75   C  BDP B   5      21.660   7.179  31.7920  0.00  0.00     0.000 C
ATOM     76   O  BDP B   5      21.040   6.101  31.8810  0.00  0.00     0.000 OA
ATOM     77   O  BDP B   5      22.812   7.247  31.3240  0.00  0.00     0.000 OA
ENDBRANCH 69 75
BRANCH 65 78
ATOM     78  O3  NAG B   6      18.457   9.556  30.5100  0.00  0.00     0.000 O
BRANCH 78 81
ATOM     79  C1  NAG B   6      17.177  11.092  27.2950  0.00  0.00     0.000 C
ATOM     80  C2  NAG B   6      17.113  10.518  28.7200  0.00  0.00     0.000 C
ATOM     81  C3  NAG B   6      18.514  10.235  29.2370  0.00  0.00     0.000 C
ATOM     82  C4  NAG B   6      19.308   9.395  28.2310  0.00  0.00     0.000 C
ATOM     83  C5  NAG B   6      19.298  10.088  26.8730  0.00  0.00     0.000 C
ATOM     84  O5  NAG B   6      17.936  10.203  26.4570  0.00  0.00     0.000 O
BRANCH 80 87
ATOM     85   N  NAG B   6      16.481  11.434  29.6660  0.00  0.00     0.000 N
ATOM     87  HD  NAG B   6      15.789  11.889  29.9190  0.00  0.00     0.000 HD
ATOM     87   C  NAG B   6      15.454  11.101  30.4570  0.00  0.00     0.000 C
ATOM     88   C  NAG B   6      14.973  12.174  31.3820  0.00  0.00     0.000 C
ATOM     89   O  NAG B   6      14.937   9.990  30.4500  0.00  0.00     0.000 OA
ENDBRANCH 80 87
ATOM     90   O  NAG B   6      21.250  10.103  25.4470  0.00  0.00     0.000 O
ATOM     92  HD  NAG B   6      20.535  10.528  25.6870  0.00  0.00     0.000 HD
ATOM     92   O  NAG B   6      21.250  10.103  25.4470  0.00  0.00     0.000 O
ATOM     94  HD  NAG B   6      20.535  10.528  25.6870  0.00  0.00     0.000 HD
ENDBRANCH 78 81
ENDBRANCH 65 78
ENDBRANCH 64 68
ENDBRANCH 48 64
ENDBRANCH 47 50
ENDBRANCH 34 47
ENDBRANCH 33 37
ENDBRANCH 17 33
ENDBRANCH 16 19
ENDBRANCH 1 16
TORSDOF 16
ENDMDL
MODEL 79
REMARK VINA RESULT:      -2.8     16.117     25.828
ROOT
ATOM      1  C1  BDP B   1      22.691  36.867  21.3920  0.00  0.00     0.000 C
ATOM      2  C2  BDP B   1      22.737  37.949  22.4560  0.00  0.00     0.000 C
ATOM      3  C3  BDP B   1      22.011  39.205  22.0240  0.00  0.00     0.000 C
ATOM      4  C4  BDP B   1      21.107  39.014  20.8110  0.00  0.00     0.000 C
ATOM      5  C5  BDP B   1      21.787  38.245  19.6830  0.00  0.00     0.000 C
ATOM      6  O5  BDP B   1      22.928  37.502  20.1440  0.00  0.00     0.000 O
ATOM      7   O  BDP B   1      22.166  37.458  23.6740  0.00  0.00     0.000 O
ATOM      9  HD  BDP B   1      22.069  36.839  24.2720  0.00  0.00     0.000 HD
ATOM      9   O  BDP B   1      22.960  40.233  21.7020  0.00  0.00     0.000 O
ATOM     11  HD  BDP B   1      22.863  39.615  22.3000  0.00  0.00     0.000 HD
ATOM     11   O  BDP B   1      19.897  38.346  21.1900  0.00  0.00     0.000 O
ATOM     13  HD  BDP B   1      19.800  37.727  21.7890  0.00  0.00     0.000 HD
ENDROOT
BRANCH 5 13
ATOM     13   C  BDP B   1      22.217  39.244  18.6660  0.00  0.00     0.000 C
ATOM     14   O  BDP B   1      23.358  39.740  18.7720  0.00  0.00     0.000 OA
ATOM     15   O  BDP B   1      21.439  39.533  17.7310  0.00  0.00     0.000 OA
ENDBRANCH 5 13
BRANCH 1 16
ATOM     16  O3  NAG B   2      22.177  35.537  21.4430  0.00  0.00     0.000 O
BRANCH 16 19
ATOM     17  C1  NAG B   2      20.950  32.110  21.3890  0.00  0.00     0.000 C
ATOM     18  C2  NAG B   2      22.111  33.102  21.4630  0.00  0.00     0.000 C
ATOM     19  C3  NAG B   2      21.669  34.394  22.1330  0.00  0.00     0.000 C
ATOM     20  C4  NAG B   2      20.144  34.488  22.2350  0.00  0.00     0.000 C
ATOM     21  C5  NAG B   2      19.374  33.880  21.0550  0.00  0.00     0.000 C
ATOM     22  O5  NAG B   2      19.998  32.712  20.5090  0.00  0.00     0.000 O
ATOM     23   O  NAG B   2      19.731  33.866  23.4560  0.00  0.00     0.000 O
ATOM     25  HD  NAG B   2      20.288  33.206  23.3900  0.00  0.00     0.000 HD
ATOM     25   C  NAG B   2      19.200  34.913  19.9330  0.00  0.00     0.000 C
ATOM     26   O  NAG B   2      18.052  35.745  20.1500  0.00  0.00     0.000 O
ATOM     28  HD  NAG B   2      18.608  35.085  20.0840  0.00  0.00     0.000 HD
BRANCH 18 30
ATOM     28   N  NAG B   2      23.149  32.229  22.0100  0.00  0.00     0.000 N
ATOM     30  HD  NAG B   2      23.408  31.403  22.0280  0.00  0.00     0.000 HD
ATOM     30   C  NAG B   2      23.288  31.920  23.3070  0.00  0.00     0.000 C
ATOM     31   C  NAG B   2      24.441  31.010  23.6200  0.00  0.00     0.000 C
ATOM     32   O  NAG B   2      22.547  32.327  24.1720  0.00  0.00     0.000 OA
ENDBRANCH 18 30
BRANCH 17 33
ATOM     33  O4  BDP B   3      20.284  30.963  20.8170  0.00  0.00     0.000 O
BRANCH 33 37
ATOM     34  C1  BDP B   3      19.481  26.794  20.3490  0.00  0.00     0.000 C
ATOM     35  C2  BDP B   3      20.355  27.208  21.5270  0.00  0.00     0.000 C
ATOM     36  C3  BDP B   3      20.250  28.688  21.8760  0.00  0.00     0.000 C
ATOM     37  C4  BDP B   3      20.336  29.524  20.5900  0.00  0.00     0.000 C
ATOM     38  C5  BDP B   3      19.219  29.032  19.6490  0.00  0.00     0.000 C
ATOM     39  O5  BDP B   3      19.598  27.713  19.2570  0.00  0.00     0.000 O
ATOM     40   O  BDP B   3      19.978  26.367  22.6190  0.00  0.00     0.000 O
ATOM     42  HD  BDP B   3      20.507  25.833  22.1890  0.00  0.00     0.000 HD
ATOM     42   O  BDP B   3      21.325  28.976  22.7680  0.00  0.00     0.000 O
ATOM     44  HD  BDP B   3      21.854  28.442  22.3380  0.00  0.00     0.000 HD
BRANCH 38 44
ATOM     44   C  BDP B   3      19.013  29.883  18.4350  0.00  0.00     0.000 C
ATOM     45   O  BDP B   3      17.961  30.557  18.3640  0.00  0.00     0.000 OA
ATOM     46   O  BDP B   3      19.882  29.898  17.5360  0.00  0.00     0.000 OA
ENDBRANCH 38 44
BRANCH 34 47
ATOM     47  O3  NAG B   4      20.123  25.825  19.5230  0.00  0.00     0.000 O
BRANCH 47 50
ATOM     48  C1  NAG B   4      18.183  22.793  18.4290  0.00  0.00     0.000 C
ATOM     49  C2  NAG B   4      18.927  23.708  19.3860  0.00  0.00     0.000 C
ATOM     50  C3  NAG B   4      19.356  24.971  18.6480  0.00  0.00     0.000 C
ATOM     51  C4  NAG B   4      20.177  24.645  17.4110  0.00  0.00     0.000 C
ATOM     52  C5  NAG B   4      19.409  23.667  16.5210  0.00  0.00     0.000 C
ATOM     53  O5  NAG B   4      19.003  22.518  17.2760  0.00  0.00     0.000 O
ATOM     54   O  NAG B   4      20.457  25.856  16.7040  0.00  0.00     0.000 O
ATOM     56  HD  NAG B   4      20.944  25.192  16.4350  0.00  0.00     0.000 HD
ATOM     56   C  NAG B   4      20.252  23.219  15.3330  0.00  0.00     0.000 C
ATOM     57   O  NAG B   4      21.435  22.570  15.8170  0.00  0.00     0.000 O
ATOM     59  HD  NAG B   4      21.922  21.907  15.5480  0.00  0.00     0.000 HD
BRANCH 49 61
ATOM     59   N  NAG B   4      18.013  23.648  20.5280  0.00  0.00     0.000 N
ATOM     61  HD  NAG B   4      18.721  23.240  20.2390  0.00  0.00     0.000 HD
ATOM     61   O  NAG B   4      19.587  23.343  22.1190  0.00  0.00     0.000 OA
ATOM     62   C  NAG B   4      18.425  23.545  21.7970  0.00  0.00     0.000 C
ATOM     63   C  NAG B   4      17.364  23.715  22.8370  0.00  0.00     0.000 C
ENDBRANCH 49 61
BRANCH 48 64
ATOM     64  O4  BDP B   5      17.154  21.826  18.6140  0.00  0.00     0.000 O
BRANCH 64 68
ATOM     65  C1  BDP B   5      13.426  19.989  18.9250  0.00  0.00     0.000 C
ATOM     66  C2  BDP B   5      14.373  19.404  17.8860  0.00  0.00     0.000 C
ATOM     67  C3  BDP B   5      15.796  19.865  18.1720  0.00  0.00     0.000 C
ATOM     68  C4  BDP B   5      15.854  21.388  18.2200  0.00  0.00     0.000 C
ATOM     69  C5  BDP B   5      14.831  21.973  19.1850  0.00  0.00     0.000 C
ATOM     70  O5  BDP B   5      13.526  21.422  18.9340  0.00  0.00     0.000 O
ATOM     71   O  BDP B   5      14.268  17.972  17.8900  0.00  0.00     0.000 O
ATOM     73  HD  BDP B   5      14.181  17.113  17.9480  0.00  0.00     0.000 HD
ATOM     73   O  BDP B   5      16.692  19.389  17.1610  0.00  0.00     0.000 O
ATOM     75  HD  BDP B   5      16.605  18.530  17.2190  0.00  0.00     0.000 HD
BRANCH 69 75
ATOM     75   C  BDP B   5      14.793  23.467  18.9880  0.00  0.00     0.000 C
ATOM     76   O  BDP B   5      15.068  24.207  19.9540  0.00  0.00     0.000 OA
ATOM     77   O  BDP B   5      14.494  23.920  17.8670  0.00  0.00     0.000 OA
ENDBRANCH 69 75
BRANCH 65 78
ATOM     78  O3  NAG B   6      12.047  20.314  18.7300  0.00  0.00     0.000 O
BRANCH 78 81
ATOM     79  C1  NAG B   6       9.135  19.762  21.0860  0.00  0.00     0.000 C
ATOM     80  C2  NAG B   6      10.349  19.396  20.2180  0.00  0.00     0.000 C
ATOM     81  C3  NAG B   6      11.002  20.654  19.6680  0.00  0.00     0.000 C
ATOM     82  C4  NAG B   6       9.965  21.556  18.9910  0.00  0.00     0.000 C
ATOM     83  C5  NAG B   6       8.831  21.846  19.9670  0.00  0.00     0.000 C
ATOM     84  O5  NAG B   6       8.241  20.596  20.3280  0.00  0.00     0.000 O
BRANCH 80 87
ATOM     85   N  NAG B   6      11.194  18.540  21.0460  0.00  0.00     0.000 N
ATOM     87  HD  NAG B   6      11.358  17.766  21.3990  0.00  0.00     0.000 HD
ATOM     87   C  NAG B   6      11.884  17.492  20.5800  0.00  0.00     0.000 C
ATOM     88   C  NAG B   6      12.718  16.765  21.5860  0.00  0.00     0.000 C
ATOM     89   O  NAG B   6      11.859  17.144  19.4050  0.00  0.00     0.000 OA
ENDBRANCH 80 87
ATOM     90   O  NAG B   6       7.785  24.023  20.0800  0.00  0.00     0.000 O
ATOM     92  HD  NAG B   6       8.003  23.309  20.5190  0.00  0.00     0.000 HD
ATOM     92   O  NAG B   6       7.785  24.023  20.0800  0.00  0.00     0.000 O
ATOM     94  HD  NAG B   6       8.003  23.309  20.5190  0.00  0.00     0.000 HD
ENDBRANCH 78 81
ENDBRANCH 65 78
ENDBRANCH 64 68
ENDBRANCH 48 64
ENDBRANCH 47 50
ENDBRANCH 34 47
ENDBRANCH 33 37
ENDBRANCH 17 33
ENDBRANCH 16 19
ENDBRANCH 1 16
TORSDOF 16
ENDMDL
MODEL 80
REMARK VINA RESULT:      -2.7     13.773     22.324
ROOT
ATOM      1  C1  BDP B   1      28.785  18.091  47.4800  0.00  0.00     0.000 C
ATOM      2  C2  BDP B   1      27.825  19.201  47.8670  0.00  0.00     0.000 C
ATOM      3  C3  BDP B   1      27.573  20.161  46.7230  0.00  0.00     0.000 C
ATOM      4  C4  BDP B   1      28.026  19.641  45.3640  0.00  0.00     0.000 C
ATOM      5  C5  BDP B   1      29.428  19.039  45.4000  0.00  0.00     0.000 C
ATOM      6  O5  BDP B   1      29.834  18.692  46.7340  0.00  0.00     0.000 O
ATOM      7   O  BDP B   1      26.583  18.639  48.3050  0.00  0.00     0.000 O
ATOM      9  HD  BDP B   1      26.131  18.056  48.7590  0.00  0.00     0.000 HD
ATOM      9   O  BDP B   1      28.255  21.401  46.9660  0.00  0.00     0.000 O
ATOM     11  HD  BDP B   1      27.804  20.818  47.4200  0.00  0.00     0.000 HD
ATOM     11   O  BDP B   1      27.096  18.672  44.8640  0.00  0.00     0.000 O
ATOM     13  HD  BDP B   1      26.645  18.089  45.3190  0.00  0.00     0.000 HD
ENDROOT
BRANCH 5 13
ATOM     13   C  BDP B   1      30.359  20.057  44.8400  0.00  0.00     0.000 C
ATOM     14   O  BDP B   1      30.569  20.049  43.6090  0.00  0.00     0.000 OA
ATOM     15   O  BDP B   1      30.876  20.895  45.6080  0.00  0.00     0.000 OA
ENDBRANCH 5 13
BRANCH 1 16
ATOM     16  O3  NAG B   2      28.616  16.675  47.4820  0.00  0.00     0.000 O
BRANCH 16 19
ATOM     17  C1  NAG B   2      26.118  14.136  46.7260  0.00  0.00     0.000 C
ATOM     18  C2  NAG B   2      26.817  15.452  46.3840  0.00  0.00     0.000 C
ATOM     19  C3  NAG B   2      28.259  15.434  46.8700  0.00  0.00     0.000 C
ATOM     20  C4  NAG B   2      28.513  14.284  47.8480  0.00  0.00     0.000 C
ATOM     21  C5  NAG B   2      27.338  13.945  48.7760  0.00  0.00     0.000 C
ATOM     22  O5  NAG B   2      26.058  14.104  48.1540  0.00  0.00     0.000 O
ATOM     23   O  NAG B   2      28.889  13.124  47.0980  0.00  0.00     0.000 O
ATOM     25  HD  NAG B   2      28.310  13.258  46.4680  0.00  0.00     0.000 HD
ATOM     25   C  NAG B   2      27.380  14.814  50.0410  0.00  0.00     0.000 C
ATOM     26   O  NAG B   2      28.233  14.249  51.0460  0.00  0.00     0.000 O
ATOM     28  HD  NAG B   2      27.654  14.383  50.4160  0.00  0.00     0.000 HD
BRANCH 18 30
ATOM     28   N  NAG B   2      26.755  14.575  45.2150  0.00  0.00     0.000 N
ATOM     30  HD  NAG B   2      27.137  13.886  44.8570  0.00  0.00     0.000 HD
ATOM     30   C  NAG B   2      27.065  14.942  43.9630  0.00  0.00     0.000 C
ATOM     31   C  NAG B   2      26.910  13.860  42.9320  0.00  0.00     0.000 C
ATOM     32   O  NAG B   2      27.449  16.050  43.6690  0.00  0.00     0.000 OA
ENDBRANCH 18 30
BRANCH 17 33
ATOM     33  O4  BDP B   3      24.935  13.344  46.9710  0.00  0.00     0.000 O
BRANCH 33 37
ATOM     34  C1  BDP B   3      21.546  10.950  45.9610  0.00  0.00     0.000 C
ATOM     35  C2  BDP B   3      22.684  10.266  46.7100  0.00  0.00     0.000 C
ATOM     36  C3  BDP B   3      23.636  11.240  47.3960  0.00  0.00     0.000 C
ATOM     37  C4  BDP B   3      23.994  12.375  46.4240  0.00  0.00     0.000 C
ATOM     38  C5  BDP B   3      22.673  13.023  45.9690  0.00  0.00     0.000 C
ATOM     39  O5  BDP B   3      22.019  12.042  45.1640  0.00  0.00     0.000 O
ATOM     40   O  BDP B   3      22.070   9.368  47.6360  0.00  0.00     0.000 O
ATOM     42  HD  BDP B   3      22.029   8.895  46.9120  0.00  0.00     0.000 HD
ATOM     42   O  BDP B   3      24.785  10.488  47.7800  0.00  0.00     0.000 O
ATOM     44  HD  BDP B   3      24.744  10.015  47.0560  0.00  0.00     0.000 HD
BRANCH 38 44
ATOM     44   C  BDP B   3      22.841  14.289  45.1890  0.00  0.00     0.000 C
ATOM     45   O  BDP B   3      23.462  14.230  44.1040  0.00  0.00     0.000 OA
ATOM     46   O  BDP B   3      22.365  15.357  45.6330  0.00  0.00     0.000 OA
ENDBRANCH 38 44
BRANCH 34 47
ATOM     47  O3  NAG B   4      21.229  10.278  44.7440  0.00  0.00     0.000 O
BRANCH 47 50
ATOM     48  C1  NAG B   4      17.678   9.316  43.9600  0.00  0.00     0.000 C
ATOM     49  C2  NAG B   4      19.033   9.230  44.6390  0.00  0.00     0.000 C
ATOM     50  C3  NAG B   4      19.913  10.379  44.1610  0.00  0.00     0.000 C
ATOM     51  C4  NAG B   4      20.030  10.401  42.6450  0.00  0.00     0.000 C
ATOM     52  C5  NAG B   4      18.636  10.416  42.0170  0.00  0.00     0.000 C
ATOM     53  O5  NAG B   4      17.846   9.335  42.5290  0.00  0.00     0.000 O
ATOM     54   O  NAG B   4      20.773  11.557  42.2520  0.00  0.00     0.000 O
ATOM     56  HD  NAG B   4      20.687  10.982  41.6100  0.00  0.00     0.000 HD
ATOM     56   C  NAG B   4      18.712  10.311  40.4980  0.00  0.00     0.000 C
ATOM     57   O  NAG B   4      19.364   9.084  40.1460  0.00  0.00     0.000 O
ATOM     59  HD  NAG B   4      19.277   8.508  39.5040  0.00  0.00     0.000 HD
BRANCH 49 61
ATOM     59   N  NAG B   4      18.630   9.035  46.0330  0.00  0.00     0.000 N
ATOM     61  HD  NAG B   4      18.822   8.554  45.3380  0.00  0.00     0.000 HD
ATOM     61   O  NAG B   4      20.034   7.324  46.4840  0.00  0.00     0.000 OA
ATOM     62   C  NAG B   4      19.214   8.152  46.8520  0.00  0.00     0.000 C
ATOM     63   C  NAG B   4      18.816   8.245  48.2910  0.00  0.00     0.000 C
ENDBRANCH 49 61
BRANCH 48 64
ATOM     64  O4  BDP B   5      16.369   8.916  44.3540  0.00  0.00     0.000 O
BRANCH 64 68
ATOM     65  C1  BDP B   5      12.947   7.477  46.2490  0.00  0.00     0.000 C
ATOM     66  C2  BDP B   5      13.546   8.750  46.8310  0.00  0.00     0.000 C
ATOM     67  C3  BDP B   5      14.491   9.382  45.8170  0.00  0.00     0.000 C
ATOM     68  C4  BDP B   5      15.558   8.377  45.3970  0.00  0.00     0.000 C
ATOM     69  C5  BDP B   5      14.953   7.065  44.9140  0.00  0.00     0.000 C
ATOM     70  O5  BDP B   5      13.992   6.571  45.8640  0.00  0.00     0.000 O
ATOM     71   O  BDP B   5      12.493   9.651  47.2080  0.00  0.00     0.000 O
ATOM     73  HD  BDP B   5      11.821  10.163  47.3980  0.00  0.00     0.000 HD
ATOM     73   O  BDP B   5      15.126  10.539  46.3740  0.00  0.00     0.000 O
ATOM     75  HD  BDP B   5      14.454  11.052  46.5640  0.00  0.00     0.000 HD
BRANCH 69 75
ATOM     75   C  BDP B   5      16.066   6.060  44.7550  0.00  0.00     0.000 C
ATOM     76   O  BDP B   5      16.817   5.839  45.7260  0.00  0.00     0.000 OA
ATOM     77   O  BDP B   5      16.201   5.478  43.6630  0.00  0.00     0.000 OA
ENDBRANCH 69 75
BRANCH 65 78
ATOM     78  O3  NAG B   6      12.528   6.324  46.9830  0.00  0.00     0.000 O
BRANCH 78 81
ATOM     79  C1  NAG B   6       9.347   4.287  47.2420  0.00  0.00     0.000 C
ATOM     80  C2  NAG B   6      10.290   5.481  47.4540  0.00  0.00     0.000 C
ATOM     81  C3  NAG B   6      11.577   5.283  46.6690  0.00  0.00     0.000 C
ATOM     82  C4  NAG B   6      12.189   3.909  46.9620  0.00  0.00     0.000 C
ATOM     83  C5  NAG B   6      11.150   2.825  46.6960  0.00  0.00     0.000 C
ATOM     84  O5  NAG B   6      10.041   3.068  47.5630  0.00  0.00     0.000 O
BRANCH 80 87
ATOM     85   N  NAG B   6       9.505   6.670  47.1340  0.00  0.00     0.000 N
ATOM     87  HD  NAG B   6       8.905   7.253  47.3570  0.00  0.00     0.000 HD
ATOM     87   C  NAG B   6       9.615   7.837  47.7800  0.00  0.00     0.000 C
ATOM     88   C  NAG B   6       8.744   8.943  47.2750  0.00  0.00     0.000 C
ATOM     89   O  NAG B   6      10.384   8.012  48.7180  0.00  0.00     0.000 OA
ENDBRANCH 80 87
ATOM     90   O  NAG B   6      11.756   0.715  45.6810  0.00  0.00     0.000 O
ATOM     92  HD  NAG B   6      11.134   1.309  45.7830  0.00  0.00     0.000 HD
ATOM     92   O  NAG B   6      11.756   0.715  45.6810  0.00  0.00     0.000 O
ATOM     94  HD  NAG B   6      11.134   1.309  45.7830  0.00  0.00     0.000 HD
ENDBRANCH 78 81
ENDBRANCH 65 78
ENDBRANCH 64 68
ENDBRANCH 48 64
ENDBRANCH 47 50
ENDBRANCH 34 47
ENDBRANCH 33 37
ENDBRANCH 17 33
ENDBRANCH 16 19
ENDBRANCH 1 16
TORSDOF 16
ENDMDL
MODEL 81
REMARK VINA RESULT:      -2.7     23.853     30.662
ROOT
ATOM      1  C1  BDP B   1      15.966  16.081  64.2810  0.00  0.00     0.000 C
ATOM      2  C2  BDP B   1      15.220  17.286  64.8240  0.00  0.00     0.000 C
ATOM      3  C3  BDP B   1      15.974  18.577  64.5880  0.00  0.00     0.000 C
ATOM      4  C4  BDP B   1      17.108  18.458  63.5750  0.00  0.00     0.000 C
ATOM      5  C5  BDP B   1      17.988  17.235  63.8160  0.00  0.00     0.000 C
ATOM      6  O5  BDP B   1      17.332  16.248  64.6300  0.00  0.00     0.000 O
ATOM      7   O  BDP B   1      13.924  17.369  64.2200  0.00  0.00     0.000 O
ATOM      9  HD  BDP B   1      13.187  17.004  63.9500  0.00  0.00     0.000 HD
ATOM      9   O  BDP B   1      16.539  19.047  65.8220  0.00  0.00     0.000 O
ATOM     11  HD  BDP B   1      15.802  18.682  65.5520  0.00  0.00     0.000 HD
ATOM     11   O  BDP B   1      16.585  18.423  62.2420  0.00  0.00     0.000 O
ATOM     13  HD  BDP B   1      15.848  18.057  61.9720  0.00  0.00     0.000 HD
ENDROOT
BRANCH 5 13
ATOM     13   C  BDP B   1      19.223  17.708  64.4980  0.00  0.00     0.000 C
ATOM     14   O  BDP B   1      20.217  17.983  63.7930  0.00  0.00     0.000 OA
ATOM     15   O  BDP B   1      19.220  17.840  65.7400  0.00  0.00     0.000 OA
ENDBRANCH 5 13
BRANCH 1 16
ATOM     16  O3  NAG B   2      15.577  15.109  63.3130  0.00  0.00     0.000 O
BRANCH 16 19
ATOM     17  C1  NAG B   2      13.597  15.075  60.2570  0.00  0.00     0.000 C
ATOM     18  C2  NAG B   2      14.680  15.712  61.1300  0.00  0.00     0.000 C
ATOM     19  C3  NAG B   2      15.378  14.656  61.9730  0.00  0.00     0.000 C
ATOM     20  C4  NAG B   2      14.603  13.335  61.9840  0.00  0.00     0.000 C
ATOM     21  C5  NAG B   2      13.075  13.476  61.9600  0.00  0.00     0.000 C
ATOM     22  O5  NAG B   2      12.618  14.584  61.1750  0.00  0.00     0.000 O
ATOM     23   O  NAG B   2      15.034  12.546  60.8700  0.00  0.00     0.000 O
ATOM     25  HD  NAG B   2      15.072  13.214  60.3210  0.00  0.00     0.000 HD
ATOM     25   C  NAG B   2      12.523  13.624  63.3850  0.00  0.00     0.000 C
ATOM     26   O  NAG B   2      12.316  12.350  64.0090  0.00  0.00     0.000 O
ATOM     28  HD  NAG B   2      12.353  13.018  63.4600  0.00  0.00     0.000 HD
BRANCH 18 30
ATOM     28   N  NAG B   2      15.127  15.584  59.7430  0.00  0.00     0.000 N
ATOM     30  HD  NAG B   2      15.394  14.999  59.1630  0.00  0.00     0.000 HD
ATOM     30   C  NAG B   2      16.287  16.053  59.2640  0.00  0.00     0.000 C
ATOM     31   C  NAG B   2      16.513  15.804  57.7990  0.00  0.00     0.000 C
ATOM     32   O  NAG B   2      17.105  16.629  59.9430  0.00  0.00     0.000 OA
ENDBRANCH 18 30
BRANCH 17 33
ATOM     33  O4  BDP B   3      12.382  15.140  59.4810  0.00  0.00     0.000 O
BRANCH 33 37
ATOM     34  C1  BDP B   3       9.745  12.938  56.9420  0.00  0.00     0.000 C
ATOM     35  C2  BDP B   3      11.238  12.675  56.7920  0.00  0.00     0.000 C
ATOM     36  C3  BDP B   3      12.066  13.154  57.9800  0.00  0.00     0.000 C
ATOM     37  C4  BDP B   3      11.623  14.571  58.3740  0.00  0.00     0.000 C
ATOM     38  C5  BDP B   3      10.110  14.514  58.6600  0.00  0.00     0.000 C
ATOM     39  O5  BDP B   3       9.487  14.271  57.3990  0.00  0.00     0.000 O
ATOM     40   O  BDP B   3      11.376  11.270  56.5690  0.00  0.00     0.000 O
ATOM     42  HD  BDP B   3      11.164  11.533  55.7710  0.00  0.00     0.000 HD
ATOM     42   O  BDP B   3      13.431  13.120  57.5680  0.00  0.00     0.000 O
ATOM     44  HD  BDP B   3      13.220  13.383  56.7700  0.00  0.00     0.000 HD
BRANCH 38 44
ATOM     44   C  BDP B   3       9.548  15.760  59.2720  0.00  0.00     0.000 C
ATOM     45   O  BDP B   3       9.620  16.819  58.6110  0.00  0.00     0.000 OA
ATOM     46   O  BDP B   3       9.031  15.712  60.4090  0.00  0.00     0.000 OA
ENDBRANCH 38 44
BRANCH 34 47
ATOM     47  O3  NAG B   4       9.141  13.310  55.7050  0.00  0.00     0.000 O
BRANCH 47 50
ATOM     48  C1  NAG B   4       5.803  11.796  54.8590  0.00  0.00     0.000 C
ATOM     49  C2  NAG B   4       7.300  11.831  55.1110  0.00  0.00     0.000 C
ATOM     50  C3  NAG B   4       7.712  13.239  55.5250  0.00  0.00     0.000 C
ATOM     51  C4  NAG B   4       7.277  14.274  54.5000  0.00  0.00     0.000 C
ATOM     52  C5  NAG B   4       5.777  14.145  54.2350  0.00  0.00     0.000 C
ATOM     53  O5  NAG B   4       5.446  12.795  53.8830  0.00  0.00     0.000 O
ATOM     54   O  NAG B   4       7.592  15.579  54.9920  0.00  0.00     0.000 O
ATOM     56  HD  NAG B   4       7.398  15.579  54.1480  0.00  0.00     0.000 HD
ATOM     56   C  NAG B   4       5.328  15.082  53.1200  0.00  0.00     0.000 C
ATOM     57   O  NAG B   4       6.039  14.754  51.9190  0.00  0.00     0.000 O
ATOM     59  HD  NAG B   4       5.845  14.754  51.0750  0.00  0.00     0.000 HD
BRANCH 49 61
ATOM     59   N  NAG B   4       7.482  10.665  55.9750  0.00  0.00     0.000 N
ATOM     61  HD  NAG B   4       7.489  10.855  55.1300  0.00  0.00     0.000 HD
ATOM     61   O  NAG B   4       9.241   9.778  54.8700  0.00  0.00     0.000 OA
ATOM     62   C  NAG B   4       8.477   9.782  55.8240  0.00  0.00     0.000 C
ATOM     63   C  NAG B   4       8.628   8.782  56.9260  0.00  0.00     0.000 C
ENDBRANCH 49 61
BRANCH 48 64
ATOM     64  O4  BDP B   5       4.824  10.769  54.9770  0.00  0.00     0.000 O
BRANCH 64 68
ATOM     65  C1  BDP B   5       5.148   6.879  53.5170  0.00  0.00     0.000 C
ATOM     66  C2  BDP B   5       4.384   7.860  52.6370  0.00  0.00     0.000 C
ATOM     67  C3  BDP B   5       4.708   9.287  53.0600  0.00  0.00     0.000 C
ATOM     68  C4  BDP B   5       4.404   9.477  54.5420  0.00  0.00     0.000 C
ATOM     69  C5  BDP B   5       5.088   8.427  55.4090  0.00  0.00     0.000 C
ATOM     70  O5  BDP B   5       4.832   7.106  54.8990  0.00  0.00     0.000 O
ATOM     71   O  BDP B   5       4.712   7.627  51.2590  0.00  0.00     0.000 O
ATOM     73  HD  BDP B   5       4.960   7.459  50.4460  0.00  0.00     0.000 HD
ATOM     73   O  BDP B   5       3.940  10.224  52.2960  0.00  0.00     0.000 O
ATOM     75  HD  BDP B   5       4.188  10.056  51.4840  0.00  0.00     0.000 HD
BRANCH 69 75
ATOM     75   C  BDP B   5       4.543   8.541  56.8090  0.00  0.00     0.000 C
ATOM     76   O  BDP B   5       3.399   8.102  57.0450  0.00  0.00     0.000 OA
ATOM     77   O  BDP B   5       5.249   9.064  57.6910  0.00  0.00     0.000 OA
ENDBRANCH 69 75
BRANCH 65 78
ATOM     78  O3  NAG B   6       4.733   5.558  53.8740  0.00  0.00     0.000 O
BRANCH 78 81
ATOM     79  C1  NAG B   6       6.138   2.063  53.4930  0.00  0.00     0.000 C
ATOM     80  C2  NAG B   6       5.472   3.380  53.0670  0.00  0.00     0.000 C
ATOM     81  C3  NAG B   6       5.491   4.376  54.2150  0.00  0.00     0.000 C
ATOM     82  C4  NAG B   6       4.929   3.746  55.4930  0.00  0.00     0.000 C
ATOM     83  C5  NAG B   6       5.689   2.460  55.8000  0.00  0.00     0.000 C
ATOM     84  O5  NAG B   6       5.510   1.577  54.6930  0.00  0.00     0.000 O
BRANCH 80 87
ATOM     85   N  NAG B   6       6.148   3.799  51.8420  0.00  0.00     0.000 N
ATOM     87  HD  NAG B   6       6.270   3.717  50.9890  0.00  0.00     0.000 HD
ATOM     87   C  NAG B   6       5.532   4.385  50.8080  0.00  0.00     0.000 C
ATOM     88   C  NAG B   6       6.411   4.769  49.6610  0.00  0.00     0.000 C
ATOM     89   O  NAG B   6       4.328   4.614  50.7900  0.00  0.00     0.000 OA
ENDBRANCH 80 87
ATOM     90   O  NAG B   6       6.257   1.838  58.0670  0.00  0.00     0.000 O
ATOM     92  HD  NAG B   6       6.486   1.793  57.2330  0.00  0.00     0.000 HD
ATOM     92   O  NAG B   6       6.257   1.838  58.0670  0.00  0.00     0.000 O
ATOM     94  HD  NAG B   6       6.486   1.793  57.2330  0.00  0.00     0.000 HD
ENDBRANCH 78 81
ENDBRANCH 65 78
ENDBRANCH 64 68
ENDBRANCH 48 64
ENDBRANCH 47 50
ENDBRANCH 34 47
ENDBRANCH 33 37
ENDBRANCH 17 33
ENDBRANCH 16 19
ENDBRANCH 1 16
TORSDOF 16
ENDMDL
MODEL 82
REMARK VINA RESULT:      -2.6     15.416     25.864
ROOT
ATOM      1  C1  BDP B   1      27.990  34.528  22.3460  0.00  0.00     0.000 C
ATOM      2  C2  BDP B   1      28.232  34.711  23.8340  0.00  0.00     0.000 C
ATOM      3  C3  BDP B   1      27.692  36.031  24.3410  0.00  0.00     0.000 C
ATOM      4  C4  BDP B   1      26.732  36.721  23.3790  0.00  0.00     0.000 C
ATOM      5  C5  BDP B   1      27.253  36.749  21.9450  0.00  0.00     0.000 C
ATOM      6  O5  BDP B   1      28.282  35.770  21.7230  0.00  0.00     0.000 O
ATOM      7   O  BDP B   1      27.632  33.634  24.5610  0.00  0.00     0.000 O
ATOM      9  HD  BDP B   1      27.461  32.792  24.6680  0.00  0.00     0.000 HD
ATOM      9   O  BDP B   1      28.775  36.937  24.6010  0.00  0.00     0.000 O
ATOM     11  HD  BDP B   1      28.604  36.095  24.7070  0.00  0.00     0.000 HD
ATOM     11   O  BDP B   1      25.447  36.086  23.4140  0.00  0.00     0.000 O
ATOM     13  HD  BDP B   1      25.276  35.244  23.5200  0.00  0.00     0.000 HD
ENDROOT
BRANCH 5 13
ATOM     13   C  BDP B   1      27.797  38.113  21.7010  0.00  0.00     0.000 C
ATOM     14   O  BDP B   1      29.001  38.322  21.9550  0.00  0.00     0.000 OA
ATOM     15   O  BDP B   1      27.044  38.992  21.2280  0.00  0.00     0.000 OA
ENDBRANCH 5 13
BRANCH 1 16
ATOM     16  O3  NAG B   2      27.283  33.510  21.6410  0.00  0.00     0.000 O
BRANCH 16 19
ATOM     17  C1  NAG B   2      24.432  31.252  21.8000  0.00  0.00     0.000 C
ATOM     18  C2  NAG B   2      25.064  32.612  22.0940  0.00  0.00     0.000 C
ATOM     19  C3  NAG B   2      26.110  32.955  21.0440  0.00  0.00     0.000 C
ATOM     20  C4  NAG B   2      26.488  31.734  20.2000  0.00  0.00     0.000 C
ATOM     21  C5  NAG B   2      26.503  30.399  20.9570  0.00  0.00     0.000 C
ATOM     22  O5  NAG B   2      25.489  30.304  21.9640  0.00  0.00     0.000 O
ATOM     23   O  NAG B   2      25.588  31.653  19.0900  0.00  0.00     0.000 O
ATOM     25  HD  NAG B   2      24.887  31.869  19.5520  0.00  0.00     0.000 HD
ATOM     25   C  NAG B   2      27.870  30.165  21.6140  0.00  0.00     0.000 C
ATOM     26   O  NAG B   2      28.803  29.568  20.7020  0.00  0.00     0.000 O
ATOM     28  HD  NAG B   2      28.103  29.784  21.1630  0.00  0.00     0.000 HD
BRANCH 18 30
ATOM     28   N  NAG B   2      23.723  32.762  21.5300  0.00  0.00     0.000 N
ATOM     30  HD  NAG B   2      23.277  32.671  20.7930  0.00  0.00     0.000 HD
ATOM     30   C  NAG B   2      23.097  33.932  21.3380  0.00  0.00     0.000 C
ATOM     31   C  NAG B   2      21.717  33.822  20.7530  0.00  0.00     0.000 C
ATOM     32   O  NAG B   2      23.591  35.003  21.6030  0.00  0.00     0.000 OA
ENDBRANCH 18 30
BRANCH 17 33
ATOM     33  O4  BDP B   3      23.723  30.059  22.2010  0.00  0.00     0.000 O
BRANCH 33 37
ATOM     34  C1  BDP B   3      21.850  26.335  21.2670  0.00  0.00     0.000 C
ATOM     35  C2  BDP B   3      22.566  26.439  22.6090  0.00  0.00     0.000 C
ATOM     36  C3  BDP B   3      22.830  27.873  23.0510  0.00  0.00     0.000 C
ATOM     37  C4  BDP B   3      23.397  28.677  21.8710  0.00  0.00     0.000 C
ATOM     38  C5  BDP B   3      22.386  28.566  20.7140  0.00  0.00     0.000 C
ATOM     39  O5  BDP B   3      22.434  27.204  20.2890  0.00  0.00     0.000 O
ATOM     40   O  BDP B   3      21.761  25.722  23.5470  0.00  0.00     0.000 O
ATOM     42  HD  BDP B   3      22.184  25.066  23.1740  0.00  0.00     0.000 HD
ATOM     42   O  BDP B   3      23.752  27.804  24.1380  0.00  0.00     0.000 O
ATOM     44  HD  BDP B   3      24.176  27.147  23.7650  0.00  0.00     0.000 HD
BRANCH 38 44
ATOM     44   C  BDP B   3      22.670  29.470  19.5550  0.00  0.00     0.000 C
ATOM     45   O  BDP B   3      23.672  29.219  18.8500  0.00  0.00     0.000 OA
ATOM     46   O  BDP B   3      21.912  30.437  19.3250  0.00  0.00     0.000 OA
ENDBRANCH 38 44
BRANCH 34 47
ATOM     47  O3  NAG B   4      22.328  25.239  20.4900  0.00  0.00     0.000 O
BRANCH 47 50
ATOM     48  C1  NAG B   4      19.705  23.078  18.8790  0.00  0.00     0.000 C
ATOM     49  C2  NAG B   4      20.490  23.716  20.0120  0.00  0.00     0.000 C
ATOM     50  C3  NAG B   4      21.526  24.673  19.4330  0.00  0.00     0.000 C
ATOM     51  C4  NAG B   4      22.430  23.978  18.4270  0.00  0.00     0.000 C
ATOM     52  C5  NAG B   4      21.582  23.296  17.3520  0.00  0.00     0.000 C
ATOM     53  O5  NAG B   4      20.607  22.437  17.9560  0.00  0.00     0.000 O
ATOM     54   O  NAG B   4      23.305  24.945  17.8410  0.00  0.00     0.000 O
ATOM     56  HD  NAG B   4      23.554  24.131  17.6830  0.00  0.00     0.000 HD
ATOM     56   C  NAG B   4      22.448  22.485  16.3960  0.00  0.00     0.000 C
ATOM     57   O  NAG B   4      23.148  21.478  17.1400  0.00  0.00     0.000 O
ATOM     59  HD  NAG B   4      23.397  20.664  16.9810  0.00  0.00     0.000 HD
BRANCH 49 61
ATOM     59   N  NAG B   4      20.711  22.478  20.7600  0.00  0.00     0.000 N
ATOM     61  HD  NAG B   4      20.897  23.321  20.8290  0.00  0.00     0.000 HD
ATOM     61   O  NAG B   4      20.299  23.324  22.8130  0.00  0.00     0.000 OA
ATOM     62   C  NAG B   4      20.525  22.372  22.0810  0.00  0.00     0.000 C
ATOM     63   C  NAG B   4      20.590  20.983  22.6350  0.00  0.00     0.000 C
ENDBRANCH 49 61
BRANCH 48 64
ATOM     64  O4  BDP B   5      18.374  22.579  18.7830  0.00  0.00     0.000 O
BRANCH 64 68
ATOM     65  C1  BDP B   5      14.241  22.042  18.7810  0.00  0.00     0.000 C
ATOM     66  C2  BDP B   5      14.731  23.451  18.4720  0.00  0.00     0.000 C
ATOM     67  C3  BDP B   5      16.204  23.407  18.0860  0.00  0.00     0.000 C
ATOM     68  C4  BDP B   5      17.016  22.739  19.1900  0.00  0.00     0.000 C
ATOM     69  C5  BDP B   5      16.457  21.374  19.5680  0.00  0.00     0.000 C
ATOM     70  O5  BDP B   5      15.043  21.458  19.8190  0.00  0.00     0.000 O
ATOM     71   O  BDP B   5      13.926  24.023  17.4290  0.00  0.00     0.000 O
ATOM     73  HD  BDP B   5      13.423  24.312  16.7860  0.00  0.00     0.000 HD
ATOM     73   O  BDP B   5      16.705  24.731  17.8650  0.00  0.00     0.000 O
ATOM     75  HD  BDP B   5      16.203  25.020  17.2220  0.00  0.00     0.000 HD
BRANCH 69 75
ATOM     75   C  BDP B   5      17.162  20.902  20.8140  0.00  0.00     0.000 C
ATOM     76   O  BDP B   5      17.127  21.622  21.8330  0.00  0.00     0.000 OA
ATOM     77   O  BDP B   5      17.756  19.808  20.7940  0.00  0.00     0.000 OA
ENDBRANCH 69 75
BRANCH 65 78
ATOM     78  O3  NAG B   6      13.201  21.687  19.6970  0.00  0.00     0.000 O
BRANCH 78 81
ATOM     79  C1  NAG B   6       9.923  19.804  19.5000  0.00  0.00     0.000 C
ATOM     80  C2  NAG B   6      10.907  20.968  19.3030  0.00  0.00     0.000 C
ATOM     81  C3  NAG B   6      12.305  20.556  19.7350  0.00  0.00     0.000 C
ATOM     82  C4  NAG B   6      12.285  19.950  21.1420  0.00  0.00     0.000 C
ATOM     83  C5  NAG B   6      11.280  18.805  21.1870  0.00  0.00     0.000 C
ATOM     84  O5  NAG B   6       9.998  19.342  20.8610  0.00  0.00     0.000 O
BRANCH 80 87
ATOM     85   N  NAG B   6      10.783  21.388  17.9100  0.00  0.00     0.000 N
ATOM     87  HD  NAG B   6      10.342  21.801  17.2890  0.00  0.00     0.000 HD
ATOM     87   C  NAG B   6      10.824  22.664  17.5060  0.00  0.00     0.000 C
ATOM     88   C  NAG B   6      10.713  22.880  16.0300  0.00  0.00     0.000 C
ATOM     89   O  NAG B   6      10.958  23.606  18.2780  0.00  0.00     0.000 OA
ENDBRANCH 80 87
ATOM     90   O  NAG B   6      11.724  16.781  22.4350  0.00  0.00     0.000 O
ATOM     92  HD  NAG B   6      11.324  17.127  21.7490  0.00  0.00     0.000 HD
ATOM     92   O  NAG B   6      11.724  16.781  22.4350  0.00  0.00     0.000 O
ATOM     94  HD  NAG B   6      11.324  17.127  21.7490  0.00  0.00     0.000 HD
ENDBRANCH 78 81
ENDBRANCH 65 78
ENDBRANCH 64 68
ENDBRANCH 48 64
ENDBRANCH 47 50
ENDBRANCH 34 47
ENDBRANCH 33 37
ENDBRANCH 17 33
ENDBRANCH 16 19
ENDBRANCH 1 16
TORSDOF 16
ENDMDL
MODEL 83
REMARK VINA RESULT:      -2.5     12.130     16.576
ROOT
ATOM      1  C1  BDP B   1      22.616  21.641  41.7610  0.00  0.00     0.000 C
ATOM      2  C2  BDP B   1      23.674  22.047  42.7710  0.00  0.00     0.000 C
ATOM      3  C3  BDP B   1      23.678  23.539  43.0230  0.00  0.00     0.000 C
ATOM      4  C4  BDP B   1      22.435  24.259  42.5130  0.00  0.00     0.000 C
ATOM      5  C5  BDP B   1      22.056  23.850  41.0930  0.00  0.00     0.000 C
ATOM      6  O5  BDP B   1      22.654  22.598  40.7130  0.00  0.00     0.000 O
ATOM      7   O  BDP B   1      23.463  21.351  44.0040  0.00  0.00     0.000 O
ATOM      9  HD  BDP B   1      23.281  20.630  44.4470  0.00  0.00     0.000 HD
ATOM      9   O  BDP B   1      24.819  24.140  42.3920  0.00  0.00     0.000 O
ATOM     11  HD  BDP B   1      24.638  23.419  42.8360  0.00  0.00     0.000 HD
ATOM     11   O  BDP B   1      21.328  24.029  43.3940  0.00  0.00     0.000 O
ATOM     13  HD  BDP B   1      21.146  23.308  43.8370  0.00  0.00     0.000 HD
ENDROOT
BRANCH 5 13
ATOM     13   C  BDP B   1      22.528  24.929  40.1830  0.00  0.00     0.000 C
ATOM     14   O  BDP B   1      23.690  24.852  39.7300  0.00  0.00     0.000 OA
ATOM     15   O  BDP B   1      21.746  25.855  39.8810  0.00  0.00     0.000 OA
ENDBRANCH 5 13
BRANCH 1 16
ATOM     16  O3  NAG B   2      21.517  20.739  41.8800  0.00  0.00     0.000 O
BRANCH 16 19
ATOM     17  C1  NAG B   2      18.870  19.576  39.6680  0.00  0.00     0.000 C
ATOM     18  C2  NAG B   2      20.348  19.865  39.9300  0.00  0.00     0.000 C
ATOM     19  C3  NAG B   2      20.676  19.687  41.4050  0.00  0.00     0.000 C
ATOM     20  C4  NAG B   2      19.409  19.612  42.2620  0.00  0.00     0.000 C
ATOM     21  C5  NAG B   2      18.248  20.497  41.7880  0.00  0.00     0.000 C
ATOM     22  O5  NAG B   2      18.159  20.604  40.3620  0.00  0.00     0.000 O
ATOM     23   O  NAG B   2      18.984  18.247  42.3250  0.00  0.00     0.000 O
ATOM     25  HD  NAG B   2      19.154  18.082  41.4920  0.00  0.00     0.000 HD
ATOM     25   C  NAG B   2      18.368  21.909  42.3790  0.00  0.00     0.000 C
ATOM     26   O  NAG B   2      17.789  21.987  43.6890  0.00  0.00     0.000 O
ATOM     28  HD  NAG B   2      17.959  21.822  42.8560  0.00  0.00     0.000 HD
BRANCH 18 30
ATOM     28   N  NAG B   2      20.889  18.509  40.0020  0.00  0.00     0.000 N
ATOM     30  HD  NAG B   2      21.605  18.069  40.2120  0.00  0.00     0.000 HD
ATOM     30   C  NAG B   2      21.162  17.734  38.9420  0.00  0.00     0.000 C
ATOM     31   C  NAG B   2      21.702  16.372  39.2780  0.00  0.00     0.000 C
ATOM     32   O  NAG B   2      21.000  18.088  37.7980  0.00  0.00     0.000 OA
ENDBRANCH 18 30
BRANCH 17 33
ATOM     33  O4  BDP B   3      17.662  19.704  38.8860  0.00  0.00     0.000 O
BRANCH 33 37
ATOM     34  C1  BDP B   3      15.197  19.389  35.4130  0.00  0.00     0.000 C
ATOM     35  C2  BDP B   3      16.426  18.491  35.4780  0.00  0.00     0.000 C
ATOM     36  C3  BDP B   3      17.002  18.345  36.8820  0.00  0.00     0.000 C
ATOM     37  C4  BDP B   3      17.086  19.728  37.5470  0.00  0.00     0.000 C
ATOM     38  C5  BDP B   3      15.670  20.334  37.5230  0.00  0.00     0.000 C
ATOM     39  O5  BDP B   3      15.389  20.603  36.1490  0.00  0.00     0.000 O
ATOM     40   O  BDP B   3      16.034  17.235  34.9210  0.00  0.00     0.000 O
ATOM     42  HD  BDP B   3      16.185  17.685  34.1970  0.00  0.00     0.000 HD
ATOM     42   O  BDP B   3      18.289  17.748  36.7370  0.00  0.00     0.000 O
ATOM     44  HD  BDP B   3      18.441  18.197  36.0130  0.00  0.00     0.000 HD
BRANCH 38 44
ATOM     44   C  BDP B   3      15.519  21.588  38.3260  0.00  0.00     0.000 C
ATOM     45   O  BDP B   3      14.869  21.525  39.3930  0.00  0.00     0.000 OA
ATOM     46   O  BDP B   3      16.037  22.650  37.9170  0.00  0.00     0.000 OA
ENDBRANCH 38 44
BRANCH 34 47
ATOM     47  O3  NAG B   4      15.177  20.183  34.2280  0.00  0.00     0.000 O
BRANCH 47 50
ATOM     48  C1  NAG B   4      12.032  20.440  32.1820  0.00  0.00     0.000 C
ATOM     49  C2  NAG B   4      13.287  19.796  32.7430  0.00  0.00     0.000 C
ATOM     50  C3  NAG B   4      13.946  20.749  33.7340  0.00  0.00     0.000 C
ATOM     51  C4  NAG B   4      14.227  22.104  33.1040  0.00  0.00     0.000 C
ATOM     52  C5  NAG B   4      12.944  22.670  32.4960  0.00  0.00     0.000 C
ATOM     53  O5  NAG B   4      12.353  21.719  31.6010  0.00  0.00     0.000 O
ATOM     54   O  NAG B   4      14.742  22.985  34.1060  0.00  0.00     0.000 O
ATOM     56  HD  NAG B   4      14.856  23.290  33.3040  0.00  0.00     0.000 HD
ATOM     56   C  NAG B   4      13.213  23.970  31.7470  0.00  0.00     0.000 C
ATOM     57   O  NAG B   4      14.150  23.717  30.6920  0.00  0.00     0.000 O
ATOM     59  HD  NAG B   4      14.264  24.022  29.8900  0.00  0.00     0.000 HD
BRANCH 49 61
ATOM     59   N  NAG B   4      12.780  18.470  33.0970  0.00  0.00     0.000 N
ATOM     61  HD  NAG B   4      13.149  18.865  32.4200  0.00  0.00     0.000 HD
ATOM     61   O  NAG B   4      14.460  17.279  32.1690  0.00  0.00     0.000 OA
ATOM     62   C  NAG B   4      13.443  17.335  32.8450  0.00  0.00     0.000 C
ATOM     63   C  NAG B   4      12.873  16.101  33.4680  0.00  0.00     0.000 C
ENDBRANCH 49 61
BRANCH 48 64
ATOM     64  O4  BDP B   5      10.804  19.908  31.6930  0.00  0.00     0.000 O
BRANCH 64 68
ATOM     65  C1  BDP B   5       8.223  17.985  29.0460  0.00  0.00     0.000 C
ATOM     66  C2  BDP B   5       7.991  17.705  30.5240  0.00  0.00     0.000 C
ATOM     67  C3  BDP B   5       8.688  18.770  31.3620  0.00  0.00     0.000 C
ATOM     68  C4  BDP B   5      10.170  18.829  31.0080  0.00  0.00     0.000 C
ATOM     69  C5  BDP B   5      10.396  19.003  29.5120  0.00  0.00     0.000 C
ATOM     70  O5  BDP B   5       9.631  18.038  28.7680  0.00  0.00     0.000 O
ATOM     71   O  BDP B   5       6.581  17.660  30.7910  0.00  0.00     0.000 O
ATOM     73  HD  BDP B   5       5.722  17.663  30.9000  0.00  0.00     0.000 HD
ATOM     73   O  BDP B   5       8.547  18.482  32.7590  0.00  0.00     0.000 O
ATOM     75  HD  BDP B   5       7.688  18.485  32.8680  0.00  0.00     0.000 HD
BRANCH 69 75
ATOM     75   C  BDP B   5      11.864  18.808  29.2290  0.00  0.00     0.000 C
ATOM     76   O  BDP B   5      12.509  19.752  28.7290  0.00  0.00     0.000 OA
ATOM     77   O  BDP B   5      12.391  17.715  29.5050  0.00  0.00     0.000 OA
ENDBRANCH 69 75
BRANCH 65 78
ATOM     78  O3  NAG B   6       8.284  17.013  27.9980  0.00  0.00     0.000 O
BRANCH 78 81
ATOM     79  C1  NAG B   6       6.604  16.572  24.6340  0.00  0.00     0.000 C
ATOM     80  C2  NAG B   6       6.734  16.594  26.1650  0.00  0.00     0.000 C
ATOM     81  C3  NAG B   6       8.096  17.132  26.5710  0.00  0.00     0.000 C
ATOM     82  C4  NAG B   6       9.217  16.393  25.8320  0.00  0.00     0.000 C
ATOM     83  C5  NAG B   6       8.966  16.463  24.3300  0.00  0.00     0.000 C
ATOM     84  O5  NAG B   6       7.708  15.839  24.0720  0.00  0.00     0.000 O
BRANCH 80 87
ATOM     85   N  NAG B   6       5.565  17.324  26.6490  0.00  0.00     0.000 N
ATOM     87  HD  NAG B   6       4.720  17.343  26.8380  0.00  0.00     0.000 HD
ATOM     87   C  NAG B   6       4.913  17.029  27.7800  0.00  0.00     0.000 C
ATOM     88   C  NAG B   6       3.761  17.920  28.1160  0.00  0.00     0.000 C
ATOM     89   O  NAG B   6       5.234  16.101  28.5140  0.00  0.00     0.000 OA
ENDBRANCH 80 87
ATOM     90   O  NAG B   6      10.780  16.762  22.7580  0.00  0.00     0.000 O
ATOM     92  HD  NAG B   6       9.942  16.907  22.9220  0.00  0.00     0.000 HD
ATOM     92   O  NAG B   6      10.780  16.762  22.7580  0.00  0.00     0.000 O
ATOM     94  HD  NAG B   6       9.942  16.907  22.9220  0.00  0.00     0.000 HD
ENDBRANCH 78 81
ENDBRANCH 65 78
ENDBRANCH 64 68
ENDBRANCH 48 64
ENDBRANCH 47 50
ENDBRANCH 34 47
ENDBRANCH 33 37
ENDBRANCH 17 33
ENDBRANCH 16 19
ENDBRANCH 1 16
TORSDOF 16
ENDMDL
MODEL 84
REMARK VINA RESULT:      -2.4     10.469     17.479
ROOT
ATOM      1  C1  BDP B   1      33.427   5.515  40.1990  0.00  0.00     0.000 C
ATOM      2  C2  BDP B   1      33.026   6.819  40.8670  0.00  0.00     0.000 C
ATOM      3  C3  BDP B   1      34.173   7.444  41.6320  0.00  0.00     0.000 C
ATOM      4  C4  BDP B   1      35.538   6.857  41.2930  0.00  0.00     0.000 C
ATOM      5  C5  BDP B   1      35.536   5.331  41.2730  0.00  0.00     0.000 C
ATOM      6  O5  BDP B   1      34.210   4.793  41.1370  0.00  0.00     0.000 O
ATOM      7   O  BDP B   1      32.544   7.741  39.8840  0.00  0.00     0.000 O
ATOM      9  HD  BDP B   1      32.069   7.926  39.1830  0.00  0.00     0.000 HD
ATOM      9   O  BDP B   1      33.966   7.282  43.0440  0.00  0.00     0.000 O
ATOM     11  HD  BDP B   1      33.492   7.466  42.3430  0.00  0.00     0.000 HD
ATOM     11   O  BDP B   1      35.998   7.356  40.0320  0.00  0.00     0.000 O
ATOM     13  HD  BDP B   1      35.524   7.541  39.3310  0.00  0.00     0.000 HD
ENDROOT
BRANCH 5 13
ATOM     13   C  BDP B   1      36.136   4.872  42.5560  0.00  0.00     0.000 C
ATOM     14   O  BDP B   1      36.130   3.649  42.8050  0.00  0.00     0.000 OA
ATOM     15   O  BDP B   1      36.646   5.716  43.3240  0.00  0.00     0.000 OA
ENDBRANCH 5 13
BRANCH 1 16
ATOM     16  O3  NAG B   2      33.401   5.131  38.8260  0.00  0.00     0.000 O
BRANCH 16 19
ATOM     17  C1  NAG B   2      30.473   3.848  37.0840  0.00  0.00     0.000 C
ATOM     18  C2  NAG B   2      31.229   5.010  37.7300  0.00  0.00     0.000 C
ATOM     19  C3  NAG B   2      32.731   4.805  37.6070  0.00  0.00     0.000 C
ATOM     20  C4  NAG B   2      33.077   3.372  37.1950  0.00  0.00     0.000 C
ATOM     21  C5  NAG B   2      32.154   2.288  37.7690  0.00  0.00     0.000 C
ATOM     22  O5  NAG B   2      30.788   2.705  37.8830  0.00  0.00     0.000 O
ATOM     23   O  NAG B   2      33.081   3.298  35.7660  0.00  0.00     0.000 O
ATOM     25  HD  NAG B   2      32.380   3.797  35.6680  0.00  0.00     0.000 HD
ATOM     25   C  NAG B   2      32.645   1.836  39.1520  0.00  0.00     0.000 C
ATOM     26   O  NAG B   2      33.648   0.816  39.0520  0.00  0.00     0.000 O
ATOM     28  HD  NAG B   2      32.947   1.315  38.9540  0.00  0.00     0.000 HD
BRANCH 18 30
ATOM     28   N  NAG B   2      31.608   6.012  36.7350  0.00  0.00     0.000 N
ATOM     30  HD  NAG B   2      31.895   6.825  36.6600  0.00  0.00     0.000 HD
ATOM     30   C  NAG B   2      30.758   6.621  35.8960  0.00  0.00     0.000 C
ATOM     31   C  NAG B   2      31.393   7.607  34.9580  0.00  0.00     0.000 C
ATOM     32   O  NAG B   2      29.567   6.411  35.8860  0.00  0.00     0.000 OA
ENDBRANCH 18 30
BRANCH 17 33
ATOM     33  O4  BDP B   3      29.301   3.020  36.9210  0.00  0.00     0.000 O
BRANCH 33 37
ATOM     34  C1  BDP B   3      25.225   3.824  35.9320  0.00  0.00     0.000 C
ATOM     35  C2  BDP B   3      25.584   3.763  37.4120  0.00  0.00     0.000 C
ATOM     36  C3  BDP B   3      27.078   3.898  37.6840  0.00  0.00     0.000 C
ATOM     37  C4  BDP B   3      27.858   2.994  36.7170  0.00  0.00     0.000 C
ATOM     38  C5  BDP B   3      27.454   3.398  35.2860  0.00  0.00     0.000 C
ATOM     39  O5  BDP B   3      26.090   2.999  35.1440  0.00  0.00     0.000 O
ATOM     40   O  BDP B   3      24.822   4.790  38.0500  0.00  0.00     0.000 O
ATOM     42  HD  BDP B   3      24.223   4.168  37.9910  0.00  0.00     0.000 HD
ATOM     42   O  BDP B   3      27.282   3.522  39.0450  0.00  0.00     0.000 O
ATOM     44  HD  BDP B   3      26.683   2.900  38.9850  0.00  0.00     0.000 HD
BRANCH 38 44
ATOM     44   C  BDP B   3      28.281   2.769  34.2090  0.00  0.00     0.000 C
ATOM     45   O  BDP B   3      29.104   3.492  33.6060  0.00  0.00     0.000 OA
ATOM     46   O  BDP B   3      28.131   1.557  33.9420  0.00  0.00     0.000 OA
ENDBRANCH 38 44
BRANCH 34 47
ATOM     47  O3  NAG B   4      24.167   2.925  35.6010  0.00  0.00     0.000 O
BRANCH 47 50
ATOM     48  C1  NAG B   4      21.056   4.204  33.9180  0.00  0.00     0.000 C
ATOM     49  C2  NAG B   4      22.037   3.968  35.0530  0.00  0.00     0.000 C
ATOM     50  C3  NAG B   4      23.254   3.218  34.5240  0.00  0.00     0.000 C
ATOM     51  C4  NAG B   4      22.856   1.925  33.8310  0.00  0.00     0.000 C
ATOM     52  C5  NAG B   4      21.817   2.215  32.7470  0.00  0.00     0.000 C
ATOM     53  O5  NAG B   4      20.715   2.949  33.2950  0.00  0.00     0.000 O
ATOM     54   O  NAG B   4      24.022   1.323  33.2630  0.00  0.00     0.000 O
ATOM     56  HD  NAG B   4      23.347   0.781  33.2910  0.00  0.00     0.000 HD
ATOM     56   C  NAG B   4      21.302   0.928  32.1150  0.00  0.00     0.000 C
ATOM     57   O  NAG B   4      20.695   0.118  33.1300  0.00  0.00     0.000 O
ATOM     59  HD  NAG B   4      20.020  -0.424  33.1580  0.00  0.00     0.000 HD
BRANCH 49 61
ATOM     59   N  NAG B   4      21.031   3.528  36.0210  0.00  0.00     0.000 N
ATOM     61  HD  NAG B   4      21.887   3.653  35.9850  0.00  0.00     0.000 HD
ATOM     61   O  NAG B   4      21.851   4.657  37.7970  0.00  0.00     0.000 OA
ATOM     62   C  NAG B   4      20.983   3.966  37.2850  0.00  0.00     0.000 C
ATOM     63   C  NAG B   4      19.765   3.574  38.0600  0.00  0.00     0.000 C
ENDBRANCH 49 61
BRANCH 48 64
ATOM     64  O4  BDP B   5      20.094   5.223  33.6630  0.00  0.00     0.000 O
BRANCH 64 68
ATOM     65  C1  BDP B   5      17.733   8.657  33.7000  0.00  0.00     0.000 C
ATOM     66  C2  BDP B   5      19.144   8.812  34.2510  0.00  0.00     0.000 C
ATOM     67  C3  BDP B   5      20.005   7.643  33.7890  0.00  0.00     0.000 C
ATOM     68  C4  BDP B   5      19.363   6.323  34.2010  0.00  0.00     0.000 C
ATOM     69  C5  BDP B   5      17.916   6.219  33.7360  0.00  0.00     0.000 C
ATOM     70  O5  BDP B   5      17.179   7.397  34.1090  0.00  0.00     0.000 O
ATOM     71   O  BDP B   5      19.690  10.072  33.8310  0.00  0.00     0.000 O
ATOM     73  HD  BDP B   5      19.978  10.833  33.5330  0.00  0.00     0.000 HD
ATOM     73   O  BDP B   5      21.316   7.729  34.3600  0.00  0.00     0.000 O
ATOM     75  HD  BDP B   5      21.604   8.490  34.0630  0.00  0.00     0.000 HD
BRANCH 69 75
ATOM     75   C  BDP B   5      17.295   5.010  34.3880  0.00  0.00     0.000 C
ATOM     76   O  BDP B   5      17.498   4.813  35.6030  0.00  0.00     0.000 OA
ATOM     77   O  BDP B   5      16.596   4.245  33.6980  0.00  0.00     0.000 OA
ENDBRANCH 69 75
BRANCH 65 78
ATOM     78  O3  NAG B   6      16.527   9.127  34.3090  0.00  0.00     0.000 O
BRANCH 78 81
ATOM     79  C1  NAG B   6      13.048  10.618  34.2370  0.00  0.00     0.000 C
ATOM     80  C2  NAG B   6      14.400  10.194  34.8320  0.00  0.00     0.000 C
ATOM     81  C3  NAG B   6      15.316   9.669  33.7390  0.00  0.00     0.000 C
ATOM     82  C4  NAG B   6      14.608   8.599  32.9010  0.00  0.00     0.000 C
ATOM     83  C5  NAG B   6      13.295   9.160  32.3670  0.00  0.00     0.000 C
ATOM     84  O5  NAG B   6      12.491   9.521  33.4900  0.00  0.00     0.000 O
BRANCH 80 87
ATOM     85   N  NAG B   6      15.013  10.181  36.1580  0.00  0.00     0.000 N
ATOM     87  HD  NAG B   6      15.715  10.261  36.6590  0.00  0.00     0.000 HD
ATOM     87   C  NAG B   6      15.553  11.256  36.7440  0.00  0.00     0.000 C
ATOM     88   C  NAG B   6      16.099  11.040  38.1200  0.00  0.00     0.000 C
ATOM     89   O  NAG B   6      15.595  12.358  36.2100  0.00  0.00     0.000 OA
ENDBRANCH 80 87
ATOM     90   O  NAG B   6      12.514   8.645  30.1370  0.00  0.00     0.000 O
ATOM     92  HD  NAG B   6      12.523   9.229  30.7760  0.00  0.00     0.000 HD
ATOM     92   O  NAG B   6      12.514   8.645  30.1370  0.00  0.00     0.000 O
ATOM     94  HD  NAG B   6      12.523   9.229  30.7760  0.00  0.00     0.000 HD
ENDBRANCH 78 81
ENDBRANCH 65 78
ENDBRANCH 64 68
ENDBRANCH 48 64
ENDBRANCH 47 50
ENDBRANCH 34 47
ENDBRANCH 33 37
ENDBRANCH 17 33
ENDBRANCH 16 19
ENDBRANCH 1 16
TORSDOF 16
ENDMDL
MODEL 85
REMARK VINA RESULT:      -2.3     22.094     31.452
ROOT
ATOM      1  C1  BDP B   1      17.764  14.186  67.7090  0.00  0.00     0.000 C
ATOM      2  C2  BDP B   1      17.952  13.218  68.8640  0.00  0.00     0.000 C
ATOM      3  C3  BDP B   1      18.864  13.778  69.9350  0.00  0.00     0.000 C
ATOM      4  C4  BDP B   1      19.108  15.278  69.8200  0.00  0.00     0.000 C
ATOM      5  C5  BDP B   1      19.446  15.715  68.3980  0.00  0.00     0.000 C
ATOM      6  O5  BDP B   1      19.040  14.741  67.4220  0.00  0.00     0.000 O
ATOM      7   O  BDP B   1      16.681  12.891  69.4370  0.00  0.00     0.000 O
ATOM      9  HD  BDP B   1      15.846  12.675  69.3590  0.00  0.00     0.000 HD
ATOM      9   O  BDP B   1      20.141  13.123  69.8830  0.00  0.00     0.000 O
ATOM     11  HD  BDP B   1      19.306  12.907  69.8060  0.00  0.00     0.000 HD
ATOM     11   O  BDP B   1      17.969  16.008  70.2920  0.00  0.00     0.000 O
ATOM     13  HD  BDP B   1      17.134  15.792  70.2150  0.00  0.00     0.000 HD
ENDROOT
BRANCH 5 13
ATOM     13   C  BDP B   1      20.921  15.905  68.3340  0.00  0.00     0.000 C
ATOM     14   O  BDP B   1      21.473  16.546  69.2520  0.00  0.00     0.000 OA
ATOM     15   O  BDP B   1      21.558  15.400  67.3850  0.00  0.00     0.000 OA
ENDBRANCH 5 13
BRANCH 1 16
ATOM     16  O3  NAG B   2      16.580  14.776  67.1770  0.00  0.00     0.000 O
BRANCH 16 19
ATOM     17  C1  NAG B   2      14.782  13.687  64.2050  0.00  0.00     0.000 C
ATOM     18  C2  NAG B   2      15.249  13.435  65.6390  0.00  0.00     0.000 C
ATOM     19  C3  NAG B   2      15.385  14.749  66.3950  0.00  0.00     0.000 C
ATOM     20  C4  NAG B   2      15.359  15.953  65.4500  0.00  0.00     0.000 C
ATOM     21  C5  NAG B   2      16.029  15.726  64.0870  0.00  0.00     0.000 C
ATOM     22  O5  NAG B   2      15.854  14.398  63.5810  0.00  0.00     0.000 O
ATOM     23   O  NAG B   2      13.998  16.353  65.2600  0.00  0.00     0.000 O
ATOM     25  HD  NAG B   2      13.694  15.544  65.2090  0.00  0.00     0.000 HD
ATOM     25   C  NAG B   2      17.532  16.027  64.1660  0.00  0.00     0.000 C
ATOM     26   O  NAG B   2      17.805  17.423  63.9800  0.00  0.00     0.000 O
ATOM     28  HD  NAG B   2      17.501  16.613  63.9280  0.00  0.00     0.000 HD
BRANCH 18 30
ATOM     28   N  NAG B   2      13.829  13.122  65.4830  0.00  0.00     0.000 N
ATOM     30  HD  NAG B   2      13.053  13.496  65.3890  0.00  0.00     0.000 HD
ATOM     30   C  NAG B   2      13.051  12.587  66.4350  0.00  0.00     0.000 C
ATOM     31   C  NAG B   2      11.625  12.349  66.0260  0.00  0.00     0.000 C
ATOM     32   O  NAG B   2      13.447  12.317  67.5450  0.00  0.00     0.000 OA
ENDBRANCH 18 30
BRANCH 17 33
ATOM     33  O4  BDP B   3      14.648  13.301  62.8190  0.00  0.00     0.000 O
BRANCH 33 37
ATOM     34  C1  BDP B   3      13.943  10.252  59.9130  0.00  0.00     0.000 C
ATOM     35  C2  BDP B   3      14.372   9.802  61.3040  0.00  0.00     0.000 C
ATOM     36  C3  BDP B   3      14.194  10.874  62.3740  0.00  0.00     0.000 C
ATOM     37  C4  BDP B   3      14.736  12.213  61.8530  0.00  0.00     0.000 C
ATOM     38  C5  BDP B   3      13.995  12.527  60.5390  0.00  0.00     0.000 C
ATOM     39  O5  BDP B   3      14.451  11.554  59.5980  0.00  0.00     0.000 O
ATOM     40   O  BDP B   3      13.622   8.621  61.5910  0.00  0.00     0.000 O
ATOM     42  HD  BDP B   3      14.252   8.288  61.0990  0.00  0.00     0.000 HD
ATOM     42   O  BDP B   3      14.906  10.425  63.5260  0.00  0.00     0.000 O
ATOM     44  HD  BDP B   3      15.536  10.092  63.0330  0.00  0.00     0.000 HD
BRANCH 38 44
ATOM     44   C  BDP B   3      14.240  13.903  60.0040  0.00  0.00     0.000 C
ATOM     45   O  BDP B   3      13.265  14.683  59.9280  0.00  0.00     0.000 OA
ATOM     46   O  BDP B   3      15.393  14.233  59.6500  0.00  0.00     0.000 OA
ENDBRANCH 38 44
BRANCH 34 47
ATOM     47  O3  NAG B   4      14.802   9.738  58.8970  0.00  0.00     0.000 O
BRANCH 47 50
ATOM     48  C1  NAG B   4      13.306   8.215  55.8000  0.00  0.00     0.000 C
ATOM     49  C2  NAG B   4      13.697   8.310  57.2640  0.00  0.00     0.000 C
ATOM     50  C3  NAG B   4      14.363   9.655  57.5250  0.00  0.00     0.000 C
ATOM     51  C4  NAG B   4      15.547   9.882  56.5990  0.00  0.00     0.000 C
ATOM     52  C5  NAG B   4      15.110   9.706  55.1440  0.00  0.00     0.000 C
ATOM     53  O5  NAG B   4      14.461   8.440  54.9680  0.00  0.00     0.000 O
ATOM     54   O  NAG B   4      16.062  11.199  56.8150  0.00  0.00     0.000 O
ATOM     56  HD  NAG B   4      16.603  10.700  56.3590  0.00  0.00     0.000 HD
ATOM     56   C  NAG B   4      16.297   9.802  54.1940  0.00  0.00     0.000 C
ATOM     57   O  NAG B   4      17.242   8.774  54.5190  0.00  0.00     0.000 O
ATOM     59  HD  NAG B   4      17.783   8.275  54.0640  0.00  0.00     0.000 HD
BRANCH 49 61
ATOM     59   N  NAG B   4      12.461   7.904  57.9350  0.00  0.00     0.000 N
ATOM     61  HD  NAG B   4      13.183   7.538  57.6260  0.00  0.00     0.000 HD
ATOM     61   O  NAG B   4      13.399   6.421  59.3580  0.00  0.00     0.000 OA
ATOM     62   C  NAG B   4      12.428   7.053  58.9680  0.00  0.00     0.000 C
ATOM     63   C  NAG B   4      11.107   6.925  59.6590  0.00  0.00     0.000 C
ENDBRANCH 49 61
BRANCH 48 64
ATOM     64  O4  BDP B   5      12.263   7.527  55.1160  0.00  0.00     0.000 O
BRANCH 64 68
ATOM     65  C1  BDP B   5       9.219   6.447  52.4830  0.00  0.00     0.000 C
ATOM     66  C2  BDP B   5      10.078   7.630  52.0590  0.00  0.00     0.000 C
ATOM     67  C3  BDP B   5      11.372   7.637  52.8630  0.00  0.00     0.000 C
ATOM     68  C4  BDP B   5      11.062   7.650  54.3560  0.00  0.00     0.000 C
ATOM     69  C5  BDP B   5      10.116   6.525  54.7550  0.00  0.00     0.000 C
ATOM     70  O5  BDP B   5       8.964   6.503  53.8950  0.00  0.00     0.000 O
ATOM     71   O  BDP B   5      10.332   7.560  50.6470  0.00  0.00     0.000 O
ATOM     73  HD  BDP B   5      10.470   7.460  49.7980  0.00  0.00     0.000 HD
ATOM     73   O  BDP B   5      12.162   8.787  52.5350  0.00  0.00     0.000 O
ATOM     75  HD  BDP B   5      12.300   8.686  51.6860  0.00  0.00     0.000 HD
BRANCH 69 75
ATOM     75   C  BDP B   5       9.677   6.758  56.1790  0.00  0.00     0.000 C
ATOM     76   O  BDP B   5       9.449   5.770  56.9060  0.00  0.00     0.000 OA
ATOM     77   O  BDP B   5       9.559   7.928  56.5890  0.00  0.00     0.000 OA
ENDBRANCH 69 75
BRANCH 65 78
ATOM     78  O3  NAG B   6       7.790   6.383  52.4570  0.00  0.00     0.000 O
BRANCH 78 81
ATOM     79  C1  NAG B   6       5.145   4.056  51.0700  0.00  0.00     0.000 C
ATOM     80  C2  NAG B   6       6.227   5.148  51.0540  0.00  0.00     0.000 C
ATOM     81  C3  NAG B   6       6.883   5.260  52.4200  0.00  0.00     0.000 C
ATOM     82  C4  NAG B   6       5.828   5.403  53.5220  0.00  0.00     0.000 C
ATOM     83  C5  NAG B   6       4.835   4.251  53.4250  0.00  0.00     0.000 C
ATOM     84  O5  NAG B   6       4.219   4.318  52.1390  0.00  0.00     0.000 O
BRANCH 80 87
ATOM     85   N  NAG B   6       7.071   4.824  49.9080  0.00  0.00     0.000 N
ATOM     87  HD  NAG B   6       7.215   4.845  49.0540  0.00  0.00     0.000 HD
ATOM     87   C  NAG B   6       7.681   5.738  49.1430  0.00  0.00     0.000 C
ATOM     88   C  NAG B   6       8.531   5.198  48.0380  0.00  0.00     0.000 C
ATOM     89   O  NAG B   6       7.573   6.945  49.3300  0.00  0.00     0.000 OA
ENDBRANCH 80 87
ATOM     90   O  NAG B   6       3.937   3.185  55.4020  0.00  0.00     0.000 O
ATOM     92  HD  NAG B   6       4.163   3.083  54.5720  0.00  0.00     0.000 HD
ATOM     92   O  NAG B   6       3.937   3.185  55.4020  0.00  0.00     0.000 O
ATOM     94  HD  NAG B   6       4.163   3.083  54.5720  0.00  0.00     0.000 HD
ENDBRANCH 78 81
ENDBRANCH 65 78
ENDBRANCH 64 68
ENDBRANCH 48 64
ENDBRANCH 47 50
ENDBRANCH 34 47
ENDBRANCH 33 37
ENDBRANCH 17 33
ENDBRANCH 16 19
ENDBRANCH 1 16
TORSDOF 16
ENDMDL
MODEL 86
REMARK VINA RESULT:      -2.3     10.082     16.072
ROOT
ATOM      1  C1  BDP B   1      33.856   5.316  40.4520  0.00  0.00     0.000 C
ATOM      2  C2  BDP B   1      34.237   6.271  41.5690  0.00  0.00     0.000 C
ATOM      3  C3  BDP B   1      35.616   5.980  42.1220  0.00  0.00     0.000 C
ATOM      4  C4  BDP B   1      36.457   5.060  41.2440  0.00  0.00     0.000 C
ATOM      5  C5  BDP B   1      35.685   3.835  40.7650  0.00  0.00     0.000 C
ATOM      6  O5  BDP B   1      34.263   4.018  40.8600  0.00  0.00     0.000 O
ATOM      7   O  BDP B   1      34.185   7.621  41.0930  0.00  0.00     0.000 O
ATOM      9  HD  BDP B   1      33.798   8.255  40.6490  0.00  0.00     0.000 HD
ATOM      9   O  BDP B   1      35.504   5.366  43.4160  0.00  0.00     0.000 O
ATOM     11  HD  BDP B   1      35.117   6.000  42.9720  0.00  0.00     0.000 HD
ATOM     11   O  BDP B   1      36.971   5.779  40.1170  0.00  0.00     0.000 O
ATOM     13  HD  BDP B   1      36.584   6.414  39.6730  0.00  0.00     0.000 HD
ENDROOT
BRANCH 5 13
ATOM     13   C  BDP B   1      36.103   2.689  41.6190  0.00  0.00     0.000 C
ATOM     14   O  BDP B   1      37.157   2.088  41.3240  0.00  0.00     0.000 OA
ATOM     15   O  BDP B   1      35.406   2.385  42.6110  0.00  0.00     0.000 OA
ENDBRANCH 5 13
BRANCH 1 16
ATOM     16  O3  NAG B   2      33.498   5.571  39.0950  0.00  0.00     0.000 O
BRANCH 16 19
ATOM     17  C1  NAG B   2      30.158   6.438  37.9360  0.00  0.00     0.000 C
ATOM     18  C2  NAG B   2      31.436   6.804  38.6900  0.00  0.00     0.000 C
ATOM     19  C3  NAG B   2      32.638   6.095  38.0830  0.00  0.00     0.000 C
ATOM     20  C4  NAG B   2      32.212   4.971  37.1330  0.00  0.00     0.000 C
ATOM     21  C5  NAG B   2      30.945   4.212  37.5490  0.00  0.00     0.000 C
ATOM     22  O5  NAG B   2      29.964   5.043  38.1800  0.00  0.00     0.000 O
ATOM     23   O  NAG B   2      32.040   5.523  35.8240  0.00  0.00     0.000 O
ATOM     25  HD  NAG B   2      31.658   6.248  36.1040  0.00  0.00     0.000 HD
ATOM     25   C  NAG B   2      31.293   3.057  38.4990  0.00  0.00     0.000 C
ATOM     26   O  NAG B   2      31.671   1.874  37.7810  0.00  0.00     0.000 O
ATOM     28  HD  NAG B   2      31.288   2.599  38.0610  0.00  0.00     0.000 HD
BRANCH 18 30
ATOM     28   N  NAG B   2      32.057   7.826  37.8480  0.00  0.00     0.000 N
ATOM     30  HD  NAG B   2      32.767   8.316  37.7800  0.00  0.00     0.000 HD
ATOM     30   C  NAG B   2      31.616   9.085  37.7180  0.00  0.00     0.000 C
ATOM     31   C  NAG B   2      32.420   9.943  36.7820  0.00  0.00     0.000 C
ATOM     32   O  NAG B   2      30.652   9.518  38.3050  0.00  0.00     0.000 OA
ENDBRANCH 18 30
BRANCH 17 33
ATOM     33  O4  BDP B   3      28.723   6.302  37.8460  0.00  0.00     0.000 O
BRANCH 33 37
ATOM     34  C1  BDP B   3      25.668   7.868  35.3040  0.00  0.00     0.000 C
ATOM     35  C2  BDP B   3      26.167   8.766  36.4300  0.00  0.00     0.000 C
ATOM     36  C3  BDP B   3      27.508   8.332  37.0100  0.00  0.00     0.000 C
ATOM     37  C4  BDP B   3      27.494   6.815  37.2540  0.00  0.00     0.000 C
ATOM     38  C5  BDP B   3      27.155   6.139  35.9110  0.00  0.00     0.000 C
ATOM     39  O5  BDP B   3      25.796   6.481  35.6390  0.00  0.00     0.000 O
ATOM     40   O  BDP B   3      26.212  10.091  35.8950  0.00  0.00     0.000 O
ATOM     42  HD  BDP B   3      25.369  10.028  36.0820  0.00  0.00     0.000 HD
ATOM     42   O  BDP B   3      27.687   9.063  38.2210  0.00  0.00     0.000 O
ATOM     44  HD  BDP B   3      26.844   9.001  38.4090  0.00  0.00     0.000 HD
BRANCH 38 44
ATOM     44   C  BDP B   3      27.313   4.651  35.9110  0.00  0.00     0.000 C
ATOM     45   O  BDP B   3      26.594   3.986  36.6880  0.00  0.00     0.000 OA
ATOM     46   O  BDP B   3      28.147   4.118  35.1470  0.00  0.00     0.000 OA
ENDBRANCH 38 44
BRANCH 34 47
ATOM     47  O3  NAG B   4      24.254   7.687  35.3520  0.00  0.00     0.000 O
BRANCH 47 50
ATOM     48  C1  NAG B   4      22.268   8.175  32.1960  0.00  0.00     0.000 C
ATOM     49  C2  NAG B   4      23.107   8.574  33.3970  0.00  0.00     0.000 C
ATOM     50  C3  NAG B   4      23.512   7.325  34.1700  0.00  0.00     0.000 C
ATOM     51  C4  NAG B   4      22.301   6.495  34.5650  0.00  0.00     0.000 C
ATOM     52  C5  NAG B   4      21.458   6.184  33.3280  0.00  0.00     0.000 C
ATOM     53  O5  NAG B   4      21.138   7.391  32.6260  0.00  0.00     0.000 O
ATOM     54   O  NAG B   4      22.747   5.288  35.1890  0.00  0.00     0.000 O
ATOM     56  HD  NAG B   4      21.902   5.434  35.3120  0.00  0.00     0.000 HD
ATOM     56   C  NAG B   4      20.170   5.460  33.7030  0.00  0.00     0.000 C
ATOM     57   O  NAG B   4      19.406   6.293  34.5850  0.00  0.00     0.000 O
ATOM     59  HD  NAG B   4      18.561   6.439  34.7070  0.00  0.00     0.000 HD
BRANCH 49 61
ATOM     59   N  NAG B   4      24.000   9.526  32.7330  0.00  0.00     0.000 N
ATOM     61  HD  NAG B   4      23.251   9.532  33.1690  0.00  0.00     0.000 HD
ATOM     61   O  NAG B   4      23.889  11.144  34.3040  0.00  0.00     0.000 OA
ATOM     62   C  NAG B   4      24.370  10.692  33.2760  0.00  0.00     0.000 C
ATOM     63   C  NAG B   4      25.450  11.429  32.5500  0.00  0.00     0.000 C
ENDBRANCH 49 61
BRANCH 48 64
ATOM     64  O4  BDP B   5      22.075   8.758  30.9100  0.00  0.00     0.000 O
BRANCH 64 68
ATOM     65  C1  BDP B   5      20.365  11.465  28.2420  0.00  0.00     0.000 C
ATOM     66  C2  BDP B   5      21.759  10.967  27.8850  0.00  0.00     0.000 C
ATOM     67  C3  BDP B   5      22.069   9.703  28.6760  0.00  0.00     0.000 C
ATOM     68  C4  BDP B   5      21.912   9.967  30.1700  0.00  0.00     0.000 C
ATOM     69  C5  BDP B   5      20.552  10.564  30.5080  0.00  0.00     0.000 C
ATOM     70  O5  BDP B   5      20.269  11.690  29.6580  0.00  0.00     0.000 O
ATOM     71   O  BDP B   5      21.841  10.740  26.4690  0.00  0.00     0.000 O
ATOM     73  HD  BDP B   5      21.831  10.601  25.6150  0.00  0.00     0.000 HD
ATOM     73   O  BDP B   5      23.406   9.260  28.4130  0.00  0.00     0.000 O
ATOM     75  HD  BDP B   5      23.395   9.121  27.5580  0.00  0.00     0.000 HD
BRANCH 69 75
ATOM     75   C  BDP B   5      20.577  11.014  31.9460  0.00  0.00     0.000 C
ATOM     76   O  BDP B   5      19.691  10.598  32.7200  0.00  0.00     0.000 OA
ATOM     77   O  BDP B   5      21.481  11.782  32.3230  0.00  0.00     0.000 OA
ENDBRANCH 69 75
BRANCH 65 78
ATOM     78  O3  NAG B   6      19.920  12.824  28.2260  0.00  0.00     0.000 O
BRANCH 78 81
ATOM     79  C1  NAG B   6      17.417  15.558  27.4530  0.00  0.00     0.000 C
ATOM     80  C2  NAG B   6      18.793  14.920  27.7000  0.00  0.00     0.000 C
ATOM     81  C3  NAG B   6      18.658  13.413  27.8420  0.00  0.00     0.000 C
ATOM     82  C4  NAG B   6      17.580  13.056  28.8700  0.00  0.00     0.000 C
ATOM     83  C5  NAG B   6      16.273  13.744  28.4930  0.00  0.00     0.000 C
ATOM     84  O5  NAG B   6      16.510  15.152  28.4930  0.00  0.00     0.000 O
BRANCH 80 87
ATOM     85   N  NAG B   6      20.013  15.723  27.7300  0.00  0.00     0.000 N
ATOM     87  HD  NAG B   6      20.876  15.772  27.7810  0.00  0.00     0.000 HD
ATOM     87   C  NAG B   6      20.951  15.695  26.7750  0.00  0.00     0.000 C
ATOM     88   C  NAG B   6      22.109  16.621  26.9760  0.00  0.00     0.000 C
ATOM     89   O  NAG B   6      20.878  14.975  25.7860  0.00  0.00     0.000 OA
ENDBRANCH 80 87
ATOM     90   O  NAG B   6      14.139  12.638  28.7630  0.00  0.00     0.000 O
ATOM     92  HD  NAG B   6      14.594  13.216  28.3050  0.00  0.00     0.000 HD
ATOM     92   O  NAG B   6      14.139  12.638  28.7630  0.00  0.00     0.000 O
ATOM     94  HD  NAG B   6      14.594  13.216  28.3050  0.00  0.00     0.000 HD
ENDBRANCH 78 81
ENDBRANCH 65 78
ENDBRANCH 64 68
ENDBRANCH 48 64
ENDBRANCH 47 50
ENDBRANCH 34 47
ENDBRANCH 33 37
ENDBRANCH 17 33
ENDBRANCH 16 19
ENDBRANCH 1 16
TORSDOF 16
ENDMDL
MODEL 87
REMARK VINA RESULT:      -2.1     28.852     36.858
ROOT
ATOM      1  C1  BDP B   1      17.224  14.583  70.5940  0.00  0.00     0.000 C
ATOM      2  C2  BDP B   1      17.730  13.502  71.5320  0.00  0.00     0.000 C
ATOM      3  C3  BDP B   1      18.802  14.016  72.4690  0.00  0.00     0.000 C
ATOM      4  C4  BDP B   1      18.898  15.536  72.5290  0.00  0.00     0.000 C
ATOM      5  C5  BDP B   1      18.889  16.183  71.1480  0.00  0.00     0.000 C
ATOM      6  O5  BDP B   1      18.361  15.304  70.1410  0.00  0.00     0.000 O
ATOM      7   O  BDP B   1      16.640  12.970  72.2940  0.00  0.00     0.000 O
ATOM      9  HD  BDP B   1      15.828  12.677  72.3550  0.00  0.00     0.000 HD
ATOM      9   O  BDP B   1      20.086  13.513  72.0660  0.00  0.00     0.000 O
ATOM     11  HD  BDP B   1      19.274  13.221  72.1270  0.00  0.00     0.000 HD
ATOM     11   O  BDP B   1      17.832  16.073  73.3220  0.00  0.00     0.000 O
ATOM     13  HD  BDP B   1      17.020  15.780  73.3830  0.00  0.00     0.000 HD
ENDROOT
BRANCH 5 13
ATOM     13   C  BDP B   1      20.296  16.538  70.8180  0.00  0.00     0.000 C
ATOM     14   O  BDP B   1      20.520  17.116  69.7340  0.00  0.00     0.000 OA
ATOM     15   O  BDP B   1      21.199  16.272  71.6400  0.00  0.00     0.000 OA
ENDBRANCH 5 13
BRANCH 1 16
ATOM     16  O3  NAG B   2      15.911  15.105  70.4030  0.00  0.00     0.000 O
BRANCH 16 19
ATOM     17  C1  NAG B   2      13.242  13.471  68.5420  0.00  0.00     0.000 C
ATOM     18  C2  NAG B   2      14.161  13.536  69.7620  0.00  0.00     0.000 C
ATOM     19  C3  NAG B   2      14.525  14.978  70.0830  0.00  0.00     0.000 C
ATOM     20  C4  NAG B   2      14.172  15.922  68.9300  0.00  0.00     0.000 C
ATOM     21  C5  NAG B   2      14.354  15.330  67.5250  0.00  0.00     0.000 C
ATOM     22  O5  NAG B   2      14.038  13.936  67.4490  0.00  0.00     0.000 O
ATOM     23   O  NAG B   2      12.821  16.361  69.0990  0.00  0.00     0.000 O
ATOM     25  HD  NAG B   2      12.526  15.587  69.3510  0.00  0.00     0.000 HD
ATOM     25   C  NAG B   2      15.795  15.533  67.0350  0.00  0.00     0.000 C
ATOM     26   O  NAG B   2      15.975  16.821  66.4300  0.00  0.00     0.000 O
ATOM     28  HD  NAG B   2      15.680  16.047  66.6820  0.00  0.00     0.000 HD
BRANCH 18 30
ATOM     28   N  NAG B   2      12.775  13.282  70.1560  0.00  0.00     0.000 N
ATOM     30  HD  NAG B   2      12.002  13.666  70.2190  0.00  0.00     0.000 HD
ATOM     30   C  NAG B   2      12.362  13.061  71.4120  0.00  0.00     0.000 C
ATOM     31   C  NAG B   2      10.887  12.814  71.5570  0.00  0.00     0.000 C
ATOM     32   O  NAG B   2      13.103  13.063  72.3670  0.00  0.00     0.000 OA
ENDBRANCH 18 30
BRANCH 17 33
ATOM     33  O4  BDP B   3      12.661  12.778  67.4160  0.00  0.00     0.000 O
BRANCH 33 37
ATOM     34  C1  BDP B   3      11.319   9.314  65.3080  0.00  0.00     0.000 C
ATOM     35  C2  BDP B   3      11.775   9.120  66.7500  0.00  0.00     0.000 C
ATOM     36  C3  BDP B   3      11.829  10.415  67.5530  0.00  0.00     0.000 C
ATOM     37  C4  BDP B   3      12.522  11.505  66.7210  0.00  0.00     0.000 C
ATOM     38  C5  BDP B   3      11.745  11.634  65.3970  0.00  0.00     0.000 C
ATOM     39  O5  BDP B   3      11.987  10.419  64.6870  0.00  0.00     0.000 O
ATOM     40   O  BDP B   3      10.883   8.163  67.3250  0.00  0.00     0.000 O
ATOM     42  HD  BDP B   3      11.422   7.636  66.9000  0.00  0.00     0.000 HD
ATOM     42   O  BDP B   3      12.548  10.124  68.7510  0.00  0.00     0.000 O
ATOM     44  HD  BDP B   3      13.087   9.596  68.3250  0.00  0.00     0.000 HD
BRANCH 38 44
ATOM     44   C  BDP B   3      12.148  12.803  64.5540  0.00  0.00     0.000 C
ATOM     45   O  BDP B   3      11.321  13.729  64.4030  0.00  0.00     0.000 OA
ATOM     46   O  BDP B   3      13.282  12.824  64.0280  0.00  0.00     0.000 OA
ENDBRANCH 38 44
BRANCH 34 47
ATOM     47  O3  NAG B   4      12.022   8.461  64.4070  0.00  0.00     0.000 O
BRANCH 47 50
ATOM     48  C1  NAG B   4      10.076   6.675  61.7280  0.00  0.00     0.000 C
ATOM     49  C2  NAG B   4      10.555   6.992  63.1340  0.00  0.00     0.000 C
ATOM     50  C3  NAG B   4      11.503   8.185  63.0890  0.00  0.00     0.000 C
ATOM     51  C4  NAG B   4      12.657   7.947  62.1290  0.00  0.00     0.000 C
ATOM     52  C5  NAG B   4      12.115   7.564  60.7510  0.00  0.00     0.000 C
ATOM     53  O5  NAG B   4      11.207   6.460  60.8610  0.00  0.00     0.000 O
ATOM     54   O  NAG B   4      13.448   9.136  62.0470  0.00  0.00     0.000 O
ATOM     56  HD  NAG B   4      13.847   8.445  61.7090  0.00  0.00     0.000 HD
ATOM     56   C  NAG B   4      13.244   7.195  59.7960  0.00  0.00     0.000 C
ATOM     57   O  NAG B   4      13.968   6.081  60.3340  0.00  0.00     0.000 O
ATOM     59  HD  NAG B   4      14.367   5.391  59.9950  0.00  0.00     0.000 HD
BRANCH 49 61
ATOM     59   N  NAG B   4       9.297   7.010  63.8820  0.00  0.00     0.000 N
ATOM     61  HD  NAG B   4       9.912   6.443  63.6580  0.00  0.00     0.000 HD
ATOM     61   O  NAG B   4       9.979   5.703  65.5930  0.00  0.00     0.000 OA
ATOM     62   C  NAG B   4       9.141   6.428  65.0770  0.00  0.00     0.000 C
ATOM     63   C  NAG B   4       7.857   6.733  65.7820  0.00  0.00     0.000 C
ENDBRANCH 49 61
BRANCH 48 64
ATOM     64  O4  BDP B   5       8.877   6.099  61.2190  0.00  0.00     0.000 O
BRANCH 64 68
ATOM     65  C1  BDP B   5       5.547   5.261  58.8570  0.00  0.00     0.000 C
ATOM     66  C2  BDP B   5       6.528   6.278  58.2890  0.00  0.00     0.000 C
ATOM     67  C3  BDP B   5       7.862   6.165  59.0170  0.00  0.00     0.000 C
ATOM     68  C4  BDP B   5       7.656   6.332  60.5190  0.00  0.00     0.000 C
ATOM     69  C5  BDP B   5       6.595   5.382  61.0620  0.00  0.00     0.000 C
ATOM     70  O5  BDP B   5       5.396   5.457  60.2720  0.00  0.00     0.000 O
ATOM     71   O  BDP B   5       6.676   6.069  56.8760  0.00  0.00     0.000 O
ATOM     73  HD  BDP B   5       6.743   5.888  56.0320  0.00  0.00     0.000 HD
ATOM     73   O  BDP B   5       8.775   7.165  58.5520  0.00  0.00     0.000 O
ATOM     75  HD  BDP B   5       8.843   6.983  57.7080  0.00  0.00     0.000 HD
BRANCH 69 75
ATOM     75   C  BDP B   5       6.287   5.780  62.4830  0.00  0.00     0.000 C
ATOM     76   O  BDP B   5       6.184   6.993  62.7580  0.00  0.00     0.000 OA
ATOM     77   O  BDP B   5       6.141   4.889  63.3410  0.00  0.00     0.000 OA
ENDBRANCH 69 75
BRANCH 65 78
ATOM     78  O3  NAG B   6       4.124   5.396  58.9160  0.00  0.00     0.000 O
BRANCH 78 81
ATOM     79  C1  NAG B   6       1.234   2.992  58.4650  0.00  0.00     0.000 C
ATOM     80  C2  NAG B   6       2.439   3.858  58.0620  0.00  0.00     0.000 C
ATOM     81  C3  NAG B   6       3.090   4.462  59.2950  0.00  0.00     0.000 C
ATOM     82  C4  NAG B   6       2.049   5.163  60.1740  0.00  0.00     0.000 C
ATOM     83  C5  NAG B   6       0.926   4.187  60.5050  0.00  0.00     0.000 C
ATOM     84  O5  NAG B   6       0.335   3.773  59.2730  0.00  0.00     0.000 O
BRANCH 80 87
ATOM     85   N  NAG B   6       2.980   4.137  56.7340  0.00  0.00     0.000 N
ATOM     87  HD  NAG B   6       3.639   4.391  56.2330  0.00  0.00     0.000 HD
ATOM     87   C  NAG B   6       3.971   3.438  56.1680  0.00  0.00     0.000 C
ATOM     88   C  NAG B   6       4.357   3.862  54.7860  0.00  0.00     0.000 C
ATOM     89   O  NAG B   6       4.529   2.498  56.7230  0.00  0.00     0.000 OA
ENDBRANCH 80 87
ATOM     90   O  NAG B   6      -0.112   4.148  62.6890  0.00  0.00     0.000 O
ATOM     92  HD  NAG B   6       0.108   3.684  61.9920  0.00  0.00     0.000 HD
ATOM     92   O  NAG B   6      -0.112   4.148  62.6890  0.00  0.00     0.000 O
ATOM     94  HD  NAG B   6       0.108   3.684  61.9920  0.00  0.00     0.000 HD
ENDBRANCH 78 81
ENDBRANCH 65 78
ENDBRANCH 64 68
ENDBRANCH 48 64
ENDBRANCH 47 50
ENDBRANCH 34 47
ENDBRANCH 33 37
ENDBRANCH 17 33
ENDBRANCH 16 19
ENDBRANCH 1 16
TORSDOF 16
ENDMDL
MODEL 88
REMARK VINA RESULT:      -2.1     13.571     19.637
ROOT
ATOM      1  C1  BDP B   1      30.637  26.555  40.1560  0.00  0.00     0.000 C
ATOM      2  C2  BDP B   1      30.786  26.858  41.6360  0.00  0.00     0.000 C
ATOM      3  C3  BDP B   1      29.646  27.703  42.1630  0.00  0.00     0.000 C
ATOM      4  C4  BDP B   1      28.442  27.773  41.2300  0.00  0.00     0.000 C
ATOM      5  C5  BDP B   1      28.833  28.052  39.7820  0.00  0.00     0.000 C
ATOM      6  O5  BDP B   1      30.216  27.757  39.5270  0.00  0.00     0.000 O
ATOM      7   O  BDP B   1      30.860  25.635  42.3780  0.00  0.00     0.000 O
ATOM      9  HD  BDP B   1      31.160  24.830  42.4870  0.00  0.00     0.000 HD
ATOM      9   O  BDP B   1      30.098  29.047  42.3930  0.00  0.00     0.000 O
ATOM     11  HD  BDP B   1      30.398  28.242  42.5020  0.00  0.00     0.000 HD
ATOM     11   O  BDP B   1      27.684  26.559  41.3000  0.00  0.00     0.000 O
ATOM     13  HD  BDP B   1      27.984  25.754  41.4100  0.00  0.00     0.000 HD
ENDROOT
BRANCH 5 13
ATOM     13   C  BDP B   1      28.572  29.495  39.5250  0.00  0.00     0.000 C
ATOM     14   O  BDP B   1      28.715  29.923  38.3610  0.00  0.00     0.000 OA
ATOM     15   O  BDP B   1      28.195  30.222  40.4690  0.00  0.00     0.000 OA
ENDBRANCH 5 13
BRANCH 1 16
ATOM     16  O3  NAG B   2      30.552  25.308  39.4680  0.00  0.00     0.000 O
BRANCH 16 19
ATOM     17  C1  NAG B   2      30.070  22.948  36.7380  0.00  0.00     0.000 C
ATOM     18  C2  NAG B   2      30.744  23.332  38.0560  0.00  0.00     0.000 C
ATOM     19  C3  NAG B   2      29.830  24.223  38.8850  0.00  0.00     0.000 C
ATOM     20  C4  NAG B   2      28.663  24.765  38.0560  0.00  0.00     0.000 C
ATOM     21  C5  NAG B   2      28.995  25.081  36.5910  0.00  0.00     0.000 C
ATOM     22  O5  NAG B   2      29.940  24.173  36.0130  0.00  0.00     0.000 O
ATOM     23   O  NAG B   2      27.586  23.825  38.1170  0.00  0.00     0.000 O
ATOM     25  HD  NAG B   2      28.097  23.129  38.0480  0.00  0.00     0.000 HD
ATOM     25   C  NAG B   2      29.542  26.509  36.4560  0.00  0.00     0.000 C
ATOM     26   O  NAG B   2      28.487  27.474  36.3420  0.00  0.00     0.000 O
ATOM     28  HD  NAG B   2      28.998  26.778  36.2730  0.00  0.00     0.000 HD
BRANCH 18 30
ATOM     28   N  NAG B   2      30.432  21.904  38.0400  0.00  0.00     0.000 N
ATOM     30  HD  NAG B   2      29.779  21.348  37.9170  0.00  0.00     0.000 HD
ATOM     30   C  NAG B   2      30.426  21.107  39.1180  0.00  0.00     0.000 C
ATOM     31   C  NAG B   2      30.083  19.671  38.8400  0.00  0.00     0.000 C
ATOM     32   O  NAG B   2      30.668  21.497  40.2360  0.00  0.00     0.000 OA
ENDBRANCH 18 30
BRANCH 17 33
ATOM     33  O4  BDP B   3      30.112  22.504  35.3650  0.00  0.00     0.000 O
BRANCH 33 37
ATOM     34  C1  BDP B   3      28.735  19.059  33.2490  0.00  0.00     0.000 C
ATOM     35  C2  BDP B   3      30.064  18.940  33.9850  0.00  0.00     0.000 C
ATOM     36  C3  BDP B   3      30.279  20.022  35.0370  0.00  0.00     0.000 C
ATOM     37  C4  BDP B   3      29.904  21.390  34.4480  0.00  0.00     0.000 C
ATOM     38  C5  BDP B   3      28.448  21.292  33.9540  0.00  0.00     0.000 C
ATOM     39  O5  BDP B   3      28.479  20.406  32.8350  0.00  0.00     0.000 O
ATOM     40   O  BDP B   3      30.094  17.626  34.5460  0.00  0.00     0.000 O
ATOM     42  HD  BDP B   3      30.330  17.451  33.7310  0.00  0.00     0.000 HD
ATOM     42   O  BDP B   3      31.655  19.963  35.4100  0.00  0.00     0.000 O
ATOM     44  HD  BDP B   3      31.891  19.788  34.5950  0.00  0.00     0.000 HD
BRANCH 38 44
ATOM     44   C  BDP B   3      27.843  22.600  33.5480  0.00  0.00     0.000 C
ATOM     45   O  BDP B   3      27.002  23.119  34.3140  0.00  0.00     0.000 OA
ATOM     46   O  BDP B   3      28.187  23.132  32.4700  0.00  0.00     0.000 OA
ENDBRANCH 38 44
BRANCH 34 47
ATOM     47  O3  NAG B   4      28.857  18.722  31.8680  0.00  0.00     0.000 O
BRANCH 47 50
ATOM     48  C1  NAG B   4      26.239  16.497  30.3360  0.00  0.00     0.000 C
ATOM     49  C2  NAG B   4      27.417  16.869  31.2200  0.00  0.00     0.000 C
ATOM     50  C3  NAG B   4      27.699  18.361  31.0870  0.00  0.00     0.000 C
ATOM     51  C4  NAG B   4      27.920  18.761  29.6370  0.00  0.00     0.000 C
ATOM     52  C5  NAG B   4      26.737  18.300  28.7850  0.00  0.00     0.000 C
ATOM     53  O5  NAG B   4      26.499  16.900  28.9770  0.00  0.00     0.000 O
ATOM     54   O  NAG B   4      28.071  20.181  29.5640  0.00  0.00     0.000 O
ATOM     56  HD  NAG B   4      28.317  19.782  28.8360  0.00  0.00     0.000 HD
ATOM     56   C  NAG B   4      26.981  18.573  27.3060  0.00  0.00     0.000 C
ATOM     57   O  NAG B   4      28.155  17.866  26.8870  0.00  0.00     0.000 O
ATOM     59  HD  NAG B   4      28.400  17.466  26.1580  0.00  0.00     0.000 HD
BRANCH 49 61
ATOM     59   N  NAG B   4      26.999  16.096  32.3910  0.00  0.00     0.000 N
ATOM     61  HD  NAG B   4      27.513  16.003  31.7010  0.00  0.00     0.000 HD
ATOM     61   O  NAG B   4      29.028  15.243  32.8930  0.00  0.00     0.000 OA
ATOM     62   C  NAG B   4      27.849  15.413  33.1660  0.00  0.00     0.000 C
ATOM     63   C  NAG B   4      27.273  14.865  34.4330  0.00  0.00     0.000 C
ENDBRANCH 49 61
BRANCH 48 64
ATOM     64  O4  BDP B   5      25.238  15.488  30.4280  0.00  0.00     0.000 O
BRANCH 64 68
ATOM     65  C1  BDP B   5      22.587  12.319  29.8760  0.00  0.00     0.000 C
ATOM     66  C2  BDP B   5      24.039  11.937  30.1360  0.00  0.00     0.000 C
ATOM     67  C3  BDP B   5      24.782  13.125  30.7330  0.00  0.00     0.000 C
ATOM     68  C4  BDP B   5      24.655  14.338  29.8170  0.00  0.00     0.000 C
ATOM     69  C5  BDP B   5      23.204  14.651  29.4760  0.00  0.00     0.000 C
ATOM     70  O5  BDP B   5      22.526  13.469  29.0170  0.00  0.00     0.000 O
ATOM     71   O  BDP B   5      24.088  10.792  31.0000  0.00  0.00     0.000 O
ATOM     73  HD  BDP B   5      24.062  10.114  31.5380  0.00  0.00     0.000 HD
ATOM     73   O  BDP B   5      26.168  12.812  30.9130  0.00  0.00     0.000 O
ATOM     75  HD  BDP B   5      26.142  12.134  31.4510  0.00  0.00     0.000 HD
BRANCH 69 75
ATOM     75   C  BDP B   5      23.188  15.695  28.3880  0.00  0.00     0.000 C
ATOM     76   O  BDP B   5      22.665  16.802  28.6270  0.00  0.00     0.000 OA
ATOM     77   O  BDP B   5      23.700  15.425  27.2860  0.00  0.00     0.000 OA
ENDBRANCH 69 75
BRANCH 65 78
ATOM     78  O3  NAG B   6      21.741  11.791  28.8520  0.00  0.00     0.000 O
BRANCH 78 81
ATOM     79  C1  NAG B   6      18.632   9.662  28.4750  0.00  0.00     0.000 C
ATOM     80  C2  NAG B   6      20.127   9.976  28.6430  0.00  0.00     0.000 C
ATOM     81  C3  NAG B   6      20.333  11.469  28.8470  0.00  0.00     0.000 C
ATOM     82  C4  NAG B   6      19.617  12.272  27.7550  0.00  0.00     0.000 C
ATOM     83  C5  NAG B   6      18.148  11.868  27.7110  0.00  0.00     0.000 C
ATOM     84  O5  NAG B   6      18.092  10.472  27.4150  0.00  0.00     0.000 O
BRANCH 80 87
ATOM     85   N  NAG B   6      20.565   9.012  29.6490  0.00  0.00     0.000 N
ATOM     87  HD  NAG B   6      20.855   8.222  29.8520  0.00  0.00     0.000 HD
ATOM     87   C  NAG B   6      21.811   8.530  29.7330  0.00  0.00     0.000 C
ATOM     88   C  NAG B   6      22.064   7.578  30.8580  0.00  0.00     0.000 C
ATOM     89   O  NAG B   6      22.704   8.848  28.9570  0.00  0.00     0.000 OA
ENDBRANCH 80 87
ATOM     90   O  NAG B   6      16.400  13.496  27.3300  0.00  0.00     0.000 O
ATOM     92  HD  NAG B   6      16.612  12.747  27.7100  0.00  0.00     0.000 HD
ATOM     92   O  NAG B   6      16.400  13.496  27.3300  0.00  0.00     0.000 O
ATOM     94  HD  NAG B   6      16.612  12.747  27.7100  0.00  0.00     0.000 HD
ENDBRANCH 78 81
ENDBRANCH 65 78
ENDBRANCH 64 68
ENDBRANCH 48 64
ENDBRANCH 47 50
ENDBRANCH 34 47
ENDBRANCH 33 37
ENDBRANCH 17 33
ENDBRANCH 16 19
ENDBRANCH 1 16
TORSDOF 16
ENDMDL
MODEL 89
REMARK VINA RESULT:      -2.1     15.354     20.011
ROOT
ATOM      1  C1  BDP B   1      25.816  29.501  42.8130  0.00  0.00     0.000 C
ATOM      2  C2  BDP B   1      26.994  30.439  43.0100  0.00  0.00     0.000 C
ATOM      3  C3  BDP B   1      28.102  29.800  43.8200  0.00  0.00     0.000 C
ATOM      4  C4  BDP B   1      27.977  28.287  43.9600  0.00  0.00     0.000 C
ATOM      5  C5  BDP B   1      26.567  27.844  44.3400  0.00  0.00     0.000 C
ATOM      6  O5  BDP B   1      25.586  28.857  44.0580  0.00  0.00     0.000 O
ATOM      7   O  BDP B   1      27.505  30.852  41.7380  0.00  0.00     0.000 O
ATOM      9  HD  BDP B   1      27.388  31.130  40.9260  0.00  0.00     0.000 HD
ATOM      9   O  BDP B   1      28.126  30.360  45.1430  0.00  0.00     0.000 O
ATOM     11  HD  BDP B   1      28.009  30.638  44.3310  0.00  0.00     0.000 HD
ATOM     11   O  BDP B   1      28.378  27.639  42.7470  0.00  0.00     0.000 O
ATOM     13  HD  BDP B   1      28.261  27.917  41.9350  0.00  0.00     0.000 HD
ENDROOT
BRANCH 5 13
ATOM     13   C  BDP B   1      26.577  27.546  45.7980  0.00  0.00     0.000 C
ATOM     14   O  BDP B   1      26.860  26.385  46.1610  0.00  0.00     0.000 OA
ATOM     15   O  BDP B   1      26.328  28.464  46.6080  0.00  0.00     0.000 OA
ENDBRANCH 5 13
BRANCH 1 16
ATOM     16  O3  NAG B   2      25.214  29.006  41.6180  0.00  0.00     0.000 O
BRANCH 16 19
ATOM     17  C1  NAG B   2      22.546  26.726  40.6480  0.00  0.00     0.000 C
ATOM     18  C2  NAG B   2      23.070  27.853  41.5410  0.00  0.00     0.000 C
ATOM     19  C3  NAG B   2      24.091  28.697  40.7920  0.00  0.00     0.000 C
ATOM     20  C4  NAG B   2      24.566  28.009  39.5100  0.00  0.00     0.000 C
ATOM     21  C5  NAG B   2      24.681  26.481  39.5940  0.00  0.00     0.000 C
ATOM     22  O5  NAG B   2      23.673  25.879  40.4150  0.00  0.00     0.000 O
ATOM     23   O  NAG B   2      23.679  28.370  38.4450  0.00  0.00     0.000 O
ATOM     25  HD  NAG B   2      22.963  28.310  38.9280  0.00  0.00     0.000 HD
ATOM     25   C  NAG B   2      26.060  26.072  40.1320  0.00  0.00     0.000 C
ATOM     26   O  NAG B   2      27.040  26.009  39.0860  0.00  0.00     0.000 O
ATOM     28  HD  NAG B   2      26.323  25.948  39.5680  0.00  0.00     0.000 HD
BRANCH 18 30
ATOM     28   N  NAG B   2      21.748  28.178  41.0060  0.00  0.00     0.000 N
ATOM     30  HD  NAG B   2      21.350  28.448  40.2860  0.00  0.00     0.000 HD
ATOM     30   C  NAG B   2      21.010  29.234  41.3750  0.00  0.00     0.000 C
ATOM     31   C  NAG B   2      19.679  29.346  40.6870  0.00  0.00     0.000 C
ATOM     32   O  NAG B   2      21.373  30.049  42.1910  0.00  0.00     0.000 OA
ENDBRANCH 18 30
BRANCH 17 33
ATOM     33  O4  BDP B   3      21.930  25.435  40.4510  0.00  0.00     0.000 O
BRANCH 33 37
ATOM     34  C1  BDP B   3      20.038  22.461  38.0400  0.00  0.00     0.000 C
ATOM     35  C2  BDP B   3      20.396  23.780  37.3660  0.00  0.00     0.000 C
ATOM     36  C3  BDP B   3      21.420  24.603  38.1400  0.00  0.00     0.000 C
ATOM     37  C4  BDP B   3      21.032  24.638  39.6260  0.00  0.00     0.000 C
ATOM     38  C5  BDP B   3      20.927  23.177  40.1050  0.00  0.00     0.000 C
ATOM     39  O5  BDP B   3      19.786  22.634  39.4400  0.00  0.00     0.000 O
ATOM     40   O  BDP B   3      20.850  23.447  36.0520  0.00  0.00     0.000 O
ATOM     42  HD  BDP B   3      19.993  23.418  35.9320  0.00  0.00     0.000 HD
ATOM     42   O  BDP B   3      21.421  25.906  37.5600  0.00  0.00     0.000 O
ATOM     44  HD  BDP B   3      20.563  25.877  37.4400  0.00  0.00     0.000 HD
BRANCH 38 44
ATOM     44   C  BDP B   3      20.771  23.022  41.5860  0.00  0.00     0.000 C
ATOM     45   O  BDP B   3      19.665  23.313  42.0920  0.00  0.00     0.000 OA
ATOM     46   O  BDP B   3      21.735  22.612  42.2690  0.00  0.00     0.000 OA
ENDBRANCH 38 44
BRANCH 34 47
ATOM     47  O3  NAG B   4      18.655  22.145  37.8930  0.00  0.00     0.000 O
BRANCH 47 50
ATOM     48  C1  NAG B   4      17.578  19.216  35.7920  0.00  0.00     0.000 C
ATOM     49  C2  NAG B   4      18.094  20.614  36.0840  0.00  0.00     0.000 C
ATOM     50  C3  NAG B   4      18.229  20.800  37.5910  0.00  0.00     0.000 C
ATOM     51  C4  NAG B   4      16.921  20.509  38.3100  0.00  0.00     0.000 C
ATOM     52  C5  NAG B   4      16.415  19.119  37.9230  0.00  0.00     0.000 C
ATOM     53  O5  NAG B   4      16.341  18.992  36.4970  0.00  0.00     0.000 O
ATOM     54   O  NAG B   4      17.136  20.593  39.7210  0.00  0.00     0.000 O
ATOM     56  HD  NAG B   4      16.296  20.587  39.5110  0.00  0.00     0.000 HD
ATOM     56   C  NAG B   4      15.043  18.842  38.5270  0.00  0.00     0.000 C
ATOM     57   O  NAG B   4      14.113  19.821  38.0450  0.00  0.00     0.000 O
ATOM     59  HD  NAG B   4      13.273  19.816  37.8350  0.00  0.00     0.000 HD
BRANCH 49 61
ATOM     59   N  NAG B   4      17.197  21.304  35.1560  0.00  0.00     0.000 N
ATOM     61  HD  NAG B   4      17.831  21.499  35.7130  0.00  0.00     0.000 HD
ATOM     61   O  NAG B   4      18.728  22.733  34.3100  0.00  0.00     0.000 OA
ATOM     62   C  NAG B   4      17.606  22.249  34.3010  0.00  0.00     0.000 C
ATOM     63   C  NAG B   4      16.596  22.685  33.2880  0.00  0.00     0.000 C
ENDBRANCH 49 61
BRANCH 48 64
ATOM     64  O4  BDP B   5      17.751  18.328  34.6920  0.00  0.00     0.000 O
BRANCH 64 68
ATOM     65  C1  BDP B   5      17.820  16.367  31.0150  0.00  0.00     0.000 C
ATOM     66  C2  BDP B   5      18.331  17.801  31.0150  0.00  0.00     0.000 C
ATOM     67  C3  BDP B   5      18.650  18.231  32.4410  0.00  0.00     0.000 C
ATOM     68  C4  BDP B   5      17.425  18.051  33.3310  0.00  0.00     0.000 C
ATOM     69  C5  BDP B   5      16.856  16.641  33.2450  0.00  0.00     0.000 C
ATOM     70  O5  BDP B   5      16.673  16.251  31.8720  0.00  0.00     0.000 O
ATOM     71   O  BDP B   5      19.480  17.904  30.1600  0.00  0.00     0.000 O
ATOM     73  HD  BDP B   5      20.179  17.906  29.6490  0.00  0.00     0.000 HD
ATOM     73   O  BDP B   5      19.060  19.604  32.4730  0.00  0.00     0.000 O
ATOM     75  HD  BDP B   5      19.759  19.605  31.9620  0.00  0.00     0.000 HD
BRANCH 69 75
ATOM     75   C  BDP B   5      15.525  16.624  33.9540  0.00  0.00     0.000 C
ATOM     76   O  BDP B   5      14.657  17.455  33.6200  0.00  0.00     0.000 OA
ATOM     77   O  BDP B   5      15.329  15.779  34.8480  0.00  0.00     0.000 OA
ENDBRANCH 69 75
BRANCH 65 78
ATOM     78  O3  NAG B   6      16.898  15.794  30.0830  0.00  0.00     0.000 O
BRANCH 78 81
ATOM     79  C1  NAG B   6      16.848  12.831  27.7270  0.00  0.00     0.000 C
ATOM     80  C2  NAG B   6      17.212  14.234  28.2380  0.00  0.00     0.000 C
ATOM     81  C3  NAG B   6      16.695  14.430  29.6540  0.00  0.00     0.000 C
ATOM     82  C4  NAG B   6      15.209  14.068  29.7470  0.00  0.00     0.000 C
ATOM     83  C5  NAG B   6      14.999  12.653  29.2210  0.00  0.00     0.000 C
ATOM     84  O5  NAG B   6      15.430  12.629  27.8600  0.00  0.00     0.000 O
BRANCH 80 87
ATOM     85   N  NAG B   6      18.652  14.363  28.0320  0.00  0.00     0.000 N
ATOM     87  HD  NAG B   6      19.322  14.512  27.5030  0.00  0.00     0.000 HD
ATOM     87   C  NAG B   6      19.260  15.505  27.6860  0.00  0.00     0.000 C
ATOM     88   C  NAG B   6      20.749  15.435  27.5580  0.00  0.00     0.000 C
ATOM     89   O  NAG B   6      18.655  16.554  27.4970  0.00  0.00     0.000 OA
ENDBRANCH 80 87
ATOM     90   O  NAG B   6      13.435  11.134  30.2680  0.00  0.00     0.000 O
ATOM     92  HD  NAG B   6      14.174  11.207  29.8240  0.00  0.00     0.000 HD
ATOM     92   O  NAG B   6      13.435  11.134  30.2680  0.00  0.00     0.000 O
ATOM     94  HD  NAG B   6      14.174  11.207  29.8240  0.00  0.00     0.000 HD
ENDBRANCH 78 81
ENDBRANCH 65 78
ENDBRANCH 64 68
ENDBRANCH 48 64
ENDBRANCH 47 50
ENDBRANCH 34 47
ENDBRANCH 33 37
ENDBRANCH 17 33
ENDBRANCH 16 19
ENDBRANCH 1 16
TORSDOF 16
ENDMDL
MODEL 90
REMARK VINA RESULT:      -2.0     14.207     18.578
ROOT
ATOM      1  C1  BDP B   1      28.024  23.312  46.2600  0.00  0.00     0.000 C
ATOM      2  C2  BDP B   1      27.118  22.891  47.4030  0.00  0.00     0.000 C
ATOM      3  C3  BDP B   1      26.807  24.041  48.3370  0.00  0.00     0.000 C
ATOM      4  C4  BDP B   1      27.150  25.413  47.7690  0.00  0.00     0.000 C
ATOM      5  C5  BDP B   1      28.536  25.460  47.1340  0.00  0.00     0.000 C
ATOM      6  O5  BDP B   1      29.030  24.148  46.8130  0.00  0.00     0.000 O
ATOM      7   O  BDP B   1      25.899  22.349  46.8850  0.00  0.00     0.000 O
ATOM      9  HD  BDP B   1      25.468  21.847  46.3260  0.00  0.00     0.000 HD
ATOM      9   O  BDP B   1      27.533  23.885  49.5670  0.00  0.00     0.000 O
ATOM     11  HD  BDP B   1      27.102  23.382  49.0080  0.00  0.00     0.000 HD
ATOM     11   O  BDP B   1      26.165  25.817  46.8090  0.00  0.00     0.000 O
ATOM     13  HD  BDP B   1      25.734  25.315  46.2510  0.00  0.00     0.000 HD
ENDROOT
BRANCH 5 13
ATOM     13   C  BDP B   1      29.448  26.114  48.1120  0.00  0.00     0.000 C
ATOM     14   O  BDP B   1      29.568  27.356  48.0670  0.00  0.00     0.000 OA
ATOM     15   O  BDP B   1      30.038  25.409  48.9580  0.00  0.00     0.000 OA
ENDBRANCH 5 13
BRANCH 1 16
ATOM     16  O3  NAG B   2      27.822  23.256  44.8490  0.00  0.00     0.000 O
BRANCH 16 19
ATOM     17  C1  NAG B   2      27.008  21.853  41.5900  0.00  0.00     0.000 C
ATOM     18  C2  NAG B   2      27.051  23.044  42.5480  0.00  0.00     0.000 C
ATOM     19  C3  NAG B   2      28.213  22.906  43.5200  0.00  0.00     0.000 C
ATOM     20  C4  NAG B   2      28.798  21.491  43.5090  0.00  0.00     0.000 C
ATOM     21  C5  NAG B   2      27.775  20.365  43.3000  0.00  0.00     0.000 C
ATOM     22  O5  NAG B   2      26.710  20.721  42.4110  0.00  0.00     0.000 O
ATOM     23   O  NAG B   2      29.807  21.424  42.4960  0.00  0.00     0.000 O
ATOM     25  HD  NAG B   2      29.360  21.892  41.9210  0.00  0.00     0.000 HD
ATOM     25   C  NAG B   2      27.169  19.929  44.6420  0.00  0.00     0.000 C
ATOM     26   O  NAG B   2      27.988  18.955  45.3030  0.00  0.00     0.000 O
ATOM     28  HD  NAG B   2      27.541  19.423  44.7280  0.00  0.00     0.000 HD
BRANCH 18 30
ATOM     28   N  NAG B   2      27.567  23.407  41.2290  0.00  0.00     0.000 N
ATOM     30  HD  NAG B   2      28.251  23.298  40.7090  0.00  0.00     0.000 HD
ATOM     30   C  NAG B   2      27.949  24.641  40.8670  0.00  0.00     0.000 C
ATOM     31   C  NAG B   2      28.434  24.761  39.4500  0.00  0.00     0.000 C
ATOM     32   O  NAG B   2      27.917  25.593  41.6110  0.00  0.00     0.000 OA
ENDBRANCH 18 30
BRANCH 17 33
ATOM     33  O4  BDP B   3      26.318  20.975  40.6740  0.00  0.00     0.000 O
BRANCH 33 37
ATOM     34  C1  BDP B   3      24.845  19.517  36.9390  0.00  0.00     0.000 C
ATOM     35  C2  BDP B   3      26.219  20.176  36.9370  0.00  0.00     0.000 C
ATOM     36  C3  BDP B   3      26.849  20.281  38.3220  0.00  0.00     0.000 C
ATOM     37  C4  BDP B   3      25.804  20.801  39.3210  0.00  0.00     0.000 C
ATOM     38  C5  BDP B   3      24.599  19.842  39.2630  0.00  0.00     0.000 C
ATOM     39  O5  BDP B   3      24.010  20.040  37.9780  0.00  0.00     0.000 O
ATOM     40   O  BDP B   3      27.025  19.418  36.0330  0.00  0.00     0.000 O
ATOM     42  HD  BDP B   3      26.592  19.917  35.4730  0.00  0.00     0.000 HD
ATOM     42   O  BDP B   3      27.957  21.170  38.2020  0.00  0.00     0.000 O
ATOM     44  HD  BDP B   3      27.524  21.669  37.6420  0.00  0.00     0.000 HD
BRANCH 38 44
ATOM     44   C  BDP B   3      23.575  20.070  40.3310  0.00  0.00     0.000 C
ATOM     45   O  BDP B   3      23.069  21.210  40.4230  0.00  0.00     0.000 OA
ATOM     46   O  BDP B   3      23.257  19.131  41.0930  0.00  0.00     0.000 OA
ENDBRANCH 38 44
BRANCH 34 47
ATOM     47  O3  NAG B   4      23.959  20.127  36.0030  0.00  0.00     0.000 O
BRANCH 47 50
ATOM     48  C1  NAG B   4      21.910  17.932  33.7370  0.00  0.00     0.000 C
ATOM     49  C2  NAG B   4      23.159  18.607  34.2770  0.00  0.00     0.000 C
ATOM     50  C3  NAG B   4      22.799  19.424  35.5130  0.00  0.00     0.000 C
ATOM     51  C4  NAG B   4      21.688  20.420  35.2200  0.00  0.00     0.000 C
ATOM     52  C5  NAG B   4      20.486  19.695  34.6140  0.00  0.00     0.000 C
ATOM     53  O5  NAG B   4      20.891  18.919  33.4790  0.00  0.00     0.000 O
ATOM     54   O  NAG B   4      21.320  21.078  36.4360  0.00  0.00     0.000 O
ATOM     56  HD  NAG B   4      21.007  21.475  35.7330  0.00  0.00     0.000 HD
ATOM     56   C  NAG B   4      19.401  20.678  34.1920  0.00  0.00     0.000 C
ATOM     57   O  NAG B   4      19.939  21.577  33.2140  0.00  0.00     0.000 O
ATOM     59  HD  NAG B   4      19.625  21.975  32.5110  0.00  0.00     0.000 HD
BRANCH 49 61
ATOM     59   N  NAG B   4      24.069  17.463  34.2130  0.00  0.00     0.000 N
ATOM     61  HD  NAG B   4      23.837  18.137  33.7210  0.00  0.00     0.000 HD
ATOM     61   O  NAG B   4      25.823  18.562  33.3080  0.00  0.00     0.000 OA
ATOM     62   C  NAG B   4      25.340  17.554  33.8040  0.00  0.00     0.000 C
ATOM     63   C  NAG B   4      26.176  16.330  34.0100  0.00  0.00     0.000 C
ENDBRANCH 49 61
BRANCH 48 64
ATOM     64  O4  BDP B   5      21.696  16.721  33.0180  0.00  0.00     0.000 O
BRANCH 64 68
ATOM     65  C1  BDP B   5      20.770  13.731  30.2660  0.00  0.00     0.000 C
ATOM     66  C2  BDP B   5      22.075  14.478  30.0250  0.00  0.00     0.000 C
ATOM     67  C3  BDP B   5      22.489  15.208  31.2960  0.00  0.00     0.000 C
ATOM     68  C4  BDP B   5      21.368  16.131  31.7610  0.00  0.00     0.000 C
ATOM     69  C5  BDP B   5      20.040  15.398  31.8990  0.00  0.00     0.000 C
ATOM     70  O5  BDP B   5      19.753  14.644  30.7080  0.00  0.00     0.000 O
ATOM     71   O  BDP B   5      23.085  13.556  29.5900  0.00  0.00     0.000 O
ATOM     73  HD  BDP B   5      23.661  12.955  29.3500  0.00  0.00     0.000 HD
ATOM     73   O  BDP B   5      23.674  15.981  31.0690  0.00  0.00     0.000 O
ATOM     75  HD  BDP B   5      24.250  15.380  30.8300  0.00  0.00     0.000 HD
BRANCH 69 75
ATOM     75   C  BDP B   5      18.955  16.422  32.1200  0.00  0.00     0.000 C
ATOM     76   O  BDP B   5      18.700  17.232  31.2060  0.00  0.00     0.000 OA
ATOM     77   O  BDP B   5      18.344  16.427  33.2040  0.00  0.00     0.000 OA
ENDBRANCH 69 75
BRANCH 65 78
ATOM     78  O3  NAG B   6      19.766  13.440  29.2900  0.00  0.00     0.000 O
BRANCH 78 81
ATOM     79  C1  NAG B   6      18.030  10.399  27.8520  0.00  0.00     0.000 C
ATOM     80  C2  NAG B   6      19.144  11.440  28.0460  0.00  0.00     0.000 C
ATOM     81  C3  NAG B   6      18.802  12.368  29.2000  0.00  0.00     0.000 C
ATOM     82  C4  NAG B   6      17.392  12.945  29.0370  0.00  0.00     0.000 C
ATOM     83  C5  NAG B   6      16.394  11.805  28.8680  0.00  0.00     0.000 C
ATOM     84  O5  NAG B   6      16.768  11.073  27.7000  0.00  0.00     0.000 O
BRANCH 80 87
ATOM     85   N  NAG B   6      20.384  11.592  27.2890  0.00  0.00     0.000 N
ATOM     87  HD  NAG B   6      21.187  11.909  27.2250  0.00  0.00     0.000 HD
ATOM     87   C  NAG B   6      21.561  11.081  27.6710  0.00  0.00     0.000 C
ATOM     88   C  NAG B   6      22.705  11.320  26.7370  0.00  0.00     0.000 C
ATOM     89   O  NAG B   6      21.709  10.444  28.7060  0.00  0.00     0.000 OA
ENDBRANCH 80 87
ATOM     90   O  NAG B   6      14.201  11.882  29.8840  0.00  0.00     0.000 O
ATOM     92  HD  NAG B   6      14.851  11.375  29.6210  0.00  0.00     0.000 HD
ATOM     92   O  NAG B   6      14.201  11.882  29.8840  0.00  0.00     0.000 O
ATOM     94  HD  NAG B   6      14.851  11.375  29.6210  0.00  0.00     0.000 HD
ENDBRANCH 78 81
ENDBRANCH 65 78
ENDBRANCH 64 68
ENDBRANCH 48 64
ENDBRANCH 47 50
ENDBRANCH 34 47
ENDBRANCH 33 37
ENDBRANCH 17 33
ENDBRANCH 16 19
ENDBRANCH 1 16
TORSDOF 16
ENDMDL
MODEL 91
REMARK VINA RESULT:      -1.9     11.115     18.108
ROOT
ATOM      1  C1  BDP B   1      34.353   5.632  41.0960  0.00  0.00     0.000 C
ATOM      2  C2  BDP B   1      34.852   6.863  41.8330  0.00  0.00     0.000 C
ATOM      3  C3  BDP B   1      36.093   6.573  42.6500  0.00  0.00     0.000 C
ATOM      4  C4  BDP B   1      36.776   5.256  42.2980  0.00  0.00     0.000 C
ATOM      5  C5  BDP B   1      35.794   4.093  42.1880  0.00  0.00     0.000 C
ATOM      6  O5  BDP B   1      34.441   4.542  42.0020  0.00  0.00     0.000 O
ATOM      7   O  BDP B   1      35.126   7.912  40.8980  0.00  0.00     0.000 O
ATOM      9  HD  BDP B   1      34.916   8.384  40.2020  0.00  0.00     0.000 HD
ATOM      9   O  BDP B   1      35.762   6.533  44.0470  0.00  0.00     0.000 O
ATOM     11  HD  BDP B   1      35.552   7.005  43.3510  0.00  0.00     0.000 HD
ATOM     11   O  BDP B   1      37.511   5.385  41.0750  0.00  0.00     0.000 O
ATOM     13  HD  BDP B   1      37.301   5.857  40.3790  0.00  0.00     0.000 HD
ENDROOT
BRANCH 5 13
ATOM     13   C  BDP B   1      35.894   3.311  43.4510  0.00  0.00     0.000 C
ATOM     14   O  BDP B   1      35.134   3.615  44.3940  0.00  0.00     0.000 OA
ATOM     15   O  BDP B   1      36.709   2.367  43.5180  0.00  0.00     0.000 OA
ENDBRANCH 5 13
BRANCH 1 16
ATOM     16  O3  NAG B   2      34.154   5.404  39.7020  0.00  0.00     0.000 O
BRANCH 16 19
ATOM     17  C1  NAG B   2      31.074   6.276  37.9680  0.00  0.00     0.000 C
ATOM     18  C2  NAG B   2      32.458   6.664  38.4890  0.00  0.00     0.000 C
ATOM     19  C3  NAG B   2      33.384   5.456  38.5010  0.00  0.00     0.000 C
ATOM     20  C4  NAG B   2      32.609   4.147  38.3260  0.00  0.00     0.000 C
ATOM     21  C5  NAG B   2      31.224   4.116  38.9870  0.00  0.00     0.000 C
ATOM     22  O5  NAG B   2      30.545   5.376  38.9450  0.00  0.00     0.000 O
ATOM     23   O  NAG B   2      32.485   3.875  36.9260  0.00  0.00     0.000 O
ATOM     25  HD  NAG B   2      32.326   4.699  36.7090  0.00  0.00     0.000 HD
ATOM     25   C  NAG B   2      31.333   3.667  40.4510  0.00  0.00     0.000 C
ATOM     26   O  NAG B   2      31.334   2.237  40.5700  0.00  0.00     0.000 O
ATOM     28  HD  NAG B   2      31.176   3.060  40.3530  0.00  0.00     0.000 HD
BRANCH 18 30
ATOM     28   N  NAG B   2      32.287   7.078  37.0970  0.00  0.00     0.000 N
ATOM     30  HD  NAG B   2      32.283   6.769  36.2880  0.00  0.00     0.000 HD
ATOM     30   C  NAG B   2      33.148   7.844  36.4120  0.00  0.00     0.000 C
ATOM     31   C  NAG B   2      32.742   8.140  34.9970  0.00  0.00     0.000 C
ATOM     32   O  NAG B   2      34.180   8.267  36.8790  0.00  0.00     0.000 OA
ENDBRANCH 18 30
BRANCH 17 33
ATOM     33  O4  BDP B   3      29.650   6.486  37.8470  0.00  0.00     0.000 O
BRANCH 33 37
ATOM     34  C1  BDP B   3      26.049   8.749  37.4570  0.00  0.00     0.000 C
ATOM     35  C2  BDP B   3      27.349   9.430  37.0440  0.00  0.00     0.000 C
ATOM     36  C3  BDP B   3      28.499   8.458  36.8080  0.00  0.00     0.000 C
ATOM     37  C4  BDP B   3      28.555   7.441  37.9580  0.00  0.00     0.000 C
ATOM     38  C5  BDP B   3      27.177   6.757  38.0310  0.00  0.00     0.000 C
ATOM     39  O5  BDP B   3      26.269   7.765  38.4750  0.00  0.00     0.000 O
ATOM     40   O  BDP B   3      27.043  10.201  35.8800  0.00  0.00     0.000 O
ATOM     42  HD  BDP B   3      26.756  10.735  36.4980  0.00  0.00     0.000 HD
ATOM     42   O  BDP B   3      29.689   9.242  36.7340  0.00  0.00     0.000 O
ATOM     44  HD  BDP B   3      29.402   9.776  37.3520  0.00  0.00     0.000 HD
BRANCH 38 44
ATOM     44   C  BDP B   3      27.118   5.580  38.9540  0.00  0.00     0.000 C
ATOM     45   O  BDP B   3      26.995   4.444  38.4470  0.00  0.00     0.000 OA
ATOM     46   O  BDP B   3      27.191   5.759  40.1890  0.00  0.00     0.000 OA
ENDBRANCH 38 44
BRANCH 34 47
ATOM     47  O3  NAG B   4      25.334   9.508  38.4300  0.00  0.00     0.000 O
BRANCH 47 50
ATOM     48  C1  NAG B   4      21.617   9.469  37.8560  0.00  0.00     0.000 C
ATOM     49  C2  NAG B   4      23.082   9.689  37.5230  0.00  0.00     0.000 C
ATOM     50  C3  NAG B   4      23.942   9.245  38.7000  0.00  0.00     0.000 C
ATOM     51  C4  NAG B   4      23.534   9.945  39.9870  0.00  0.00     0.000 C
ATOM     52  C5  NAG B   4      22.038   9.748  40.2330  0.00  0.00     0.000 C
ATOM     53  O5  NAG B   4      21.285  10.150  39.0820  0.00  0.00     0.000 O
ATOM     54   O  NAG B   4      24.299   9.411  41.0710  0.00  0.00     0.000 O
ATOM     56  HD  NAG B   4      23.892  10.147  41.2800  0.00  0.00     0.000 HD
ATOM     56   C  NAG B   4      21.567  10.540  41.4470  0.00  0.00     0.000 C
ATOM     57   O  NAG B   4      21.818  11.934  41.2220  0.00  0.00     0.000 O
ATOM     59  HD  NAG B   4      21.412  12.669  41.4310  0.00  0.00     0.000 HD
BRANCH 49 61
ATOM     59   N  NAG B   4      22.918  11.037  36.9780  0.00  0.00     0.000 N
ATOM     61  HD  NAG B   4      23.552  10.463  37.1100  0.00  0.00     0.000 HD
ATOM     61   O  NAG B   4      24.281  10.778  35.1950  0.00  0.00     0.000 OA
ATOM     62   C  NAG B   4      23.470  11.440  35.8270  0.00  0.00     0.000 C
ATOM     63   C  NAG B   4      23.018  12.775  35.3250  0.00  0.00     0.000 C
ENDBRANCH 49 61
BRANCH 48 64
ATOM     64  O4  BDP B   5      20.472   9.187  37.0570  0.00  0.00     0.000 O
BRANCH 64 68
ATOM     65  C1  BDP B   5      20.093   5.912  34.5070  0.00  0.00     0.000 C
ATOM     66  C2  BDP B   5      20.303   7.261  33.8330  0.00  0.00     0.000 C
ATOM     67  C3  BDP B   5      20.845   8.261  34.8460  0.00  0.00     0.000 C
ATOM     68  C4  BDP B   5      19.909   8.351  36.0470  0.00  0.00     0.000 C
ATOM     69  C5  BDP B   5      19.619   6.984  36.6530  0.00  0.00     0.000 C
ATOM     70  O5  BDP B   5      19.212   6.055  35.6330  0.00  0.00     0.000 O
ATOM     71   O  BDP B   5      21.189   7.108  32.7130  0.00  0.00     0.000 O
ATOM     73  HD  BDP B   5      21.742   6.963  32.0620  0.00  0.00     0.000 HD
ATOM     73   O  BDP B   5      20.977   9.558  34.2520  0.00  0.00     0.000 O
ATOM     75  HD  BDP B   5      21.530   9.414  33.6010  0.00  0.00     0.000 HD
BRANCH 69 75
ATOM     75   C  BDP B   5      18.511   7.140  37.6630  0.00  0.00     0.000 C
ATOM     76   O  BDP B   5      18.766   6.942  38.8680  0.00  0.00     0.000 OA
ATOM     77   O  BDP B   5      17.376   7.464  37.2680  0.00  0.00     0.000 OA
ENDBRANCH 69 75
BRANCH 65 78
ATOM     78  O3  NAG B   6      19.114   4.931  34.1540  0.00  0.00     0.000 O
BRANCH 78 81
ATOM     79  C1  NAG B   6      19.328   1.189  33.6180  0.00  0.00     0.000 C
ATOM     80  C2  NAG B   6      19.587   2.680  33.3500  0.00  0.00     0.000 C
ATOM     81  C3  NAG B   6      19.010   3.526  34.4730  0.00  0.00     0.000 C
ATOM     82  C4  NAG B   6      17.547   3.156  34.7380  0.00  0.00     0.000 C
ATOM     83  C5  NAG B   6      17.442   1.658  35.0000  0.00  0.00     0.000 C
ATOM     84  O5  NAG B   6      17.921   0.982  33.8370  0.00  0.00     0.000 O
BRANCH 80 87
ATOM     85   N  NAG B   6      21.023   2.794  33.1110  0.00  0.00     0.000 N
ATOM     87  HD  NAG B   6      21.704   2.701  32.5830  0.00  0.00     0.000 HD
ATOM     87   C  NAG B   6      21.571   3.640  32.2300  0.00  0.00     0.000 C
ATOM     88   C  NAG B   6      23.065   3.627  32.1610  0.00  0.00     0.000 C
ATOM     89   O  NAG B   6      20.909   4.394  31.5270  0.00  0.00     0.000 OA
ENDBRANCH 80 87
ATOM     90   O  NAG B   6      15.938   0.769  36.6720  0.00  0.00     0.000 O
ATOM     92  HD  NAG B   6      16.687   0.660  36.2510  0.00  0.00     0.000 HD
ATOM     92   O  NAG B   6      15.938   0.769  36.6720  0.00  0.00     0.000 O
ATOM     94  HD  NAG B   6      16.687   0.660  36.2510  0.00  0.00     0.000 HD
ENDBRANCH 78 81
ENDBRANCH 65 78
ENDBRANCH 64 68
ENDBRANCH 48 64
ENDBRANCH 47 50
ENDBRANCH 34 47
ENDBRANCH 33 37
ENDBRANCH 17 33
ENDBRANCH 16 19
ENDBRANCH 1 16
TORSDOF 16
ENDMDL
MODEL 92
REMARK VINA RESULT:      -1.6    105.138    110.838
ROOT
ATOM      1  C1  BDP B   1      66.836 109.731  36.2790  0.00  0.00     0.000 C
ATOM      2  C2  BDP B   1      66.302 111.150  36.3640  0.00  0.00     0.000 C
ATOM      3  C3  BDP B   1      65.821 111.659  35.0220  0.00  0.00     0.000 C
ATOM      4  C4  BDP B   1      65.636 110.568  33.9730  0.00  0.00     0.000 C
ATOM      5  C5  BDP B   1      66.819 109.606  33.9080  0.00  0.00     0.000 C
ATOM      6  O5  BDP B   1      67.622 109.653  35.1000  0.00  0.00     0.000 O
ATOM      7   O  BDP B   1      65.233 111.212  37.3140  0.00  0.00     0.000 O
ATOM      9  HD  BDP B   1      64.885 111.009  38.0810  0.00  0.00     0.000 HD
ATOM      9   O  BDP B   1      66.754 112.615  34.4970  0.00  0.00     0.000 O
ATOM     11  HD  BDP B   1      66.407 112.413  35.2640  0.00  0.00     0.000 HD
ATOM     11   O  BDP B   1      64.430 109.835  34.2210  0.00  0.00     0.000 O
ATOM     13  HD  BDP B   1      64.083 109.632  34.9880  0.00  0.00     0.000 HD
ENDROOT
BRANCH 5 13
ATOM     13   C  BDP B   1      67.642 109.998  32.7320  0.00  0.00     0.000 C
ATOM     14   O  BDP B   1      67.345 109.518  31.6180  0.00  0.00     0.000 OA
ATOM     15   O  BDP B   1      68.579 110.810  32.8890  0.00  0.00     0.000 OA
ENDBRANCH 5 13
BRANCH 1 16
ATOM     16  O3  NAG B   2      66.428 108.545  36.9590  0.00  0.00     0.000 O
BRANCH 16 19
ATOM     17  C1  NAG B   2      64.490 105.777  35.6040  0.00  0.00     0.000 C
ATOM     18  C2  NAG B   2      65.756 106.635  35.6050  0.00  0.00     0.000 C
ATOM     19  C3  NAG B   2      66.038 107.172  37.0000  0.00  0.00     0.000 C
ATOM     20  C4  NAG B   2      64.830 107.005  37.9270  0.00  0.00     0.000 C
ATOM     21  C5  NAG B   2      63.462 107.176  37.2510  0.00  0.00     0.000 C
ATOM     22  O5  NAG B   2      63.425 106.680  35.9080  0.00  0.00     0.000 O
ATOM     23   O  NAG B   2      64.907 105.718  38.5470  0.00  0.00     0.000 O
ATOM     25  HD  NAG B   2      65.173 105.311  37.8310  0.00  0.00     0.000 HD
ATOM     25   C  NAG B   2      63.045 108.653  37.2400  0.00  0.00     0.000 C
ATOM     26   O  NAG B   2      62.399 109.032  38.4640  0.00  0.00     0.000 O
ATOM     28  HD  NAG B   2      62.665 108.625  37.7470  0.00  0.00     0.000 HD
BRANCH 18 30
ATOM     28   N  NAG B   2      66.086 105.227  35.3870  0.00  0.00     0.000 N
ATOM     30  HD  NAG B   2      65.994 104.441  35.7390  0.00  0.00     0.000 HD
ATOM     30   C  NAG B   2      67.322 104.710  35.4480  0.00  0.00     0.000 C
ATOM     31   C  NAG B   2      67.403 103.235  35.1750  0.00  0.00     0.000 C
ATOM     32   O  NAG B   2      68.305 105.363  35.7080  0.00  0.00     0.000 OA
ENDBRANCH 18 30
BRANCH 17 33
ATOM     33  O4  BDP B   3      63.363 105.164  34.9410  0.00  0.00     0.000 O
BRANCH 33 37
ATOM     34  C1  BDP B   3      61.452 104.189  31.2480  0.00  0.00     0.000 C
ATOM     35  C2  BDP B   3      61.010 103.418  32.4860  0.00  0.00     0.000 C
ATOM     36  C3  BDP B   3      61.406 104.089  33.7970  0.00  0.00     0.000 C
ATOM     37  C4  BDP B   3      62.871 104.542  33.7180  0.00  0.00     0.000 C
ATOM     38  C5  BDP B   3      63.000 105.465  32.4910  0.00  0.00     0.000 C
ATOM     39  O5  BDP B   3      62.813 104.622  31.3540  0.00  0.00     0.000 O
ATOM     40   O  BDP B   3      59.595 103.252  32.3690  0.00  0.00     0.000 O
ATOM     42  HD  BDP B   3      59.870 102.612  31.8540  0.00  0.00     0.000 HD
ATOM     42   O  BDP B   3      61.203 103.125  34.8280  0.00  0.00     0.000 O
ATOM     44  HD  BDP B   3      61.477 102.485  34.3130  0.00  0.00     0.000 HD
BRANCH 38 44
ATOM     44   C  BDP B   3      64.313 106.175  32.3850  0.00  0.00     0.000 C
ATOM     45   O  BDP B   3      65.345 105.481  32.2520  0.00  0.00     0.000 OA
ATOM     46   O  BDP B   3      64.346 107.424  32.4340  0.00  0.00     0.000 OA
ENDBRANCH 38 44
BRANCH 34 47
ATOM     47  O3  NAG B   4      61.874 103.319  30.2000  0.00  0.00     0.000 O
BRANCH 47 50
ATOM     48  C1  NAG B   4      62.860 105.379  27.2110  0.00  0.00     0.000 C
ATOM     49  C2  NAG B   4      62.002 104.934  28.3830  0.00  0.00     0.000 C
ATOM     50  C3  NAG B   4      62.704 103.801  29.1230  0.00  0.00     0.000 C
ATOM     51  C4  NAG B   4      63.045 102.650  28.1900  0.00  0.00     0.000 C
ATOM     52  C5  NAG B   4      63.848 103.170  26.9970  0.00  0.00     0.000 C
ATOM     53  O5  NAG B   4      63.155 104.253  26.3630  0.00  0.00     0.000 O
ATOM     54   O  NAG B   4      63.794 101.671  28.9140  0.00  0.00     0.000 O
ATOM     56  HD  NAG B   4      63.500 101.373  28.1560  0.00  0.00     0.000 HD
ATOM     56   C  NAG B   4      64.100 102.066  25.9770  0.00  0.00     0.000 C
ATOM     57   O  NAG B   4      62.841 101.568  25.5050  0.00  0.00     0.000 O
ATOM     59  HD  NAG B   4      62.548 101.270  24.7470  0.00  0.00     0.000 HD
BRANCH 49 61
ATOM     59   N  NAG B   4      60.733 104.856  27.6580  0.00  0.00     0.000 N
ATOM     61  HD  NAG B   4      61.030 104.742  28.4640  0.00  0.00     0.000 HD
ATOM     61   O  NAG B   4      59.459 105.853  29.2350  0.00  0.00     0.000 OA
ATOM     62   C  NAG B   4      59.591 105.385  28.1130  0.00  0.00     0.000 C
ATOM     63   C  NAG B   4      58.451 105.396  27.1440  0.00  0.00     0.000 C
ENDBRANCH 49 61
BRANCH 48 64
ATOM     64  O4  BDP B   5      63.016 106.627  26.5420  0.00  0.00     0.000 O
BRANCH 64 68
ATOM     65  C1  BDP B   5      63.139 110.339  28.4330  0.00  0.00     0.000 C
ATOM     66  C2  BDP B   5      62.075 110.174  27.3570  0.00  0.00     0.000 C
ATOM     67  C3  BDP B   5      61.861 108.694  27.0700  0.00  0.00     0.000 C
ATOM     68  C4  BDP B   5      63.182 108.037  26.6860  0.00  0.00     0.000 C
ATOM     69  C5  BDP B   5      64.273 108.294  27.7180  0.00  0.00     0.000 C
ATOM     70  O5  BDP B   5      64.358 109.697  28.0260  0.00  0.00     0.000 O
ATOM     71   O  BDP B   5      60.861 110.815  27.7770  0.00  0.00     0.000 O
ATOM     73  HD  BDP B   5      60.149 111.198  28.0870  0.00  0.00     0.000 HD
ATOM     73   O  BDP B   5      60.919 108.519  26.0050  0.00  0.00     0.000 O
ATOM     75  HD  BDP B   5      60.207 108.902  26.3150  0.00  0.00     0.000 HD
BRANCH 69 75
ATOM     75   C  BDP B   5      65.586 107.824  27.1460  0.00  0.00     0.000 C
ATOM     76   O  BDP B   5      66.183 106.884  27.7090  0.00  0.00     0.000 OA
ATOM     77   O  BDP B   5      66.035 108.382  26.1280  0.00  0.00     0.000 OA
ENDBRANCH 69 75
BRANCH 65 78
ATOM     78  O3  NAG B   6      64.036 111.443  28.5790  0.00  0.00     0.000 O
BRANCH 78 81
ATOM     79  C1  NAG B   6      65.063 113.568  31.5390  0.00  0.00     0.000 C
ATOM     80  C2  NAG B   6      64.136 112.994  30.4550  0.00  0.00     0.000 C
ATOM     81  C3  NAG B   6      64.841 111.882  29.6950  0.00  0.00     0.000 C
ATOM     82  C4  NAG B   6      66.215 112.345  29.2000  0.00  0.00     0.000 C
ATOM     83  C5  NAG B   6      67.026 112.874  30.3780  0.00  0.00     0.000 C
ATOM     84  O5  NAG B   6      66.306 113.972  30.9390  0.00  0.00     0.000 O
BRANCH 80 87
ATOM     85   N  NAG B   6      62.899 112.612  31.1300  0.00  0.00     0.000 N
ATOM     87  HD  NAG B   6      62.147 112.834  31.4970  0.00  0.00     0.000 HD
ATOM     87   C  NAG B   6      61.679 112.768  30.6020  0.00  0.00     0.000 C
ATOM     88   C  NAG B   6      60.541 112.279  31.4410  0.00  0.00     0.000 C
ATOM     89   O  NAG B   6      61.487 113.264  29.4990  0.00  0.00     0.000 OA
ENDBRANCH 80 87
ATOM     90   O  NAG B   6      69.399 112.453  30.5690  0.00  0.00     0.000 O
ATOM     92  HD  NAG B   6      68.659 112.589  30.9970  0.00  0.00     0.000 HD
ATOM     92   O  NAG B   6      69.399 112.453  30.5690  0.00  0.00     0.000 O
ATOM     94  HD  NAG B   6      68.659 112.589  30.9970  0.00  0.00     0.000 HD
ENDBRANCH 78 81
ENDBRANCH 65 78
ENDBRANCH 64 68
ENDBRANCH 48 64
ENDBRANCH 47 50
ENDBRANCH 34 47
ENDBRANCH 33 37
ENDBRANCH 17 33
ENDBRANCH 16 19
ENDBRANCH 1 16
TORSDOF 16
ENDMDL
MODEL 93
REMARK VINA RESULT:      -1.5     81.864     86.950
ROOT
ATOM      1  C1  BDP B   1      79.384  40.318  68.6240  0.00  0.00     0.000 C
ATOM      2  C2  BDP B   1      78.137  39.788  69.3100  0.00  0.00     0.000 C
ATOM      3  C3  BDP B   1      78.444  39.190  70.6660  0.00  0.00     0.000 C
ATOM      4  C4  BDP B   1      79.823  39.550  71.2070  0.00  0.00     0.000 C
ATOM      5  C5  BDP B   1      80.927  39.382  70.1670  0.00  0.00     0.000 C
ATOM      6  O5  BDP B   1      80.409  39.356  68.8260  0.00  0.00     0.000 O
ATOM      7   O  BDP B   1      77.177  40.841  69.4550  0.00  0.00     0.000 O
ATOM      9  HD  BDP B   1      76.745  41.523  69.1420  0.00  0.00     0.000 HD
ATOM      9   O  BDP B   1      78.362  37.757  70.5990  0.00  0.00     0.000 O
ATOM     11  HD  BDP B   1      77.930  38.440  70.2870  0.00  0.00     0.000 HD
ATOM     11   O  BDP B   1      79.829  40.893  71.7060  0.00  0.00     0.000 O
ATOM     13  HD  BDP B   1      79.397  41.575  71.3940  0.00  0.00     0.000 HD
ENDROOT
BRANCH 5 13
ATOM     13   C  BDP B   1      81.620  38.099  70.4630  0.00  0.00     0.000 C
ATOM     14   O  BDP B   1      82.617  38.127  71.2140  0.00  0.00     0.000 OA
ATOM     15   O  BDP B   1      81.171  37.039  69.9760  0.00  0.00     0.000 OA
ENDBRANCH 5 13
BRANCH 1 16
ATOM     16  O3  NAG B   2      79.700  41.628  68.1580  0.00  0.00     0.000 O
BRANCH 16 19
ATOM     17  C1  NAG B   2      81.871  44.130  69.6670  0.00  0.00     0.000 C
ATOM     18  C2  NAG B   2      81.667  42.737  69.0730  0.00  0.00     0.000 C
ATOM     19  C3  NAG B   2      80.564  42.758  68.0250  0.00  0.00     0.000 C
ATOM     20  C4  NAG B   2      79.741  44.048  68.0950  0.00  0.00     0.000 C
ATOM     21  C5  NAG B   2      79.533  44.613  69.5060  0.00  0.00     0.000 C
ATOM     22  O5  NAG B   2      80.660  44.420  70.3690  0.00  0.00     0.000 O
ATOM     23   O  NAG B   2      80.368  45.032  67.2660  0.00  0.00     0.000 O
ATOM     25  HD  NAG B   2      81.174  44.822  67.5050  0.00  0.00     0.000 HD
ATOM     25   C  NAG B   2      78.298  43.982  70.1650  0.00  0.00     0.000 C
ATOM     26   O  NAG B   2      77.092  44.667  69.7990  0.00  0.00     0.000 O
ATOM     28  HD  NAG B   2      77.897  44.457  70.0370  0.00  0.00     0.000 HD
BRANCH 18 30
ATOM     28   N  NAG B   2      82.882  43.363  68.5520  0.00  0.00     0.000 N
ATOM     30  HD  NAG B   2      83.154  44.004  68.0370  0.00  0.00     0.000 HD
ATOM     30   C  NAG B   2      83.726  42.794  67.6790  0.00  0.00     0.000 C
ATOM     31   C  NAG B   2      84.911  43.637  67.3040  0.00  0.00     0.000 C
ATOM     32   O  NAG B   2      83.558  41.690  67.2130  0.00  0.00     0.000 OA
ENDBRANCH 18 30
BRANCH 17 33
ATOM     33  O4  BDP B   3      82.321  45.019  70.7130  0.00  0.00     0.000 O
BRANCH 33 37
ATOM     34  C1  BDP B   3      83.706  44.435  74.7110  0.00  0.00     0.000 C
ATOM     35  C2  BDP B   3      82.659  45.519  74.4880  0.00  0.00     0.000 C
ATOM     36  C3  BDP B   3      81.917  45.389  73.1620  0.00  0.00     0.000 C
ATOM     37  C4  BDP B   3      82.926  45.122  72.0350  0.00  0.00     0.000 C
ATOM     38  C5  BDP B   3      83.722  43.861  72.4220  0.00  0.00     0.000 C
ATOM     39  O5  BDP B   3      84.517  44.236  73.5470  0.00  0.00     0.000 O
ATOM     40   O  BDP B   3      81.776  45.459  75.6100  0.00  0.00     0.000 O
ATOM     42  HD  BDP B   3      82.428  45.915  75.9510  0.00  0.00     0.000 HD
ATOM     42   O  BDP B   3      81.212  46.613  72.9650  0.00  0.00     0.000 O
ATOM     44  HD  BDP B   3      81.865  47.069  73.3060  0.00  0.00     0.000 HD
BRANCH 38 44
ATOM     44   C  BDP B   3      84.602  43.326  71.3350  0.00  0.00     0.000 C
ATOM     45   O  BDP B   3      84.516  42.110  71.0580  0.00  0.00     0.000 OA
ATOM     46   O  BDP B   3      85.389  44.096  70.7420  0.00  0.00     0.000 OA
ENDBRANCH 38 44
BRANCH 34 47
ATOM     47  O3  NAG B   4      84.870  44.942  75.3610  0.00  0.00     0.000 O
BRANCH 47 50
ATOM     48  C1  NAG B   4      86.381  42.148  77.3750  0.00  0.00     0.000 C
ATOM     49  C2  NAG B   4      85.281  43.029  76.8090  0.00  0.00     0.000 C
ATOM     50  C3  NAG B   4      85.891  44.052  75.8580  0.00  0.00     0.000 C
ATOM     51  C4  NAG B   4      86.986  44.862  76.5330  0.00  0.00     0.000 C
ATOM     52  C5  NAG B   4      88.025  43.922  77.1440  0.00  0.00     0.000 C
ATOM     53  O5  NAG B   4      87.391  42.964  78.0010  0.00  0.00     0.000 O
ATOM     54   O  NAG B   4      87.591  45.725  75.5670  0.00  0.00     0.000 O
ATOM     56  HD  NAG B   4      87.800  45.937  76.3800  0.00  0.00     0.000 HD
ATOM     56   C  NAG B   4      89.072  44.695  77.9370  0.00  0.00     0.000 C
ATOM     57   O  NAG B   4      88.422  45.412  78.9950  0.00  0.00     0.000 O
ATOM     59  HD  NAG B   4      88.631  45.624  79.8080  0.00  0.00     0.000 HD
BRANCH 49 61
ATOM     59   N  NAG B   4      84.605  43.165  78.1000  0.00  0.00     0.000 N
ATOM     61  HD  NAG B   4      84.518  43.452  77.2870  0.00  0.00     0.000 HD
ATOM     61   O  NAG B   4      82.492  43.018  77.3160  0.00  0.00     0.000 OA
ATOM     62   C  NAG B   4      83.278  43.075  78.2500  0.00  0.00     0.000 C
ATOM     63   C  NAG B   4      82.789  43.025  79.6630  0.00  0.00     0.000 C
ENDBRANCH 49 61
BRANCH 48 64
ATOM     64  O4  BDP B   5      86.405  40.799  77.8320  0.00  0.00     0.000 O
BRANCH 64 68
ATOM     65  C1  BDP B   5      83.420  37.983  77.1040  0.00  0.00     0.000 C
ATOM     66  C2  BDP B   5      83.796  38.194  78.5650  0.00  0.00     0.000 C
ATOM     67  C3  BDP B   5      84.550  39.509  78.7140  0.00  0.00     0.000 C
ATOM     68  C4  BDP B   5      85.766  39.524  77.7940  0.00  0.00     0.000 C
ATOM     69  C5  BDP B   5      85.397  39.208  76.3500  0.00  0.00     0.000 C
ATOM     70  O5  BDP B   5      84.597  38.014  76.2820  0.00  0.00     0.000 O
ATOM     71   O  BDP B   5      82.611  38.167  79.3760  0.00  0.00     0.000 O
ATOM     73  HD  BDP B   5      81.865  38.162  79.8150  0.00  0.00     0.000 HD
ATOM     73   O  BDP B   5      84.981  39.690  80.0690  0.00  0.00     0.000 O
ATOM     75  HD  BDP B   5      84.235  39.685  80.5080  0.00  0.00     0.000 HD
BRANCH 69 75
ATOM     75   C  BDP B   5      86.671  39.006  75.5690  0.00  0.00     0.000 C
ATOM     76   O  BDP B   5      87.434  38.075  75.8980  0.00  0.00     0.000 OA
ATOM     77   O  BDP B   5      86.923  39.768  74.6180  0.00  0.00     0.000 OA
ENDBRANCH 69 75
BRANCH 65 78
ATOM     78  O3  NAG B   6      83.265  36.726  76.4410  0.00  0.00     0.000 O
BRANCH 78 81
ATOM     79  C1  NAG B   6      80.548  34.960  74.4830  0.00  0.00     0.000 C
ATOM     80  C2  NAG B   6      81.286  35.503  75.7180  0.00  0.00     0.000 C
ATOM     81  C3  NAG B   6      82.480  36.340  75.2910  0.00  0.00     0.000 C
ATOM     82  C4  NAG B   6      83.355  35.575  74.2930  0.00  0.00     0.000 C
ATOM     83  C5  NAG B   6      82.498  35.110  73.1210  0.00  0.00     0.000 C
ATOM     84  O5  NAG B   6      81.479  34.257  73.6420  0.00  0.00     0.000 O
BRANCH 80 87
ATOM     85   N  NAG B   6      80.266  36.167  76.5240  0.00  0.00     0.000 N
ATOM     87  HD  NAG B   6      79.608  36.121  77.0850  0.00  0.00     0.000 HD
ATOM     87   C  NAG B   6      80.253  36.168  77.8630  0.00  0.00     0.000 C
ATOM     88   C  NAG B   6      79.140  36.938  78.5010  0.00  0.00     0.000 C
ATOM     89   O  NAG B   6      81.098  35.594  78.5400  0.00  0.00     0.000 OA
ENDBRANCH 80 87
ATOM     90   O  NAG B   6      83.335  35.142  70.8520  0.00  0.00     0.000 O
ATOM     92  HD  NAG B   6      82.636  35.207  71.3590  0.00  0.00     0.000 HD
ATOM     92   O  NAG B   6      83.335  35.142  70.8520  0.00  0.00     0.000 O
ATOM     94  HD  NAG B   6      82.636  35.207  71.3590  0.00  0.00     0.000 HD
ENDBRANCH 78 81
ENDBRANCH 65 78
ENDBRANCH 64 68
ENDBRANCH 48 64
ENDBRANCH 47 50
ENDBRANCH 34 47
ENDBRANCH 33 37
ENDBRANCH 17 33
ENDBRANCH 16 19
ENDBRANCH 1 16
TORSDOF 16
ENDMDL
MODEL 94
REMARK VINA RESULT:      -1.5     74.650     79.411
ROOT
ATOM      1  C1  BDP B   1      30.969  82.610  45.3720  0.00  0.00     0.000 C
ATOM      2  C2  BDP B   1      31.095  84.110  45.1720  0.00  0.00     0.000 C
ATOM      3  C3  BDP B   1      31.100  84.862  46.4850  0.00  0.00     0.000 C
ATOM      4  C4  BDP B   1      31.335  83.979  47.7060  0.00  0.00     0.000 C
ATOM      5  C5  BDP B   1      30.481  82.715  47.6930  0.00  0.00     0.000 C
ATOM      6  O5  BDP B   1      29.988  82.407  46.3780  0.00  0.00     0.000 O
ATOM      7   O  BDP B   1      32.293  84.405  44.4450  0.00  0.00     0.000 O
ATOM      9  HD  BDP B   1      32.847  84.247  43.7980  0.00  0.00     0.000 HD
ATOM      9   O  BDP B   1      29.844  85.535  46.6690  0.00  0.00     0.000 O
ATOM     11  HD  BDP B   1      30.399  85.377  46.0230  0.00  0.00     0.000 HD
ATOM     11   O  BDP B   1      32.719  83.626  47.8080  0.00  0.00     0.000 O
ATOM     13  HD  BDP B   1      33.274  83.469  47.1620  0.00  0.00     0.000 HD
ENDROOT
BRANCH 5 13
ATOM     13   C  BDP B   1      29.336  82.946  48.6170  0.00  0.00     0.000 C
ATOM     14   O  BDP B   1      29.469  82.617  49.8140  0.00  0.00     0.000 OA
ATOM     15   O  BDP B   1      28.297  83.482  48.1750  0.00  0.00     0.000 OA
ENDBRANCH 5 13
BRANCH 1 16
ATOM     16  O3  NAG B   2      31.831  81.546  44.9740  0.00  0.00     0.000 O
BRANCH 16 19
ATOM     17  C1  NAG B   2      34.140  79.600  47.0080  0.00  0.00     0.000 C
ATOM     18  C2  NAG B   2      32.719  80.074  46.7000  0.00  0.00     0.000 C
ATOM     19  C3  NAG B   2      32.555  80.337  45.2110  0.00  0.00     0.000 C
ATOM     20  C4  NAG B   2      33.905  80.394  44.4920  0.00  0.00     0.000 C
ATOM     21  C5  NAG B   2      35.051  81.013  45.3050  0.00  0.00     0.000 C
ATOM     22  O5  NAG B   2      34.981  80.715  46.7040  0.00  0.00     0.000 O
ATOM     23   O  NAG B   2      34.260  79.068  44.0860  0.00  0.00     0.000 O
ATOM     25  HD  NAG B   2      33.986  78.695  44.8180  0.00  0.00     0.000 HD
ATOM     25   C  NAG B   2      35.076  82.538  45.1280  0.00  0.00     0.000 C
ATOM     26   O  NAG B   2      35.805  82.925  43.9550  0.00  0.00     0.000 O
ATOM     28  HD  NAG B   2      35.532  82.552  44.6870  0.00  0.00     0.000 HD
BRANCH 18 30
ATOM     28   N  NAG B   2      32.758  78.629  46.9260  0.00  0.00     0.000 N
ATOM     30  HD  NAG B   2      33.006  77.886  46.5570  0.00  0.00     0.000 HD
ATOM     30   C  NAG B   2      31.683  77.829  46.9630  0.00  0.00     0.000 C
ATOM     31   C  NAG B   2      31.982  76.380  47.2220  0.00  0.00     0.000 C
ATOM     32   O  NAG B   2      30.552  78.224  46.7950  0.00  0.00     0.000 OA
ENDBRANCH 18 30
BRANCH 17 33
ATOM     33  O4  BDP B   3      35.255  79.406  47.9060  0.00  0.00     0.000 O
BRANCH 33 37
ATOM     34  C1  BDP B   3      36.140  80.817  51.8390  0.00  0.00     0.000 C
ATOM     35  C2  BDP B   3      37.191  81.053  50.7610  0.00  0.00     0.000 C
ATOM     36  C3  BDP B   3      36.651  80.918  49.3410  0.00  0.00     0.000 C
ATOM     37  C4  BDP B   3      35.790  79.650  49.2400  0.00  0.00     0.000 C
ATOM     38  C5  BDP B   3      34.688  79.758  50.3100  0.00  0.00     0.000 C
ATOM     39  O5  BDP B   3      35.357  79.648  51.5660  0.00  0.00     0.000 O
ATOM     40   O  BDP B   3      37.735  82.351  51.0110  0.00  0.00     0.000 O
ATOM     42  HD  BDP B   3      38.180  81.883  51.5880  0.00  0.00     0.000 HD
ATOM     42   O  BDP B   3      37.783  80.863  48.4760  0.00  0.00     0.000 O
ATOM     44  HD  BDP B   3      38.228  80.394  49.0520  0.00  0.00     0.000 HD
BRANCH 38 44
ATOM     44   C  BDP B   3      33.623  78.710  50.2110  0.00  0.00     0.000 C
ATOM     45   O  BDP B   3      33.977  77.511  50.2500  0.00  0.00     0.000 OA
ATOM     46   O  BDP B   3      32.427  79.053  50.0910  0.00  0.00     0.000 OA
ENDBRANCH 38 44
BRANCH 34 47
ATOM     47  O3  NAG B   4      36.676  80.121  52.9630  0.00  0.00     0.000 O
BRANCH 47 50
ATOM     48  C1  NAG B   4      34.769  81.222  56.0120  0.00  0.00     0.000 C
ATOM     49  C2  NAG B   4      35.498  81.371  54.6890  0.00  0.00     0.000 C
ATOM     50  C3  NAG B   4      35.923  79.996  54.1870  0.00  0.00     0.000 C
ATOM     51  C4  NAG B   4      36.755  79.255  55.2210  0.00  0.00     0.000 C
ATOM     52  C5  NAG B   4      36.001  79.198  56.5500  0.00  0.00     0.000 C
ATOM     53  O5  NAG B   4      35.599  80.513  56.9530  0.00  0.00     0.000 O
ATOM     54   O  NAG B   4      37.030  77.937  54.7400  0.00  0.00     0.000 O
ATOM     56  HD  NAG B   4      37.524  78.155  55.4170  0.00  0.00     0.000 HD
ATOM     56   C  NAG B   4      36.856  78.572  57.6460  0.00  0.00     0.000 C
ATOM     57   O  NAG B   4      38.041  79.360  57.8210  0.00  0.00     0.000 O
ATOM     59  HD  NAG B   4      38.535  79.578  58.4980  0.00  0.00     0.000 HD
BRANCH 49 61
ATOM     59   N  NAG B   4      36.266  82.533  55.1390  0.00  0.00     0.000 N
ATOM     61  HD  NAG B   4      36.197  82.032  54.4360  0.00  0.00     0.000 HD
ATOM     61   O  NAG B   4      36.143  83.704  53.2120  0.00  0.00     0.000 OA
ATOM     62   C  NAG B   4      36.459  83.625  54.3900  0.00  0.00     0.000 C
ATOM     63   C  NAG B   4      37.081  84.790  55.0930  0.00  0.00     0.000 C
ENDBRANCH 49 61
BRANCH 48 64
ATOM     64  O4  BDP B   5      33.747  81.984  56.6470  0.00  0.00     0.000 O
BRANCH 64 68
ATOM     65  C1  BDP B   5      31.557  85.023  54.8190  0.00  0.00     0.000 C
ATOM     66  C2  BDP B   5      32.266  85.398  56.1140  0.00  0.00     0.000 C
ATOM     67  C3  BDP B   5      33.341  84.365  56.4270  0.00  0.00     0.000 C
ATOM     68  C4  BDP B   5      32.729  82.970  56.4830  0.00  0.00     0.000 C
ATOM     69  C5  BDP B   5      31.932  82.642  55.2270  0.00  0.00     0.000 C
ATOM     70  O5  BDP B   5      31.007  83.700  54.9230  0.00  0.00     0.000 O
ATOM     71   O  BDP B   5      32.817  86.719  55.9970  0.00  0.00     0.000 O
ATOM     73  HD  BDP B   5      33.145  87.509  55.8660  0.00  0.00     0.000 HD
ATOM     73   O  BDP B   5      33.969  84.657  57.6810  0.00  0.00     0.000 O
ATOM     75  HD  BDP B   5      34.297  85.447  57.5510  0.00  0.00     0.000 HD
BRANCH 69 75
ATOM     75   C  BDP B   5      31.171  81.363  55.4700  0.00  0.00     0.000 C
ATOM     76   O  BDP B   5      30.300  81.343  56.3620  0.00  0.00     0.000 OA
ATOM     77   O  BDP B   5      31.430  80.365  54.7710  0.00  0.00     0.000 OA
ENDBRANCH 69 75
BRANCH 65 78
ATOM     78  O3  NAG B   6      30.199  85.316  54.4800  0.00  0.00     0.000 O
BRANCH 78 81
ATOM     79  C1  NAG B   6      28.386  87.132  51.6960  0.00  0.00     0.000 C
ATOM     80  C2  NAG B   6      29.219  86.965  52.9770  0.00  0.00     0.000 C
ATOM     81  C3  NAG B   6      29.551  85.498  53.2020  0.00  0.00     0.000 C
ATOM     82  C4  NAG B   6      28.286  84.636  53.1290  0.00  0.00     0.000 C
ATOM     83  C5  NAG B   6      27.572  84.894  51.8070  0.00  0.00     0.000 C
ATOM     84  O5  NAG B   6      27.229  86.279  51.7650  0.00  0.00     0.000 O
BRANCH 80 87
ATOM     85   N  NAG B   6      30.343  87.886  52.8360  0.00  0.00     0.000 N
ATOM     87  HD  NAG B   6      30.661  88.691  52.8770  0.00  0.00     0.000 HD
ATOM     87   C  NAG B   6      30.889  88.563  53.8530  0.00  0.00     0.000 C
ATOM     88   C  NAG B   6      32.057  89.430  53.5040  0.00  0.00     0.000 C
ATOM     89   O  NAG B   6      30.484  88.479  55.0070  0.00  0.00     0.000 OA
ENDBRANCH 80 87
ATOM     90   O  NAG B   6      26.514  83.105  50.5720  0.00  0.00     0.000 O
ATOM     92  HD  NAG B   6      26.918  83.869  50.5220  0.00  0.00     0.000 HD
ATOM     92   O  NAG B   6      26.514  83.105  50.5720  0.00  0.00     0.000 O
ATOM     94  HD  NAG B   6      26.918  83.869  50.5220  0.00  0.00     0.000 HD
ENDBRANCH 78 81
ENDBRANCH 65 78
ENDBRANCH 64 68
ENDBRANCH 48 64
ENDBRANCH 47 50
ENDBRANCH 34 47
ENDBRANCH 33 37
ENDBRANCH 17 33
ENDBRANCH 16 19
ENDBRANCH 1 16
TORSDOF 16
ENDMDL
MODEL 95
REMARK VINA RESULT:      -1.5    106.189    110.224
ROOT
ATOM      1  C1  BDP B   1      65.189  87.655  81.5000  0.00  0.00     0.000 C
ATOM      2  C2  BDP B   1      64.468  88.985  81.3680  0.00  0.00     0.000 C
ATOM      3  C3  BDP B   1      63.767  89.383  82.6500  0.00  0.00     0.000 C
ATOM      4  C4  BDP B   1      64.209  88.587  83.8720  0.00  0.00     0.000 C
ATOM      5  C5  BDP B   1      64.262  87.085  83.6110  0.00  0.00     0.000 C
ATOM      6  O5  BDP B   1      64.321  86.781  82.2070  0.00  0.00     0.000 O
ATOM      7   O  BDP B   1      65.396  90.007  80.9890  0.00  0.00     0.000 O
ATOM      9  HD  BDP B   1      66.059  90.291  80.5100  0.00  0.00     0.000 HD
ATOM      9   O  BDP B   1      62.349  89.212  82.5060  0.00  0.00     0.000 O
ATOM     11  HD  BDP B   1      63.012  89.496  82.0270  0.00  0.00     0.000 HD
ATOM     11   O  BDP B   1      65.487  89.044  84.3310  0.00  0.00     0.000 O
ATOM     13  HD  BDP B   1      66.150  89.328  83.8520  0.00  0.00     0.000 HD
ENDROOT
BRANCH 5 13
ATOM     13   C  BDP B   1      63.032  86.490  84.2020  0.00  0.00     0.000 C
ATOM     14   O  BDP B   1      62.009  86.423  83.4900  0.00  0.00     0.000 OA
ATOM     15   O  BDP B   1      63.070  86.057  85.3740  0.00  0.00     0.000 OA
ENDBRANCH 5 13
BRANCH 1 16
ATOM     16  O3  NAG B   2      66.565  87.326  81.3250  0.00  0.00     0.000 O
BRANCH 16 19
ATOM     17  C1  NAG B   2      69.082  86.613  83.8580  0.00  0.00     0.000 C
ATOM     18  C2  NAG B   2      67.749  86.286  83.1840  0.00  0.00     0.000 C
ATOM     19  C3  NAG B   2      67.780  86.684  81.7150  0.00  0.00     0.000 C
ATOM     20  C4  NAG B   2      68.970  87.594  81.4000  0.00  0.00     0.000 C
ATOM     21  C5  NAG B   2      69.354  88.575  82.5160  0.00  0.00     0.000 C
ATOM     22  O5  NAG B   2      69.175  88.039  83.8320  0.00  0.00     0.000 O
ATOM     23   O  NAG B   2      70.095  86.773  81.0670  0.00  0.00     0.000 O
ATOM     25  HD  NAG B   2      69.937  86.186  81.6840  0.00  0.00     0.000 HD
ATOM     25   C  NAG B   2      68.540  89.872  82.4000  0.00  0.00     0.000 C
ATOM     26   O  NAG B   2      69.143  90.799  81.4860  0.00  0.00     0.000 O
ATOM     28  HD  NAG B   2      68.985  90.211  82.1030  0.00  0.00     0.000 HD
BRANCH 18 30
ATOM     28   N  NAG B   2      68.554  85.080  83.3760  0.00  0.00     0.000 N
ATOM     30  HD  NAG B   2      69.257  84.673  83.0760  0.00  0.00     0.000 HD
ATOM     30   C  NAG B   2      68.154  83.835  83.0810  0.00  0.00     0.000 C
ATOM     31   C  NAG B   2      69.161  82.761  83.3800  0.00  0.00     0.000 C
ATOM     32   O  NAG B   2      67.073  83.578  82.6040  0.00  0.00     0.000 OA
ENDBRANCH 18 30
BRANCH 17 33
ATOM     33  O4  BDP B   3      69.889  86.894  85.0220  0.00  0.00     0.000 O
BRANCH 33 37
ATOM     34  C1  BDP B   3      68.958  87.833  89.0840  0.00  0.00     0.000 C
ATOM     35  C2  BDP B   3      69.885  88.789  88.3420  0.00  0.00     0.000 C
ATOM     36  C3  BDP B   3      69.833  88.638  86.8260  0.00  0.00     0.000 C
ATOM     37  C4  BDP B   3      69.893  87.147  86.4580  0.00  0.00     0.000 C
ATOM     38  C5  BDP B   3      68.730  86.448  87.1870  0.00  0.00     0.000 C
ATOM     39  O5  BDP B   3      69.059  86.498  88.5750  0.00  0.00     0.000 O
ATOM     40   O  BDP B   3      69.525  90.105  88.7680  0.00  0.00     0.000 O
ATOM     42  HD  BDP B   3      70.024  89.859  89.4320  0.00  0.00     0.000 HD
ATOM     42   O  BDP B   3      70.947  89.359  86.3040  0.00  0.00     0.000 O
ATOM     44  HD  BDP B   3      71.445  89.113  86.9680  0.00  0.00     0.000 HD
BRANCH 38 44
ATOM     44   C  BDP B   3      68.503  85.028  86.7700  0.00  0.00     0.000 C
ATOM     45   O  BDP B   3      69.458  84.228  86.8740  0.00  0.00     0.000 OA
ATOM     46   O  BDP B   3      67.382  84.684  86.3340  0.00  0.00     0.000 OA
ENDBRANCH 38 44
BRANCH 34 47
ATOM     47  O3  NAG B   4      69.543  87.352  90.2920  0.00  0.00     0.000 O
BRANCH 47 50
ATOM     48  C1  NAG B   4      66.756  86.702  92.7340  0.00  0.00     0.000 C
ATOM     49  C2  NAG B   4      67.532  87.447  91.6620  0.00  0.00     0.000 C
ATOM     50  C3  NAG B   4      68.755  86.630  91.2620  0.00  0.00     0.000 C
ATOM     51  C4  NAG B   4      69.619  86.291  92.4660  0.00  0.00     0.000 C
ATOM     52  C5  NAG B   4      68.770  85.607  93.5380  0.00  0.00     0.000 C
ATOM     53  O5  NAG B   4      67.620  86.404  93.8480  0.00  0.00     0.000 O
ATOM     54   O  NAG B   4      70.687  85.437  92.0470  0.00  0.00     0.000 O
ATOM     56  HD  NAG B   4      70.814  85.767  92.8380  0.00  0.00     0.000 HD
ATOM     56   C  NAG B   4      69.574  85.365  94.8100  0.00  0.00     0.000 C
ATOM     57   O  NAG B   4      70.035  86.623  95.3190  0.00  0.00     0.000 O
ATOM     59  HD  NAG B   4      70.162  86.953  96.1100  0.00  0.00     0.000 HD
BRANCH 49 61
ATOM     59   N  NAG B   4      67.381  88.740  92.3320  0.00  0.00     0.000 N
ATOM     61  HD  NAG B   4      67.764  88.414  91.6270  0.00  0.00     0.000 HD
ATOM     61   O  NAG B   4      67.035  89.972  90.4710  0.00  0.00     0.000 OA
ATOM     62   C  NAG B   4      67.075  89.872  91.6890  0.00  0.00     0.000 C
ATOM     63   C  NAG B   4      66.752  91.045  92.5600  0.00  0.00     0.000 C
ENDBRANCH 49 61
BRANCH 48 64
ATOM     64  O4  BDP B   5      65.376  86.667  93.0840  0.00  0.00     0.000 O
BRANCH 64 68
ATOM     65  C1  BDP B   5      62.295  88.314  90.8100  0.00  0.00     0.000 C
ATOM     66  C2  BDP B   5      62.370  88.769  92.2620  0.00  0.00     0.000 C
ATOM     67  C3  BDP B   5      63.745  88.445  92.8310  0.00  0.00     0.000 C
ATOM     68  C4  BDP B   5      64.041  86.958  92.6730  0.00  0.00     0.000 C
ATOM     69  C5  BDP B   5      63.862  86.486  91.2350  0.00  0.00     0.000 C
ATOM     70  O5  BDP B   5      62.589  86.911  90.7180  0.00  0.00     0.000 O
ATOM     71   O  BDP B   5      62.080  90.173  92.3420  0.00  0.00     0.000 O
ATOM     73  HD  BDP B   5      61.918  91.024  92.3310  0.00  0.00     0.000 HD
ATOM     73   O  BDP B   5      63.810  88.795  94.2180  0.00  0.00     0.000 O
ATOM     75  HD  BDP B   5      63.649  89.646  94.2080  0.00  0.00     0.000 HD
BRANCH 69 75
ATOM     75   C  BDP B   5      63.934  84.980  91.2190  0.00  0.00     0.000 C
ATOM     76   O  BDP B   5      63.066  84.331  91.8360  0.00  0.00     0.000 OA
ATOM     77   O  BDP B   5      64.854  84.427  90.5880  0.00  0.00     0.000 OA
ENDBRANCH 69 75
BRANCH 65 78
ATOM     78  O3  NAG B   6      61.122  87.883  90.1150  0.00  0.00     0.000 O
BRANCH 78 81
ATOM     79  C1  NAG B   6      59.257  88.887  86.9770  0.00  0.00     0.000 C
ATOM     80  C2  NAG B   6      59.737  88.976  88.4340  0.00  0.00     0.000 C
ATOM     81  C3  NAG B   6      60.780  87.905  88.7120  0.00  0.00     0.000 C
ATOM     82  C4  NAG B   6      60.275  86.526  88.2760  0.00  0.00     0.000 C
ATOM     83  C5  NAG B   6      59.847  86.582  86.8140  0.00  0.00     0.000 C
ATOM     84  O5  NAG B   6      58.801  87.549  86.7060  0.00  0.00     0.000 O
BRANCH 80 87
ATOM     85   N  NAG B   6      60.144  90.365  88.6270  0.00  0.00     0.000 N
ATOM     87  HD  NAG B   6      59.935  91.193  88.7710  0.00  0.00     0.000 HD
ATOM     87   C  NAG B   6      59.978  91.042  89.7700  0.00  0.00     0.000 C
ATOM     88   C  NAG B   6      60.495  92.446  89.7740  0.00  0.00     0.000 C
ATOM     89   O  NAG B   6      59.452  90.556  90.7650  0.00  0.00     0.000 OA
ENDBRANCH 80 87
ATOM     90   O  NAG B   6      60.280  84.749  85.2980  0.00  0.00     0.000 O
ATOM     92  HD  NAG B   6      60.182  85.606  85.3760  0.00  0.00     0.000 HD
ATOM     92   O  NAG B   6      60.280  84.749  85.2980  0.00  0.00     0.000 O
ATOM     94  HD  NAG B   6      60.182  85.606  85.3760  0.00  0.00     0.000 HD
ENDBRANCH 78 81
ENDBRANCH 65 78
ENDBRANCH 64 68
ENDBRANCH 48 64
ENDBRANCH 47 50
ENDBRANCH 34 47
ENDBRANCH 33 37
ENDBRANCH 17 33
ENDBRANCH 16 19
ENDBRANCH 1 16
TORSDOF 16
ENDMDL
MODEL 96
REMARK VINA RESULT:      -1.5     59.373     64.097
ROOT
ATOM      1  C1  BDP B   1      51.871  26.045  76.9340  0.00  0.00     0.000 C
ATOM      2  C2  BDP B   1      50.742  25.050  76.7350  0.00  0.00     0.000 C
ATOM      3  C3  BDP B   1      49.527  25.389  77.5720  0.00  0.00     0.000 C
ATOM      4  C4  BDP B   1      49.543  26.802  78.1460  0.00  0.00     0.000 C
ATOM      5  C5  BDP B   1      50.882  27.167  78.7790  0.00  0.00     0.000 C
ATOM      6  O5  BDP B   1      51.946  26.312  78.3270  0.00  0.00     0.000 O
ATOM      7   O  BDP B   1      50.374  25.002  75.3520  0.00  0.00     0.000 O
ATOM      9  HD  BDP B   1      50.581  24.973  74.5110  0.00  0.00     0.000 HD
ATOM      9   O  BDP B   1      49.419  24.473  78.6730  0.00  0.00     0.000 O
ATOM     11  HD  BDP B   1      49.626  24.444  77.8320  0.00  0.00     0.000 HD
ATOM     11   O  BDP B   1      49.213  27.757  77.1300  0.00  0.00     0.000 O
ATOM     13  HD  BDP B   1      49.420  27.728  76.2900  0.00  0.00     0.000 HD
ENDROOT
BRANCH 5 13
ATOM     13   C  BDP B   1      50.723  27.033  80.2530  0.00  0.00     0.000 C
ATOM     14   O  BDP B   1      50.950  25.920  80.7720  0.00  0.00     0.000 OA
ATOM     15   O  BDP B   1      50.395  28.036  80.9230  0.00  0.00     0.000 OA
ENDBRANCH 5 13
BRANCH 1 16
ATOM     16  O3  NAG B   2      52.545  26.883  75.9970  0.00  0.00     0.000 O
BRANCH 16 19
ATOM     17  C1  NAG B   2      52.206  30.473  75.4940  0.00  0.00     0.000 C
ATOM     18  C2  NAG B   2      52.551  29.287  76.3950  0.00  0.00     0.000 C
ATOM     19  C3  NAG B   2      53.097  28.130  75.5710  0.00  0.00     0.000 C
ATOM     20  C4  NAG B   2      52.835  28.326  74.0750  0.00  0.00     0.000 C
ATOM     21  C5  NAG B   2      51.507  29.014  73.7300  0.00  0.00     0.000 C
ATOM     22  O5  NAG B   2      51.125  30.020  74.6760  0.00  0.00     0.000 O
ATOM     23   O  NAG B   2      53.925  29.067  73.5170  0.00  0.00     0.000 O
ATOM     25  HD  NAG B   2      53.993  29.608  74.1890  0.00  0.00     0.000 HD
ATOM     25   C  NAG B   2      50.374  27.983  73.6280  0.00  0.00     0.000 C
ATOM     26   O  NAG B   2      50.314  27.388  72.3230  0.00  0.00     0.000 O
ATOM     28  HD  NAG B   2      50.382  27.930  72.9960  0.00  0.00     0.000 HD
BRANCH 18 30
ATOM     28   N  NAG B   2      53.575  30.327  76.4770  0.00  0.00     0.000 N
ATOM     30  HD  NAG B   2      54.235  30.673  76.0350  0.00  0.00     0.000 HD
ATOM     30   C  NAG B   2      54.622  30.310  77.3140  0.00  0.00     0.000 C
ATOM     31   C  NAG B   2      55.531  31.502  77.2150  0.00  0.00     0.000 C
ATOM     32   O  NAG B   2      54.839  29.409  78.0910  0.00  0.00     0.000 OA
ENDBRANCH 18 30
BRANCH 17 33
ATOM     33  O4  BDP B   3      51.494  31.697  75.2110  0.00  0.00     0.000 O
BRANCH 33 37
ATOM     34  C1  BDP B   3      48.241  33.708  77.1130  0.00  0.00     0.000 C
ATOM     35  C2  BDP B   3      48.100  33.406  75.6260  0.00  0.00     0.000 C
ATOM     36  C3  BDP B   3      49.071  32.343  75.1230  0.00  0.00     0.000 C
ATOM     37  C4  BDP B   3      50.478  32.637  75.6660  0.00  0.00     0.000 C
ATOM     38  C5  BDP B   3      50.372  32.698  77.2020  0.00  0.00     0.000 C
ATOM     39  O5  BDP B   3      49.613  33.872  77.4910  0.00  0.00     0.000 O
ATOM     40   O  BDP B   3      46.736  33.032  75.4210  0.00  0.00     0.000 O
ATOM     42  HD  BDP B   3      46.660  33.895  75.4320  0.00  0.00     0.000 HD
ATOM     42   O  BDP B   3      49.031  32.393  73.6980  0.00  0.00     0.000 O
ATOM     44  HD  BDP B   3      48.955  33.255  73.7080  0.00  0.00     0.000 HD
BRANCH 38 44
ATOM     44   C  BDP B   3      51.688  32.758  77.9120  0.00  0.00     0.000 C
ATOM     45   O  BDP B   3      51.936  31.874  78.7610  0.00  0.00     0.000 OA
ATOM     46   O  BDP B   3      52.494  33.676  77.6430  0.00  0.00     0.000 OA
ENDBRANCH 38 44
BRANCH 34 47
ATOM     47  O3  NAG B   4      48.060  35.094  77.3960  0.00  0.00     0.000 O
BRANCH 47 50
ATOM     48  C1  NAG B   4      46.604  35.379  80.8520  0.00  0.00     0.000 C
ATOM     49  C2  NAG B   4      46.783  34.822  79.4510  0.00  0.00     0.000 C
ATOM     50  C3  NAG B   4      47.918  35.562  78.7530  0.00  0.00     0.000 C
ATOM     51  C4  NAG B   4      47.688  37.065  78.7490  0.00  0.00     0.000 C
ATOM     52  C5  NAG B   4      47.445  37.556  80.1770  0.00  0.00     0.000 C
ATOM     53  O5  NAG B   4      46.392  36.803  80.7920  0.00  0.00     0.000 O
ATOM     54   O  NAG B   4      48.831  37.710  78.1810  0.00  0.00     0.000 O
ATOM     56  HD  NAG B   4      48.147  38.237  78.2440  0.00  0.00     0.000 HD
ATOM     56   C  NAG B   4      47.087  39.037  80.1990  0.00  0.00     0.000 C
ATOM     57   O  NAG B   4      45.893  39.241  79.4320  0.00  0.00     0.000 O
ATOM     59  HD  NAG B   4      45.209  39.769  79.4940  0.00  0.00     0.000 HD
BRANCH 49 61
ATOM     59   N  NAG B   4      45.343  34.763  79.1940  0.00  0.00     0.000 N
ATOM     61  HD  NAG B   4      46.085  34.601  78.7770  0.00  0.00     0.000 HD
ATOM     61   O  NAG B   4      45.343  32.789  78.0970  0.00  0.00     0.000 OA
ATOM     62   C  NAG B   4      44.741  33.722  78.6070  0.00  0.00     0.000 C
ATOM     63   C  NAG B   4      43.245  33.746  78.6240  0.00  0.00     0.000 C
ENDBRANCH 49 61
BRANCH 48 64
ATOM     64  O4  BDP B   5      46.141  34.806  82.0720  0.00  0.00     0.000 O
BRANCH 64 68
ATOM     65  C1  BDP B   5      45.394  30.749  82.6660  0.00  0.00     0.000 C
ATOM     66  C2  BDP B   5      44.244  31.693  82.9900  0.00  0.00     0.000 C
ATOM     67  C3  BDP B   5      44.492  33.046  82.3360  0.00  0.00     0.000 C
ATOM     68  C4  BDP B   5      45.842  33.602  82.7770  0.00  0.00     0.000 C
ATOM     69  C5  BDP B   5      46.975  32.610  82.5460  0.00  0.00     0.000 C
ATOM     70  O5  BDP B   5      46.639  31.323  83.0930  0.00  0.00     0.000 O
ATOM     71   O  BDP B   5      43.005  31.113  82.5530  0.00  0.00     0.000 O
ATOM     73  HD  BDP B   5      42.291  30.726  82.2530  0.00  0.00     0.000 HD
ATOM     73   O  BDP B   5      43.461  33.974  82.6920  0.00  0.00     0.000 O
ATOM     75  HD  BDP B   5      42.746  33.588  82.3920  0.00  0.00     0.000 HD
BRANCH 69 75
ATOM     75   C  BDP B   5      48.213  33.138  83.2260  0.00  0.00     0.000 C
ATOM     76   O  BDP B   5      48.208  33.265  84.4670  0.00  0.00     0.000 OA
ATOM     77   O  BDP B   5      49.205  33.428  82.5310  0.00  0.00     0.000 OA
ENDBRANCH 69 75
BRANCH 65 78
ATOM     78  O3  NAG B   6      45.867  29.676  83.4840  0.00  0.00     0.000 O
BRANCH 78 81
ATOM     79  C1  NAG B   6      46.382  25.945  83.1040  0.00  0.00     0.000 C
ATOM     80  C2  NAG B   6      45.612  27.260  83.3000  0.00  0.00     0.000 C
ATOM     81  C3  NAG B   6      46.549  28.447  83.1510  0.00  0.00     0.000 C
ATOM     82  C4  NAG B   6      47.788  28.279  84.0360  0.00  0.00     0.000 C
ATOM     83  C5  NAG B   6      48.455  26.944  83.7260  0.00  0.00     0.000 C
ATOM     84  O5  NAG B   6      47.507  25.912  84.0000  0.00  0.00     0.000 O
BRANCH 80 87
ATOM     85   N  NAG B   6      44.477  27.189  82.3830  0.00  0.00     0.000 N
ATOM     87  HD  NAG B   6      43.686  26.892  82.1930  0.00  0.00     0.000 HD
ATOM     87   C  NAG B   6      43.265  27.690  82.6510  0.00  0.00     0.000 C
ATOM     88   C  NAG B   6      42.248  27.545  81.5640  0.00  0.00     0.000 C
ATOM     89   O  NAG B   6      42.991  28.249  83.7070  0.00  0.00     0.000 OA
ENDBRANCH 80 87
ATOM     90   O  NAG B   6      50.862  26.717  83.6710  0.00  0.00     0.000 O
ATOM     92  HD  NAG B   6      50.108  26.432  83.3550  0.00  0.00     0.000 HD
ATOM     92   O  NAG B   6      50.862  26.717  83.6710  0.00  0.00     0.000 O
ATOM     94  HD  NAG B   6      50.108  26.432  83.3550  0.00  0.00     0.000 HD
ENDBRANCH 78 81
ENDBRANCH 65 78
ENDBRANCH 64 68
ENDBRANCH 48 64
ENDBRANCH 47 50
ENDBRANCH 34 47
ENDBRANCH 33 37
ENDBRANCH 17 33
ENDBRANCH 16 19
ENDBRANCH 1 16
TORSDOF 16
ENDMDL
MODEL 97
REMARK VINA RESULT:      -1.5     74.928     79.227
ROOT
ATOM      1  C1  BDP B   1      51.712  72.291  63.2720  0.00  0.00     0.000 C
ATOM      2  C2  BDP B   1      50.719  71.869  62.2040  0.00  0.00     0.000 C
ATOM      3  C3  BDP B   1      51.377  71.074  61.0960  0.00  0.00     0.000 C
ATOM      4  C4  BDP B   1      52.772  70.564  61.4410  0.00  0.00     0.000 C
ATOM      5  C5  BDP B   1      53.653  71.639  62.0700  0.00  0.00     0.000 C
ATOM      6  O5  BDP B   1      52.883  72.731  62.5990  0.00  0.00     0.000 O
ATOM      7   O  BDP B   1      49.669  71.095  62.7940  0.00  0.00     0.000 O
ATOM      9  HD  BDP B   1      49.090  70.955  63.4220  0.00  0.00     0.000 HD
ATOM      9   O  BDP B   1      51.487  71.880  59.9130  0.00  0.00     0.000 O
ATOM     11  HD  BDP B   1      50.908  71.740  60.5410  0.00  0.00     0.000 HD
ATOM     11   O  BDP B   1      52.688  69.433  62.3170  0.00  0.00     0.000 O
ATOM     13  HD  BDP B   1      52.109  69.293  62.9450  0.00  0.00     0.000 HD
ENDROOT
BRANCH 5 13
ATOM     13   C  BDP B   1      54.567  72.137  61.0060  0.00  0.00     0.000 C
ATOM     14   O  BDP B   1      54.173  73.076  60.2830  0.00  0.00     0.000 OA
ATOM     15   O  BDP B   1      55.701  71.624  60.8880  0.00  0.00     0.000 OA
ENDBRANCH 5 13
BRANCH 1 16
ATOM     16  O3  NAG B   2      51.738  72.022  64.6720  0.00  0.00     0.000 O
BRANCH 16 19
ATOM     17  C1  NAG B   2      53.853  69.681  66.4900  0.00  0.00     0.000 C
ATOM     18  C2  NAG B   2      53.701  70.909  65.5920  0.00  0.00     0.000 C
ATOM     19  C3  NAG B   2      52.388  71.623  65.8800  0.00  0.00     0.000 C
ATOM     20  C4  NAG B   2      51.441  70.755  66.7140  0.00  0.00     0.000 C
ATOM     21  C5  NAG B   2      51.500  69.251  66.4110  0.00  0.00     0.000 C
ATOM     22  O5  NAG B   2      52.814  68.788  66.0810  0.00  0.00     0.000 O
ATOM     23   O  NAG B   2      51.719  70.982  68.1000  0.00  0.00     0.000 O
ATOM     25  HD  NAG B   2      52.578  71.002  67.9960  0.00  0.00     0.000 HD
ATOM     25   C  NAG B   2      50.551  68.894  65.2590  0.00  0.00     0.000 C
ATOM     26   O  NAG B   2      49.212  68.668  65.7230  0.00  0.00     0.000 O
ATOM     28  HD  NAG B   2      50.072  68.688  65.6200  0.00  0.00     0.000 HD
BRANCH 18 30
ATOM     28   N  NAG B   2      54.632  71.169  66.6900  0.00  0.00     0.000 N
ATOM     30  HD  NAG B   2      54.658  71.316  67.5430  0.00  0.00     0.000 HD
ATOM     30   C  NAG B   2      55.345  72.294  66.8420  0.00  0.00     0.000 C
ATOM     31   C  NAG B   2      56.241  72.316  68.0480  0.00  0.00     0.000 C
ATOM     32   O  NAG B   2      55.281  73.232  66.0810  0.00  0.00     0.000 OA
ENDBRANCH 18 30
BRANCH 17 33
ATOM     33  O4  BDP B   3      54.415  68.387  66.7980  0.00  0.00     0.000 O
BRANCH 33 37
ATOM     34  C1  BDP B   3      56.704  65.568  64.5490  0.00  0.00     0.000 C
ATOM     35  C2  BDP B   3      55.430  65.060  65.2130  0.00  0.00     0.000 C
ATOM     36  C3  BDP B   3      54.469  66.170  65.6230  0.00  0.00     0.000 C
ATOM     37  C4  BDP B   3      55.251  67.288  66.3290  0.00  0.00     0.000 C
ATOM     38  C5  BDP B   3      56.356  67.756  65.3630  0.00  0.00     0.000 C
ATOM     39  O5  BDP B   3      57.274  66.666  65.2710  0.00  0.00     0.000 O
ATOM     40   O  BDP B   3      54.836  64.144  64.2900  0.00  0.00     0.000 O
ATOM     42  HD  BDP B   3      55.436  63.634  64.6500  0.00  0.00     0.000 HD
ATOM     42   O  BDP B   3      53.498  65.576  66.4830  0.00  0.00     0.000 O
ATOM     44  HD  BDP B   3      54.098  65.065  66.8430  0.00  0.00     0.000 HD
BRANCH 38 44
ATOM     44   C  BDP B   3      57.078  68.992  65.7990  0.00  0.00     0.000 C
ATOM     45   O  BDP B   3      57.093  69.968  65.0180  0.00  0.00     0.000 OA
ATOM     46   O  BDP B   3      57.641  69.017  66.9160  0.00  0.00     0.000 OA
ENDBRANCH 38 44
BRANCH 34 47
ATOM     47  O3  NAG B   4      57.846  64.804  64.9290  0.00  0.00     0.000 O
BRANCH 47 50
ATOM     48  C1  NAG B   4      60.273  64.850  62.0560  0.00  0.00     0.000 C
ATOM     49  C2  NAG B   4      58.924  64.749  62.7470  0.00  0.00     0.000 C
ATOM     50  C3  NAG B   4      59.106  64.962  64.2450  0.00  0.00     0.000 C
ATOM     51  C4  NAG B   4      60.124  63.994  64.8280  0.00  0.00     0.000 C
ATOM     52  C5  NAG B   4      61.436  64.090  64.0480  0.00  0.00     0.000 C
ATOM     53  O5  NAG B   4      61.198  63.916  62.6460  0.00  0.00     0.000 O
ATOM     54   O  NAG B   4      60.332  64.311  66.2070  0.00  0.00     0.000 O
ATOM     56  HD  NAG B   4      60.653  63.536  65.9910  0.00  0.00     0.000 HD
ATOM     56   C  NAG B   4      62.440  63.046  64.5240  0.00  0.00     0.000 C
ATOM     57   O  NAG B   4      61.883  61.739  64.3310  0.00  0.00     0.000 O
ATOM     59  HD  NAG B   4      62.203  60.964  64.1150  0.00  0.00     0.000 HD
BRANCH 49 61
ATOM     59   N  NAG B   4      58.509  63.588  61.9590  0.00  0.00     0.000 N
ATOM     61  HD  NAG B   4      58.203  64.079  62.6040  0.00  0.00     0.000 HD
ATOM     61   O  NAG B   4      56.357  64.211  61.6710  0.00  0.00     0.000 OA
ATOM     62   C  NAG B   4      57.287  63.455  61.4300  0.00  0.00     0.000 C
ATOM     63   C  NAG B   4      57.113  62.312  60.4810  0.00  0.00     0.000 C
ENDBRANCH 49 61
BRANCH 48 64
ATOM     64  O4  BDP B   5      60.664  65.259  60.7490  0.00  0.00     0.000 O
BRANCH 64 68
ATOM     65  C1  BDP B   5      58.146  67.061  57.9580  0.00  0.00     0.000 C
ATOM     66  C2  BDP B   5      58.880  65.813  57.4860  0.00  0.00     0.000 C
ATOM     67  C3  BDP B   5      59.400  65.038  58.6900  0.00  0.00     0.000 C
ATOM     68  C4  BDP B   5      60.278  65.936  59.5540  0.00  0.00     0.000 C
ATOM     69  C5  BDP B   5      59.575  67.232  59.9350  0.00  0.00     0.000 C
ATOM     70  O5  BDP B   5      59.014  67.866  58.7720  0.00  0.00     0.000 O
ATOM     71   O  BDP B   5      58.002  65.013  56.6800  0.00  0.00     0.000 O
ATOM     73  HD  BDP B   5      57.425  64.560  56.2180  0.00  0.00     0.000 HD
ATOM     73   O  BDP B   5      60.160  63.900  58.2660  0.00  0.00     0.000 O
ATOM     75  HD  BDP B   5      59.584  63.447  57.8050  0.00  0.00     0.000 HD
BRANCH 69 75
ATOM     75   C  BDP B   5      60.587  68.151  60.5710  0.00  0.00     0.000 C
ATOM     76   O  BDP B   5      61.583  68.498  59.9050  0.00  0.00     0.000 OA
ATOM     77   O  BDP B   5      60.399  68.541  61.7380  0.00  0.00     0.000 OA
ENDBRANCH 69 75
BRANCH 65 78
ATOM     78  O3  NAG B   6      58.035  68.298  57.2510  0.00  0.00     0.000 O
BRANCH 78 81
ATOM     79  C1  NAG B   6      55.228  70.514  56.0070  0.00  0.00     0.000 C
ATOM     80  C2  NAG B   6      56.183  69.310  56.0320  0.00  0.00     0.000 C
ATOM     81  C3  NAG B   6      57.032  69.337  57.2930  0.00  0.00     0.000 C
ATOM     82  C4  NAG B   6      57.702  70.704  57.4690  0.00  0.00     0.000 C
ATOM     83  C5  NAG B   6      56.640  71.797  57.4370  0.00  0.00     0.000 C
ATOM     84  O5  NAG B   6      55.986  71.726  56.1700  0.00  0.00     0.000 O
BRANCH 80 87
ATOM     85   N  NAG B   6      55.338  68.137  55.8250  0.00  0.00     0.000 N
ATOM     87  HD  NAG B   6      54.892  67.620  55.2920  0.00  0.00     0.000 HD
ATOM     87   C  NAG B   6      55.715  67.054  55.1340  0.00  0.00     0.000 C
ATOM     88   C  NAG B   6      54.714  65.945  55.0680  0.00  0.00     0.000 C
ATOM     89   O  NAG B   6      56.812  66.953  54.5970  0.00  0.00     0.000 OA
ENDBRANCH 80 87
ATOM     90   O  NAG B   6      56.763  73.723  58.8940  0.00  0.00     0.000 O
ATOM     92  HD  NAG B   6      56.241  73.180  58.4660  0.00  0.00     0.000 HD
ATOM     92   O  NAG B   6      56.763  73.723  58.8940  0.00  0.00     0.000 O
ATOM     94  HD  NAG B   6      56.241  73.180  58.4660  0.00  0.00     0.000 HD
ENDBRANCH 78 81
ENDBRANCH 65 78
ENDBRANCH 64 68
ENDBRANCH 48 64
ENDBRANCH 47 50
ENDBRANCH 34 47
ENDBRANCH 33 37
ENDBRANCH 17 33
ENDBRANCH 16 19
ENDBRANCH 1 16
TORSDOF 16
ENDMDL
MODEL 98
REMARK VINA RESULT:      -1.5     35.327     39.281
ROOT
ATOM      1  C1  BDP B   1      28.290  37.235  50.6730  0.00  0.00     0.000 C
ATOM      2  C2  BDP B   1      29.105  37.274  49.3920  0.00  0.00     0.000 C
ATOM      3  C3  BDP B   1      30.564  36.952  49.6350  0.00  0.00     0.000 C
ATOM      4  C4  BDP B   1      30.844  36.324  50.9950  0.00  0.00     0.000 C
ATOM      5  C5  BDP B   1      30.150  37.058  52.1380  0.00  0.00     0.000 C
ATOM      6  O5  BDP B   1      29.064  37.878  51.6760  0.00  0.00     0.000 O
ATOM      7   O  BDP B   1      28.561  36.352  48.4410  0.00  0.00     0.000 O
ATOM      9  HD  BDP B   1      27.888  35.991  48.0320  0.00  0.00     0.000 HD
ATOM      9   O  BDP B   1      31.352  38.149  49.5360  0.00  0.00     0.000 O
ATOM     11  HD  BDP B   1      30.680  37.789  49.1270  0.00  0.00     0.000 HD
ATOM     11   O  BDP B   1      30.455  34.945  50.9990  0.00  0.00     0.000 O
ATOM     13  HD  BDP B   1      29.782  34.585  50.5890  0.00  0.00     0.000 HD
ENDROOT
BRANCH 5 13
ATOM     13   C  BDP B   1      31.175  37.910  52.8020  0.00  0.00     0.000 C
ATOM     14   O  BDP B   1      31.816  37.426  53.7570  0.00  0.00     0.000 OA
ATOM     15   O  BDP B   1      31.379  39.065  52.3680  0.00  0.00     0.000 OA
ENDBRANCH 5 13
BRANCH 1 16
ATOM     16  O3  NAG B   2      27.154  36.448  51.0260  0.00  0.00     0.000 O
BRANCH 16 19
ATOM     17  C1  NAG B   2      26.973  33.544  53.2140  0.00  0.00     0.000 C
ATOM     18  C2  NAG B   2      27.303  35.021  52.9950  0.00  0.00     0.000 C
ATOM     19  C3  NAG B   2      26.410  35.614  51.9150  0.00  0.00     0.000 C
ATOM     20  C4  NAG B   2      25.685  34.526  51.1180  0.00  0.00     0.000 C
ATOM     21  C5  NAG B   2      26.490  33.239  50.8900  0.00  0.00     0.000 C
ATOM     22  O5  NAG B   2      27.335  32.894  51.9940  0.00  0.00     0.000 O
ATOM     23   O  NAG B   2      24.456  34.218  51.7830  0.00  0.00     0.000 O
ATOM     25  HD  NAG B   2      24.797  34.251  52.5780  0.00  0.00     0.000 HD
ATOM     25   C  NAG B   2      27.356  33.359  49.6280  0.00  0.00     0.000 C
ATOM     26   O  NAG B   2      26.622  33.015  48.4450  0.00  0.00     0.000 O
ATOM     28  HD  NAG B   2      26.963  33.048  49.2410  0.00  0.00     0.000 HD
BRANCH 18 30
ATOM     28   N  NAG B   2      26.499  34.835  54.2020  0.00  0.00     0.000 N
ATOM     30  HD  NAG B   2      25.691  34.671  54.4660  0.00  0.00     0.000 HD
ATOM     30   C  NAG B   2      26.203  35.800  55.0840  0.00  0.00     0.000 C
ATOM     31   C  NAG B   2      25.369  35.356  56.2520  0.00  0.00     0.000 C
ATOM     32   O  NAG B   2      26.566  36.947  54.9620  0.00  0.00     0.000 OA
ENDBRANCH 18 30
BRANCH 17 33
ATOM     33  O4  BDP B   3      27.312  32.212  53.6590  0.00  0.00     0.000 O
BRANCH 33 37
ATOM     34  C1  BDP B   3      30.978  30.339  54.7930  0.00  0.00     0.000 C
ATOM     35  C2  BDP B   3      30.151  29.654  53.7120  0.00  0.00     0.000 C
ATOM     36  C3  BDP B   3      29.110  30.565  53.0700  0.00  0.00     0.000 C
ATOM     37  C4  BDP B   3      28.361  31.337  54.1660  0.00  0.00     0.000 C
ATOM     38  C5  BDP B   3      29.416  32.096  54.9940  0.00  0.00     0.000 C
ATOM     39  O5  BDP B   3      30.154  31.092  55.6910  0.00  0.00     0.000 O
ATOM     40   O  BDP B   3      31.085  29.144  52.7580  0.00  0.00     0.000 O
ATOM     42  HD  BDP B   3      31.128  28.525  53.3620  0.00  0.00     0.000 HD
ATOM     42   O  BDP B   3      28.236  29.723  52.3210  0.00  0.00     0.000 O
ATOM     44  HD  BDP B   3      28.278  29.104  52.9260  0.00  0.00     0.000 HD
BRANCH 38 44
ATOM     44   C  BDP B   3      28.848  33.077  55.9720  0.00  0.00     0.000 C
ATOM     45   O  BDP B   3      28.041  32.650  56.8280  0.00  0.00     0.000 OA
ATOM     46   O  BDP B   3      29.186  34.279  55.9090  0.00  0.00     0.000 OA
ENDBRANCH 38 44
BRANCH 34 47
ATOM     47  O3  NAG B   4      31.261  29.464  55.8840  0.00  0.00     0.000 O
BRANCH 47 50
ATOM     48  C1  NAG B   4      34.564  30.495  57.3590  0.00  0.00     0.000 C
ATOM     49  C2  NAG B   4      33.556  30.181  56.2670  0.00  0.00     0.000 C
ATOM     50  C3  NAG B   4      32.215  29.831  56.9020  0.00  0.00     0.000 C
ATOM     51  C4  NAG B   4      32.349  28.695  57.9040  0.00  0.00     0.000 C
ATOM     52  C5  NAG B   4      33.425  29.038  58.9350  0.00  0.00     0.000 C
ATOM     53  O5  NAG B   4      34.651  29.390  58.2800  0.00  0.00     0.000 O
ATOM     54   O  NAG B   4      31.087  28.486  58.5420  0.00  0.00     0.000 O
ATOM     56  HD  NAG B   4      31.642  27.835  58.6780  0.00  0.00     0.000 HD
ATOM     56   C  NAG B   4      33.676  27.870  59.8820  0.00  0.00     0.000 C
ATOM     57   O  NAG B   4      34.110  26.735  59.1210  0.00  0.00     0.000 O
ATOM     59  HD  NAG B   4      34.665  26.084  59.2570  0.00  0.00     0.000 HD
BRANCH 49 61
ATOM     59   N  NAG B   4      34.516  29.397  55.4890  0.00  0.00     0.000 N
ATOM     61  HD  NAG B   4      33.682  29.625  55.4520  0.00  0.00     0.000 HD
ATOM     61   O  NAG B   4      33.874  30.127  53.4500  0.00  0.00     0.000 OA
ATOM     62   C  NAG B   4      34.641  29.493  54.1600  0.00  0.00     0.000 C
ATOM     63   C  NAG B   4      35.814  28.779  53.5670  0.00  0.00     0.000 C
ENDBRANCH 49 61
BRANCH 48 64
ATOM     64  O4  BDP B   5      35.709  31.341  57.4080  0.00  0.00     0.000 O
BRANCH 64 68
ATOM     65  C1  BDP B   5      36.738  34.130  54.4860  0.00  0.00     0.000 C
ATOM     66  C2  BDP B   5      37.814  33.114  54.8480  0.00  0.00     0.000 C
ATOM     67  C3  BDP B   5      37.182  31.934  55.5740  0.00  0.00     0.000 C
ATOM     68  C4  BDP B   5      36.410  32.422  56.7950  0.00  0.00     0.000 C
ATOM     69  C5  BDP B   5      35.408  33.514  56.4430  0.00  0.00     0.000 C
ATOM     70  O5  BDP B   5      36.039  34.549  55.6690  0.00  0.00     0.000 O
ATOM     71   O  BDP B   5      38.503  32.698  53.6590  0.00  0.00     0.000 O
ATOM     73  HD  BDP B   5      38.871  32.466  52.9090  0.00  0.00     0.000 HD
ATOM     73   O  BDP B   5      38.187  31.003  55.9920  0.00  0.00     0.000 O
ATOM     75  HD  BDP B   5      38.555  30.772  55.2430  0.00  0.00     0.000 HD
BRANCH 69 75
ATOM     75   C  BDP B   5      34.875  34.099  57.7260  0.00  0.00     0.000 C
ATOM     76   O  BDP B   5      35.666  34.686  58.4920  0.00  0.00     0.000 OA
ATOM     77   O  BDP B   5      33.662  33.985  57.9840  0.00  0.00     0.000 OA
ENDBRANCH 69 75
BRANCH 65 78
ATOM     78  O3  NAG B   6      36.913  35.544  54.3630  0.00  0.00     0.000 O
BRANCH 78 81
ATOM     79  C1  NAG B   6      36.324  38.162  51.6920  0.00  0.00     0.000 C
ATOM     80  C2  NAG B   6      37.023  36.996  52.4090  0.00  0.00     0.000 C
ATOM     81  C3  NAG B   6      36.193  36.533  53.5950  0.00  0.00     0.000 C
ATOM     82  C4  NAG B   6      35.814  37.716  54.4920  0.00  0.00     0.000 C
ATOM     83  C5  NAG B   6      35.121  38.785  53.6540  0.00  0.00     0.000 C
ATOM     84  O5  NAG B   6      36.038  39.204  52.6430  0.00  0.00     0.000 O
BRANCH 80 87
ATOM     85   N  NAG B   6      37.305  36.011  51.3690  0.00  0.00     0.000 N
ATOM     87  HD  NAG B   6      37.794  35.740  50.7070  0.00  0.00     0.000 HD
ATOM     87   C  NAG B   6      38.399  35.240  51.3450  0.00  0.00     0.000 C
ATOM     88   C  NAG B   6      38.483  34.268  50.2110  0.00  0.00     0.000 C
ATOM     89   O  NAG B   6      39.279  35.301  52.1950  0.00  0.00     0.000 OA
ENDBRANCH 80 87
ATOM     90   O  NAG B   6      33.244  40.045  54.5140  0.00  0.00     0.000 O
ATOM     92  HD  NAG B   6      33.623  39.714  53.8080  0.00  0.00     0.000 HD
ATOM     92   O  NAG B   6      33.244  40.045  54.5140  0.00  0.00     0.000 O
ATOM     94  HD  NAG B   6      33.623  39.714  53.8080  0.00  0.00     0.000 HD
ENDBRANCH 78 81
ENDBRANCH 65 78
ENDBRANCH 64 68
ENDBRANCH 48 64
ENDBRANCH 47 50
ENDBRANCH 34 47
ENDBRANCH 33 37
ENDBRANCH 17 33
ENDBRANCH 16 19
ENDBRANCH 1 16
TORSDOF 16
ENDMDL
MODEL 99
REMARK VINA RESULT:      -1.5     64.706     68.700
ROOT
ATOM      1  C1  BDP B   1      43.561  60.209  68.1190  0.00  0.00     0.000 C
ATOM      2  C2  BDP B   1      44.914  60.602  67.5540  0.00  0.00     0.000 C
ATOM      3  C3  BDP B   1      46.047  59.840  68.2060  0.00  0.00     0.000 C
ATOM      4  C4  BDP B   1      45.598  58.622  69.0060  0.00  0.00     0.000 C
ATOM      5  C5  BDP B   1      44.415  58.921  69.9220  0.00  0.00     0.000 C
ATOM      6  O5  BDP B   1      43.712  60.112  69.5280  0.00  0.00     0.000 O
ATOM      7   O  BDP B   1      44.935  60.378  66.1400  0.00  0.00     0.000 O
ATOM      9  HD  BDP B   1      44.566  60.426  65.3580  0.00  0.00     0.000 HD
ATOM      9   O  BDP B   1      46.770  60.704  69.0970  0.00  0.00     0.000 O
ATOM     11  HD  BDP B   1      46.402  60.753  68.3150  0.00  0.00     0.000 HD
ATOM     11   O  BDP B   1      45.267  57.541  68.1260  0.00  0.00     0.000 O
ATOM     13  HD  BDP B   1      44.899  57.589  67.3440  0.00  0.00     0.000 HD
ENDROOT
BRANCH 5 13
ATOM     13   C  BDP B   1      44.955  59.089  71.2990  0.00  0.00     0.000 C
ATOM     14   O  BDP B   1      45.027  58.081  72.0310  0.00  0.00     0.000 OA
ATOM     15   O  BDP B   1      45.341  60.220  71.6670  0.00  0.00     0.000 OA
ENDBRANCH 5 13
BRANCH 1 16
ATOM     16  O3  NAG B   2      42.407  59.673  67.4750  0.00  0.00     0.000 O
BRANCH 16 19
ATOM     17  C1  NAG B   2      41.144  56.258  67.5120  0.00  0.00     0.000 C
ATOM     18  C2  NAG B   2      41.535  57.536  68.2560  0.00  0.00     0.000 C
ATOM     19  C3  NAG B   2      41.316  58.756  67.3730  0.00  0.00     0.000 C
ATOM     20  C4  NAG B   2      41.104  58.366  65.9080  0.00  0.00     0.000 C
ATOM     21  C5  NAG B   2      41.917  57.154  65.4320  0.00  0.00     0.000 C
ATOM     22  O5  NAG B   2      42.081  56.148  66.4380  0.00  0.00     0.000 O
ATOM     23   O  NAG B   2      39.708  58.126  65.6990  0.00  0.00     0.000 O
ATOM     25  HD  NAG B   2      39.595  57.713  66.4510  0.00  0.00     0.000 HD
ATOM     25   C  NAG B   2      43.306  57.592  64.9450  0.00  0.00     0.000 C
ATOM     26   O  NAG B   2      43.280  58.013  63.5740  0.00  0.00     0.000 O
ATOM     28  HD  NAG B   2      43.166  57.599  64.3270  0.00  0.00     0.000 HD
BRANCH 18 30
ATOM     28   N  NAG B   2      40.233  57.042  68.7030  0.00  0.00     0.000 N
ATOM     30  HD  NAG B   2      39.404  56.982  68.4590  0.00  0.00     0.000 HD
ATOM     30   C  NAG B   2      39.519  57.563  69.7120  0.00  0.00     0.000 C
ATOM     31   C  NAG B   2      38.215  56.870  69.9870  0.00  0.00     0.000 C
ATOM     32   O  NAG B   2      39.878  58.521  70.3570  0.00  0.00     0.000 OA
ENDBRANCH 18 30
BRANCH 17 33
ATOM     33  O4  BDP B   3      41.213  54.831  67.3030  0.00  0.00     0.000 O
BRANCH 33 37
ATOM     34  C1  BDP B   3      43.746  51.757  68.8450  0.00  0.00     0.000 C
ATOM     35  C2  BDP B   3      43.628  51.868  67.3300  0.00  0.00     0.000 C
ATOM     36  C3  BDP B   3      43.073  53.207  66.8570  0.00  0.00     0.000 C
ATOM     37  C4  BDP B   3      41.846  53.580  67.7020  0.00  0.00     0.000 C
ATOM     38  C5  BDP B   3      42.290  53.584  69.1770  0.00  0.00     0.000 C
ATOM     39  O5  BDP B   3      42.561  52.221  69.5030  0.00  0.00     0.000 O
ATOM     40   O  BDP B   3      44.932  51.608  66.8080  0.00  0.00     0.000 O
ATOM     42  HD  BDP B   3      44.657  50.798  66.9450  0.00  0.00     0.000 HD
ATOM     42   O  BDP B   3      42.740  53.048  65.4790  0.00  0.00     0.000 O
ATOM     44  HD  BDP B   3      42.464  52.239  65.6160  0.00  0.00     0.000 HD
BRANCH 38 44
ATOM     44   C  BDP B   3      41.276  54.141  70.1280  0.00  0.00     0.000 C
ATOM     45   O  BDP B   3      41.619  55.099  70.8540  0.00  0.00     0.000 OA
ATOM     46   O  BDP B   3      40.131  53.641  70.1720  0.00  0.00     0.000 OA
ENDBRANCH 38 44
BRANCH 34 47
ATOM     47  O3  NAG B   4      43.419  50.449  69.3120  0.00  0.00     0.000 O
BRANCH 47 50
ATOM     48  C1  NAG B   4      45.435  49.806  72.4220  0.00  0.00     0.000 C
ATOM     49  C2  NAG B   4      45.158  50.290  71.0090  0.00  0.00     0.000 C
ATOM     50  C3  NAG B   4      43.689  50.058  70.6740  0.00  0.00     0.000 C
ATOM     51  C4  NAG B   4      43.292  48.604  70.8730  0.00  0.00     0.000 C
ATOM     52  C5  NAG B   4      43.659  48.154  72.2870  0.00  0.00     0.000 C
ATOM     53  O5  NAG B   4      45.040  48.427  72.5560  0.00  0.00     0.000 O
ATOM     54   O  NAG B   4      41.886  48.470  70.6490  0.00  0.00     0.000 O
ATOM     56  HD  NAG B   4      42.295  47.707  70.6640  0.00  0.00     0.000 HD
ATOM     56   C  NAG B   4      43.390  46.667  72.4830  0.00  0.00     0.000 C
ATOM     57   O  NAG B   4      44.177  45.922  71.5430  0.00  0.00     0.000 O
ATOM     59  HD  NAG B   4      44.586  45.159  71.5580  0.00  0.00     0.000 HD
BRANCH 49 61
ATOM     59   N  NAG B   4      46.393  49.714  70.4760  0.00  0.00     0.000 N
ATOM     61  HD  NAG B   4      45.700  50.146  70.1880  0.00  0.00     0.000 HD
ATOM     61   O  NAG B   4      46.911  51.419  69.0890  0.00  0.00     0.000 OA
ATOM     62   C  NAG B   4      47.197  50.357  69.6210  0.00  0.00     0.000 C
ATOM     63   C  NAG B   4      48.516  49.701  69.3560  0.00  0.00     0.000 C
ENDBRANCH 49 61
BRANCH 48 64
ATOM     64  O4  BDP B   5      46.370  50.209  73.4190  0.00  0.00     0.000 O
BRANCH 64 68
ATOM     65  C1  BDP B   5      48.811  53.579  73.1760  0.00  0.00     0.000 C
ATOM     66  C2  BDP B   5      49.522  52.257  73.4360  0.00  0.00     0.000 C
ATOM     67  C3  BDP B   5      48.600  51.100  73.0750  0.00  0.00     0.000 C
ATOM     68  C4  BDP B   5      47.288  51.214  73.8450  0.00  0.00     0.000 C
ATOM     69  C5  BDP B   5      46.634  52.578  73.6650  0.00  0.00     0.000 C
ATOM     70  O5  BDP B   5      47.581  53.631  73.9170  0.00  0.00     0.000 O
ATOM     71   O  BDP B   5      50.746  52.214  72.6860  0.00  0.00     0.000 O
ATOM     73  HD  BDP B   5      51.462  52.231  72.1990  0.00  0.00     0.000 HD
ATOM     73   O  BDP B   5      49.221  49.847  73.3840  0.00  0.00     0.000 O
ATOM     75  HD  BDP B   5      49.937  49.864  72.8970  0.00  0.00     0.000 HD
BRANCH 69 75
ATOM     75   C  BDP B   5      45.490  52.686  74.6400  0.00  0.00     0.000 C
ATOM     76   O  BDP B   5      44.330  52.802  74.1940  0.00  0.00     0.000 OA
ATOM     77   O  BDP B   5      45.732  52.653  75.8610  0.00  0.00     0.000 OA
ENDBRANCH 69 75
BRANCH 65 78
ATOM     78  O3  NAG B   6      49.021  54.808  73.8770  0.00  0.00     0.000 O
BRANCH 78 81
ATOM     79  C1  NAG B   6      49.941  58.363  72.9570  0.00  0.00     0.000 C
ATOM     80  C2  NAG B   6      50.151  56.863  73.2180  0.00  0.00     0.000 C
ATOM     81  C3  NAG B   6      48.818  56.182  73.4810  0.00  0.00     0.000 C
ATOM     82  C4  NAG B   6      48.028  56.927  74.5610  0.00  0.00     0.000 C
ATOM     83  C5  NAG B   6      47.885  58.392  74.1650  0.00  0.00     0.000 C
ATOM     84  O5  NAG B   6      49.200  58.938  74.0490  0.00  0.00     0.000 O
BRANCH 80 87
ATOM     85   N  NAG B   6      50.936  56.376  72.0870  0.00  0.00     0.000 N
ATOM     87  HD  NAG B   6      51.699  56.292  71.6870  0.00  0.00     0.000 HD
ATOM     87   C  NAG B   6      51.875  55.427  72.1810  0.00  0.00     0.000 C
ATOM     88   C  NAG B   6      52.541  55.045  70.8970  0.00  0.00     0.000 C
ATOM     89   O  NAG B   6      52.174  54.884  73.2380  0.00  0.00     0.000 OA
ENDBRANCH 80 87
ATOM     90   O  NAG B   6      45.843  59.620  74.5750  0.00  0.00     0.000 O
ATOM     92  HD  NAG B   6      46.535  59.531  74.0630  0.00  0.00     0.000 HD
ATOM     92   O  NAG B   6      45.843  59.620  74.5750  0.00  0.00     0.000 O
ATOM     94  HD  NAG B   6      46.535  59.531  74.0630  0.00  0.00     0.000 HD
ENDBRANCH 78 81
ENDBRANCH 65 78
ENDBRANCH 64 68
ENDBRANCH 48 64
ENDBRANCH 47 50
ENDBRANCH 34 47
ENDBRANCH 33 37
ENDBRANCH 17 33
ENDBRANCH 16 19
ENDBRANCH 1 16
TORSDOF 16
ENDMDL
MODEL 100
REMARK VINA RESULT:      -1.5     72.521     76.546
ROOT
ATOM      1  C1  BDP B   1      16.372  74.628  55.4190  0.00  0.00     0.000 C
ATOM      2  C2  BDP B   1      15.665  74.417  54.0930  0.00  0.00     0.000 C
ATOM      3  C3  BDP B   1      15.242  75.726  53.4580  0.00  0.00     0.000 C
ATOM      4  C4  BDP B   1      15.904  76.955  54.0710  0.00  0.00     0.000 C
ATOM      5  C5  BDP B   1      15.875  76.943  55.5960  0.00  0.00     0.000 C
ATOM      6  O5  BDP B   1      15.646  75.625  56.1230  0.00  0.00     0.000 O
ATOM      7   O  BDP B   1      16.519  73.701  53.1940  0.00  0.00     0.000 O
ATOM      9  HD  BDP B   1      17.078  73.062  53.0250  0.00  0.00     0.000 HD
ATOM      9   O  BDP B   1      13.821  75.891  53.5760  0.00  0.00     0.000 O
ATOM     11  HD  BDP B   1      14.380  75.252  53.4070  0.00  0.00     0.000 HD
ATOM     11   O  BDP B   1      17.256  77.075  53.6130  0.00  0.00     0.000 O
ATOM     13  HD  BDP B   1      17.816  76.436  53.4440  0.00  0.00     0.000 HD
ENDROOT
BRANCH 5 13
ATOM     13   C  BDP B   1      14.777  77.852  56.0240  0.00  0.00     0.000 C
ATOM     14   O  BDP B   1      15.069  79.029  56.3230  0.00  0.00     0.000 OA
ATOM     15   O  BDP B   1      13.604  77.422  56.0440  0.00  0.00     0.000 OA
ENDBRANCH 5 13
BRANCH 1 16
ATOM     16  O3  NAG B   2      17.680  74.247  55.8440  0.00  0.00     0.000 O
BRANCH 16 19
ATOM     17  C1  NAG B   2      20.624  76.359  56.2020  0.00  0.00     0.000 C
ATOM     18  C2  NAG B   2      19.192  76.001  56.6000  0.00  0.00     0.000 C
ATOM     19  C3  NAG B   2      18.950  74.507  56.4440  0.00  0.00     0.000 C
ATOM     20  C4  NAG B   2      20.055  73.836  55.6240  0.00  0.00     0.000 C
ATOM     21  C5  NAG B   2      20.632  74.690  54.4860  0.00  0.00     0.000 C
ATOM     22  O5  NAG B   2      20.702  76.085  54.8010  0.00  0.00     0.000 O
ATOM     23   O  NAG B   2      21.105  73.441  56.5140  0.00  0.00     0.000 O
ATOM     25  HD  NAG B   2      21.066  74.163  56.9920  0.00  0.00     0.000 HD
ATOM     25   C  NAG B   2      19.803  74.517  53.2060  0.00  0.00     0.000 C
ATOM     26   O  NAG B   2      20.222  73.370  52.4520  0.00  0.00     0.000 O
ATOM     28  HD  NAG B   2      20.184  74.092  52.9300  0.00  0.00     0.000 HD
BRANCH 18 30
ATOM     28   N  NAG B   2      20.026  76.233  57.7790  0.00  0.00     0.000 N
ATOM     30  HD  NAG B   2      20.663  75.878  58.2450  0.00  0.00     0.000 HD
ATOM     30   C  NAG B   2      19.586  76.224  59.0450  0.00  0.00     0.000 C
ATOM     31   C  NAG B   2      20.638  76.501  60.0810  0.00  0.00     0.000 C
ATOM     32   O  NAG B   2      18.437  76.005  59.3490  0.00  0.00     0.000 OA
ENDBRANCH 18 30
BRANCH 17 33
ATOM     33  O4  BDP B   3      21.630  77.294  55.7570  0.00  0.00     0.000 O
BRANCH 33 37
ATOM     34  C1  BDP B   3      21.455  81.257  54.1730  0.00  0.00     0.000 C
ATOM     35  C2  BDP B   3      22.209  80.214  53.3580  0.00  0.00     0.000 C
ATOM     36  C3  BDP B   3      21.878  78.778  53.7480  0.00  0.00     0.000 C
ATOM     37  C4  BDP B   3      21.897  78.645  55.2780  0.00  0.00     0.000 C
ATOM     38  C5  BDP B   3      20.905  79.681  55.8400  0.00  0.00     0.000 C
ATOM     39  O5  BDP B   3      21.486  80.957  55.5740  0.00  0.00     0.000 O
ATOM     40   O  BDP B   3      21.909  80.485  51.9870  0.00  0.00     0.000 O
ATOM     42  HD  BDP B   3      22.528  81.074  52.1300  0.00  0.00     0.000 HD
ATOM     42   O  BDP B   3      22.860  77.948  53.1300  0.00  0.00     0.000 O
ATOM     44  HD  BDP B   3      23.479  78.537  53.2730  0.00  0.00     0.000 HD
BRANCH 38 44
ATOM     44   C  BDP B   3      20.631  79.544  57.3050  0.00  0.00     0.000 C
ATOM     45   O  BDP B   3      21.604  79.596  58.0900  0.00  0.00     0.000 OA
ATOM     46   O  BDP B   3      19.457  79.384  57.7030  0.00  0.00     0.000 OA
ENDBRANCH 38 44
BRANCH 34 47
ATOM     47  O3  NAG B   4      22.265  82.396  54.4620  0.00  0.00     0.000 O
BRANCH 47 50
ATOM     48  C1  NAG B   4      19.991  85.380  54.7300  0.00  0.00     0.000 C
ATOM     49  C2  NAG B   4      20.536  84.083  54.1580  0.00  0.00     0.000 C
ATOM     50  C3  NAG B   4      21.689  83.592  55.0260  0.00  0.00     0.000 C
ATOM     51  C4  NAG B   4      22.768  84.653  55.1750  0.00  0.00     0.000 C
ATOM     52  C5  NAG B   4      22.149  85.954  55.6860  0.00  0.00     0.000 C
ATOM     53  O5  NAG B   4      21.052  86.347  54.8520  0.00  0.00     0.000 O
ATOM     54   O  NAG B   4      23.766  84.178  56.0830  0.00  0.00     0.000 O
ATOM     56  HD  NAG B   4      24.025  84.872  55.6350  0.00  0.00     0.000 HD
ATOM     56   C  NAG B   4      23.179  87.077  55.7290  0.00  0.00     0.000 C
ATOM     57   O  NAG B   4      23.688  87.296  54.4070  0.00  0.00     0.000 O
ATOM     59  HD  NAG B   4      23.948  87.991  53.9600  0.00  0.00     0.000 HD
BRANCH 49 61
ATOM     59   N  NAG B   4      20.471  84.567  52.7780  0.00  0.00     0.000 N
ATOM     61  HD  NAG B   4      20.729  83.861  53.2080  0.00  0.00     0.000 HD
ATOM     61   O  NAG B   4      19.757  82.637  51.8470  0.00  0.00     0.000 OA
ATOM     62   C  NAG B   4      20.019  83.827  51.7580  0.00  0.00     0.000 C
ATOM     63   C  NAG B   4      19.825  84.556  50.4670  0.00  0.00     0.000 C
ENDBRANCH 49 61
BRANCH 48 64
ATOM     64  O4  BDP B   5      18.700  85.981  54.7110  0.00  0.00     0.000 O
BRANCH 64 68
ATOM     65  C1  BDP B   5      15.218  84.116  53.3820  0.00  0.00     0.000 C
ATOM     66  C2  BDP B   5      15.542  85.458  52.7390  0.00  0.00     0.000 C
ATOM     67  C3  BDP B   5      17.006  85.803  52.9840  0.00  0.00     0.000 C
ATOM     68  C4  BDP B   5      17.305  85.787  54.4790  0.00  0.00     0.000 C
ATOM     69  C5  BDP B   5      16.881  84.480  55.1360  0.00  0.00     0.000 C
ATOM     70  O5  BDP B   5      15.525  84.153  54.7840  0.00  0.00     0.000 O
ATOM     71   O  BDP B   5      15.237  85.407  51.3370  0.00  0.00     0.000 O
ATOM     73  HD  BDP B   5      15.054  85.317  50.4950  0.00  0.00     0.000 HD
ATOM     73   O  BDP B   5      17.313  87.098  52.4540  0.00  0.00     0.000 O
ATOM     75  HD  BDP B   5      17.131  87.007  51.6130  0.00  0.00     0.000 HD
BRANCH 69 75
ATOM     75   C  BDP B   5      16.987  84.645  56.6310  0.00  0.00     0.000 C
ATOM     76   O  BDP B   5      17.799  83.934  57.2570  0.00  0.00     0.000 OA
ATOM     77   O  BDP B   5      16.266  85.487  57.1970  0.00  0.00     0.000 OA
ENDBRANCH 69 75
BRANCH 65 78
ATOM     78  O3  NAG B   6      13.949  83.709  53.9020  0.00  0.00     0.000 O
BRANCH 78 81
ATOM     79  C1  NAG B   6      11.532  80.854  53.3210  0.00  0.00     0.000 C
ATOM     80  C2  NAG B   6      12.265  82.174  53.0370  0.00  0.00     0.000 C
ATOM     81  C3  NAG B   6      13.359  82.401  54.0690  0.00  0.00     0.000 C
ATOM     82  C4  NAG B   6      12.807  82.254  55.4910  0.00  0.00     0.000 C
ATOM     83  C5  NAG B   6      12.122  80.899  55.6300  0.00  0.00     0.000 C
ATOM     84  O5  NAG B   6      11.058  80.853  54.6790  0.00  0.00     0.000 O
BRANCH 80 87
ATOM     85   N  NAG B   6      12.679  82.101  51.6390  0.00  0.00     0.000 N
ATOM     87  HD  NAG B   6      12.487  82.165  50.7970  0.00  0.00     0.000 HD
ATOM     87   C  NAG B   6      12.707  83.152  50.8100  0.00  0.00     0.000 C
ATOM     88   C  NAG B   6      13.196  82.873  49.4250  0.00  0.00     0.000 C
ATOM     89   O  NAG B   6      12.373  84.281  51.1510  0.00  0.00     0.000 OA
ENDBRANCH 80 87
ATOM     90   O  NAG B   6      12.305  79.592  57.6560  0.00  0.00     0.000 O
ATOM     92  HD  NAG B   6      12.209  79.571  56.7960  0.00  0.00     0.000 HD
ATOM     92   O  NAG B   6      12.305  79.592  57.6560  0.00  0.00     0.000 O
ATOM     94  HD  NAG B   6      12.209  79.571  56.7960  0.00  0.00     0.000 HD
ENDBRANCH 78 81
ENDBRANCH 65 78
ENDBRANCH 64 68
ENDBRANCH 48 64
ENDBRANCH 47 50
ENDBRANCH 34 47
ENDBRANCH 33 37
ENDBRANCH 17 33
ENDBRANCH 16 19
ENDBRANCH 1 16
TORSDOF 16
ENDMDL
