MODEL 1
REMARK VINA RESULT:      -8.7      0.000      0.000
ROOT
ATOM      1  C1  GAD B   1      13.285  40.601  31.8010  0.00  0.00     0.000 C
ATOM      2  C2  GAD B   1      12.081  39.726  31.4390  0.00  0.00     0.000 C
ATOM      3  C3  GAD B   1      11.067  39.724  32.5890  0.00  0.00     0.000 C
ATOM      4  C4  GAD B   1      11.687  39.856  33.9830  0.00  0.00     0.000 C
ATOM      5  C5  GAD B   1      12.990  40.113  34.2130  0.00  0.00     0.000 C
ATOM      6  O5  GAD B   1      13.852  40.222  33.0640  0.00  0.00     0.000 O
ATOM      7   O  GAD B   1      11.487  40.134  30.1520  0.00  0.00     0.000 O
ATOM      9  HD  GAD B   1      12.245  40.549  30.0940  0.00  0.00     0.000 HD
ATOM      9   O  GAD B   1      10.290  38.505  32.6100  0.00  0.00     0.000 O
ATOM     11  HD  GAD B   1      11.048  38.920  32.5510  0.00  0.00     0.000 HD
ENDROOT
BRANCH 5 11
ATOM     11   C  GAD B   1      13.579  40.348  35.5510  0.00  0.00     0.000 C
ATOM     12   O  GAD B   1      14.205  41.440  35.7210  0.00  0.00     0.000 OA
ATOM     13   O  GAD B   1      13.516  39.434  36.4550  0.00  0.00     0.000 OA
ENDBRANCH 5 11
BRANCH 1 14
ATOM     14  O3  ASG B   2      14.496  40.491  31.2220  0.00  0.00     0.000 O
BRANCH 14 17
ATOM     15  C1  ASG B   2      18.095  40.060  32.2870  0.00  0.00     0.000 C
ATOM     16  C2  ASG B   2      16.856  40.812  31.7800  0.00  0.00     0.000 C
ATOM     17  C3  ASG B   2      15.680  39.835  31.6880  0.00  0.00     0.000 C
ATOM     18  C4  ASG B   2      16.029  38.690  30.7560  0.00  0.00     0.000 C
ATOM     19  C5  ASG B   2      17.333  38.048  31.2210  0.00  0.00     0.000 C
ATOM     20  O5  ASG B   2      18.363  39.050  31.3320  0.00  0.00     0.000 O
ATOM     21   C  ASG B   2      17.843  37.017  30.2670  0.00  0.00     0.000 C
ATOM     22   O  ASG B   2      19.139  36.629  30.6500  0.00  0.00     0.000 O
ATOM     24  HD  ASG B   2      19.930  36.296  30.7670  0.00  0.00     0.000 HD
BRANCH 16 26
ATOM     24   N  ASG B   2      16.537  41.996  32.5440  0.00  0.00     0.000 N
ATOM     26  HD  ASG B   2      17.344  41.688  32.4850  0.00  0.00     0.000 HD
ATOM     26   C  ASG B   2      15.988  43.106  32.0180  0.00  0.00     0.000 C
ATOM     27   C  ASG B   2      15.418  44.080  32.9910  0.00  0.00     0.000 C
ATOM     28   O  ASG B   2      15.961  43.300  30.8090  0.00  0.00     0.000 OA
ENDBRANCH 16 26
BRANCH 18 29
ATOM     29   O  ASG B   2      16.127  39.266  29.4070  0.00  0.00     0.000 O
ATOM     30   O  ASG B   2      15.240  37.273  28.2740  0.00  0.00     0.000 OA
ATOM     31   O  ASG B   2      13.858  39.256  28.4950  0.00  0.00     0.000 OA
ATOM     32   O  ASG B   2      15.771  39.274  27.0180  0.00  0.00     0.000 OA
ATOM     33   S  ASG B   2      15.173  38.722  28.2340  0.00  0.00     0.000 S
ENDBRANCH 18 29
BRANCH 15 34
ATOM     34  O4  ASG B   3      19.230  40.868  32.4130  0.00  0.00     0.000 O
BRANCH 34 38
ATOM     35  C1  GCT B   3      20.187  39.456  36.0810  0.00  0.00     0.000 C
ATOM     36  C2  GCT B   3      19.929  40.947  36.0430  0.00  0.00     0.000 C
ATOM     37  C3  GCT B   3      19.168  41.333  34.7820  0.00  0.00     0.000 C
ATOM     38  C4  GCT B   3      19.991  40.929  33.5530  0.00  0.00     0.000 C
ATOM     39  C5  GCT B   3      20.797  39.633  33.7950  0.00  0.00     0.000 C
ATOM     40  O5  GCT B   3      20.091  38.894  34.7760  0.00  0.00     0.000 O
ATOM     41   O  GCT B   3      19.159  41.252  37.1960  0.00  0.00     0.000 O
ATOM     43  HD  GCT B   3      19.372  41.334  38.0320  0.00  0.00     0.000 HD
ATOM     43   O  GCT B   3      18.888  42.748  34.8300  0.00  0.00     0.000 O
ATOM     45  HD  GCT B   3      19.101  42.829  35.6650  0.00  0.00     0.000 HD
BRANCH 39 45
ATOM     45   C  GCT B   3      22.248  39.755  34.2090  0.00  0.00     0.000 C
ATOM     46   O  GCT B   3      22.933  38.704  34.4120  0.00  0.00     0.000 OA
ATOM     47   O  GCT B   3      22.722  40.897  34.3230  0.00  0.00     0.000 OA
ENDBRANCH 39 45
BRANCH 35 48
ATOM     48  O3  ASG B   4      21.061  39.190  37.0280  0.00  0.00     0.000 O
BRANCH 48 51
ATOM     49  C1  ASG B   4      20.935  37.818  40.4610  0.00  0.00     0.000 C
ATOM     50  C2  ASG B   4      21.482  38.503  39.1980  0.00  0.00     0.000 C
ATOM     51  C3  ASG B   4      20.367  38.783  38.1940  0.00  0.00     0.000 C
ATOM     52  C4  ASG B   4      19.527  37.541  37.9440  0.00  0.00     0.000 C
ATOM     53  C5  ASG B   4      19.033  37.023  39.2920  0.00  0.00     0.000 C
ATOM     54  O5  ASG B   4      20.168  36.677  40.1100  0.00  0.00     0.000 O
BRANCH 50 57
ATOM     55   N  ASG B   4      22.274  39.692  38.9800  0.00  0.00     0.000 N
ATOM     57  HD  ASG B   4      22.866  39.550  39.5960  0.00  0.00     0.000 HD
ATOM     57   O  ASG B   4      24.176  38.802  39.7570  0.00  0.00     0.000 OA
ATOM     58   C  ASG B   4      23.595  39.716  39.1810  0.00  0.00     0.000 C
ATOM     59   C  ASG B   4      24.299  40.950  38.7060  0.00  0.00     0.000 C
ENDBRANCH 50 57
BRANCH 52 60
ATOM     60   O  ASG B   4      20.461  36.627  37.2350  0.00  0.00     0.000 O
ATOM     61   O  ASG B   4      18.691  35.826  35.6680  0.00  0.00     0.000 OA
ATOM     62   O  ASG B   4      20.944  35.116  35.3740  0.00  0.00     0.000 OA
ATOM     63   O  ASG B   4      19.760  34.450  37.3410  0.00  0.00     0.000 OA
ATOM     64   S  ASG B   4      19.919  35.455  36.2860  0.00  0.00     0.000 S
ENDBRANCH 52 60
ATOM     65   O  ASG B   4      17.444  35.598  40.4430  0.00  0.00     0.000 O
ATOM     67  HD  ASG B   4      18.082  35.279  40.9350  0.00  0.00     0.000 HD
ATOM     67   O  ASG B   4      17.444  35.598  40.4430  0.00  0.00     0.000 O
ATOM     69  HD  ASG B   4      18.082  35.279  40.9350  0.00  0.00     0.000 HD
ENDBRANCH 48 51
ENDBRANCH 35 48
ENDBRANCH 34 38
ENDBRANCH 15 34
ENDBRANCH 14 17
ENDBRANCH 1 14
TORSDOF 12
ENDMDL
MODEL 2
REMARK VINA RESULT:      -8.7     22.137     28.369
ROOT
ATOM      1  C1  GAD B   1      21.690  29.552  55.1220  0.00  0.00     0.000 C
ATOM      2  C2  GAD B   1      20.639  30.107  54.1560  0.00  0.00     0.000 C
ATOM      3  C3  GAD B   1      20.347  31.576  54.4840  0.00  0.00     0.000 C
ATOM      4  C4  GAD B   1      20.471  31.933  55.9680  0.00  0.00     0.000 C
ATOM      5  C5  GAD B   1      20.947  31.097  56.9120  0.00  0.00     0.000 C
ATOM      6  O5  GAD B   1      21.315  29.770  56.4910  0.00  0.00     0.000 O
ATOM      7   O  GAD B   1      21.040  29.903  52.7510  0.00  0.00     0.000 O
ATOM      9  HD  GAD B   1      21.593  29.358  53.1340  0.00  0.00     0.000 HD
ATOM      9   O  GAD B   1      19.008  31.951  54.0920  0.00  0.00     0.000 O
ATOM     11  HD  GAD B   1      19.561  31.406  54.4760  0.00  0.00     0.000 HD
ENDROOT
BRANCH 5 11
ATOM     11   C  GAD B   1      21.170  31.465  58.3290  0.00  0.00     0.000 C
ATOM     12   O  GAD B   1      20.778  30.636  59.2080  0.00  0.00     0.000 OA
ATOM     13   O  GAD B   1      21.665  32.614  58.6280  0.00  0.00     0.000 OA
ENDBRANCH 5 11
BRANCH 1 14
ATOM     14  O3  ASG B   2      21.860  28.240  55.3750  0.00  0.00     0.000 O
BRANCH 14 17
ATOM     15  C1  ASG B   2      20.720  25.537  57.7570  0.00  0.00     0.000 C
ATOM     16  C2  ASG B   2      21.706  26.518  57.1060  0.00  0.00     0.000 C
ATOM     17  C3  ASG B   2      20.980  27.306  56.0120  0.00  0.00     0.000 C
ATOM     18  C4  ASG B   2      20.412  26.354  54.9770  0.00  0.00     0.000 C
ATOM     19  C5  ASG B   2      19.537  25.320  55.6790  0.00  0.00     0.000 C
ATOM     20  O5  ASG B   2      20.285  24.670  56.7260  0.00  0.00     0.000 O
ATOM     21   C  ASG B   2      19.067  24.240  54.7590  0.00  0.00     0.000 C
ATOM     22   O  ASG B   2      18.454  23.221  55.5110  0.00  0.00     0.000 O
ATOM     24  HD  ASG B   2      18.053  22.528  55.8400  0.00  0.00     0.000 HD
BRANCH 16 26
ATOM     24   N  ASG B   2      22.403  27.340  58.0680  0.00  0.00     0.000 N
ATOM     26  HD  ASG B   2      22.132  26.539  58.2550  0.00  0.00     0.000 HD
ATOM     26   C  ASG B   2      23.649  27.816  57.8880  0.00  0.00     0.000 C
ATOM     27   C  ASG B   2      24.072  28.910  58.8080  0.00  0.00     0.000 C
ATOM     28   O  ASG B   2      24.389  27.373  57.0180  0.00  0.00     0.000 OA
ENDBRANCH 16 26
BRANCH 18 29
ATOM     29   O  ASG B   2      21.562  25.754  54.2870  0.00  0.00     0.000 O
ATOM     30   O  ASG B   2      20.392  25.490  52.1410  0.00  0.00     0.000 OA
ATOM     31   O  ASG B   2      22.069  27.225  52.4000  0.00  0.00     0.000 OA
ATOM     32   O  ASG B   2      22.731  24.901  52.3520  0.00  0.00     0.000 OA
ATOM     33   S  ASG B   2      21.682  25.864  52.6880  0.00  0.00     0.000 S
ENDBRANCH 18 29
BRANCH 15 34
ATOM     34  O4  ASG B   3      21.285  24.767  58.7790  0.00  0.00     0.000 O
BRANCH 34 38
ATOM     35  C1  GCT B   3      19.156  26.549  61.7210  0.00  0.00     0.000 C
ATOM     36  C2  GCT B   3      20.597  26.268  62.0870  0.00  0.00     0.000 C
ATOM     37  C3  GCT B   3      21.434  26.017  60.8410  0.00  0.00     0.000 C
ATOM     38  C4  GCT B   3      20.859  24.814  60.0820  0.00  0.00     0.000 C
ATOM     39  C5  GCT B   3      19.321  24.732  60.2050  0.00  0.00     0.000 C
ATOM     40  O5  GCT B   3      18.861  26.055  60.4190  0.00  0.00     0.000 O
ATOM     41   O  GCT B   3      21.069  27.418  62.7750  0.00  0.00     0.000 O
ATOM     43  HD  GCT B   3      20.944  27.704  63.5830  0.00  0.00     0.000 HD
ATOM     43   O  GCT B   3      22.807  25.824  61.2410  0.00  0.00     0.000 O
ATOM     45  HD  GCT B   3      22.682  26.111  62.0480  0.00  0.00     0.000 HD
BRANCH 39 45
ATOM     45   C  GCT B   3      18.731  23.821  61.2590  0.00  0.00     0.000 C
ATOM     46   O  GCT B   3      17.469  23.699  61.3480  0.00  0.00     0.000 OA
ATOM     47   O  GCT B   3      19.518  23.208  61.9990  0.00  0.00     0.000 OA
ENDBRANCH 39 45
BRANCH 35 48
ATOM     48  O3  ASG B   4      18.413  26.500  62.8060  0.00  0.00     0.000 O
BRANCH 48 51
ATOM     49  C1  ASG B   4      15.738  28.942  62.0540  0.00  0.00     0.000 C
ATOM     50  C2  ASG B   4      17.145  28.342  62.2060  0.00  0.00     0.000 C
ATOM     51  C3  ASG B   4      17.080  26.840  62.4680  0.00  0.00     0.000 C
ATOM     52  C4  ASG B   4      16.115  26.520  63.5990  0.00  0.00     0.000 C
ATOM     53  C5  ASG B   4      14.766  27.151  63.2640  0.00  0.00     0.000 C
ATOM     54  O5  ASG B   4      14.926  28.579  63.1590  0.00  0.00     0.000 O
BRANCH 50 57
ATOM     55   N  ASG B   4      17.549  29.313  63.1960  0.00  0.00     0.000 N
ATOM     57  HD  ASG B   4      18.303  29.539  62.8340  0.00  0.00     0.000 HD
ATOM     57   O  ASG B   4      18.810  30.513  61.7860  0.00  0.00     0.000 OA
ATOM     58   C  ASG B   4      18.273  30.392  62.8830  0.00  0.00     0.000 C
ATOM     59   C  ASG B   4      18.426  31.408  63.9730  0.00  0.00     0.000 C
ENDBRANCH 50 57
BRANCH 52 60
ATOM     60   O  ASG B   4      16.783  27.090  64.7970  0.00  0.00     0.000 O
ATOM     61   O  ASG B   4      17.140  24.843  65.8250  0.00  0.00     0.000 OA
ATOM     62   O  ASG B   4      18.052  26.781  66.8660  0.00  0.00     0.000 OA
ATOM     63   O  ASG B   4      15.676  26.541  66.7260  0.00  0.00     0.000 OA
ATOM     64   S  ASG B   4      16.979  26.225  66.1330  0.00  0.00     0.000 S
ENDBRANCH 52 60
ATOM     65   O  ASG B   4      12.388  27.194  63.7370  0.00  0.00     0.000 O
ATOM     67  HD  ASG B   4      12.406  28.059  63.7650  0.00  0.00     0.000 HD
ATOM     67   O  ASG B   4      12.388  27.194  63.7370  0.00  0.00     0.000 O
ATOM     69  HD  ASG B   4      12.406  28.059  63.7650  0.00  0.00     0.000 HD
ENDBRANCH 48 51
ENDBRANCH 35 48
ENDBRANCH 34 38
ENDBRANCH 15 34
ENDBRANCH 14 17
ENDBRANCH 1 14
TORSDOF 12
ENDMDL
MODEL 3
REMARK VINA RESULT:      -8.5      2.398      3.138
ROOT
ATOM      1  C1  GAD B   1      13.612  42.673  33.3700  0.00  0.00     0.000 C
ATOM      2  C2  GAD B   1      12.587  42.266  32.3060  0.00  0.00     0.000 C
ATOM      3  C3  GAD B   1      11.656  41.181  32.8610  0.00  0.00     0.000 C
ATOM      4  C4  GAD B   1      12.311  40.239  33.8750  0.00  0.00     0.000 C
ATOM      5  C5  GAD B   1      13.548  40.412  34.3830  0.00  0.00     0.000 C
ATOM      6  O5  GAD B   1      14.309  41.533  33.8940  0.00  0.00     0.000 O
ATOM      7   O  GAD B   1      11.856  43.437  31.7870  0.00  0.00     0.000 O
ATOM      9  HD  GAD B   1      12.513  43.844  32.1780  0.00  0.00     0.000 HD
ATOM      9   O  GAD B   1      11.138  40.337  31.8080  0.00  0.00     0.000 O
ATOM     11  HD  GAD B   1      11.794  40.744  32.1990  0.00  0.00     0.000 HD
ENDROOT
BRANCH 5 11
ATOM     11   C  GAD B   1      14.149  39.569  35.4420  0.00  0.00     0.000 C
ATOM     12   O  GAD B   1      15.273  39.035  35.1830  0.00  0.00     0.000 OA
ATOM     13   O  GAD B   1      13.503  39.340  36.5300  0.00  0.00     0.000 OA
ENDBRANCH 5 11
BRANCH 1 14
ATOM     14  O3  ASG B   2      14.788  43.267  33.0920  0.00  0.00     0.000 O
BRANCH 14 17
ATOM     15  C1  ASG B   2      18.485  42.546  32.7920  0.00  0.00     0.000 C
ATOM     16  C2  ASG B   2      17.216  43.177  33.3820  0.00  0.00     0.000 C
ATOM     17  C3  ASG B   2      16.001  42.706  32.5770  0.00  0.00     0.000 C
ATOM     18  C4  ASG B   2      16.163  43.094  31.1200  0.00  0.00     0.000 C
ATOM     19  C5  ASG B   2      17.494  42.554  30.6060  0.00  0.00     0.000 C
ATOM     20  O5  ASG B   2      18.569  43.002  31.4550  0.00  0.00     0.000 O
ATOM     21   C  ASG B   2      17.817  43.029  29.2250  0.00  0.00     0.000 C
ATOM     22   O  ASG B   2      19.139  42.670  28.9060  0.00  0.00     0.000 O
ATOM     24  HD  ASG B   2      19.925  42.515  28.5770  0.00  0.00     0.000 HD
BRANCH 16 26
ATOM     24   N  ASG B   2      16.872  44.154  34.3890  0.00  0.00     0.000 N
ATOM     26  HD  ASG B   2      16.444  44.093  33.6380  0.00  0.00     0.000 HD
ATOM     26   C  ASG B   2      16.484  43.843  35.6390  0.00  0.00     0.000 C
ATOM     27   C  ASG B   2      16.503  44.957  36.6290  0.00  0.00     0.000 C
ATOM     28   O  ASG B   2      16.137  42.708  35.9420  0.00  0.00     0.000 OA
ENDBRANCH 16 26
BRANCH 18 29
ATOM     29   O  ASG B   2      16.084  44.560  31.0670  0.00  0.00     0.000 O
ATOM     30   O  ASG B   2      15.082  44.628  28.8240  0.00  0.00     0.000 OA
ATOM     31   O  ASG B   2      13.719  45.107  30.7750  0.00  0.00     0.000 OA
ATOM     32   O  ASG B   2      15.431  46.667  30.0820  0.00  0.00     0.000 OA
ATOM     33   S  ASG B   2      14.996  45.271  30.1210  0.00  0.00     0.000 S
ENDBRANCH 18 29
BRANCH 15 34
ATOM     34  O4  ASG B   3      19.657  42.910  33.4630  0.00  0.00     0.000 O
BRANCH 34 38
ATOM     35  C1  GCT B   3      20.772  40.292  36.3390  0.00  0.00     0.000 C
ATOM     36  C2  GCT B   3      21.837  41.307  35.9840  0.00  0.00     0.000 C
ATOM     37  C3  GCT B   3      21.230  42.494  35.2490  0.00  0.00     0.000 C
ATOM     38  C4  GCT B   3      20.552  41.999  33.9650  0.00  0.00     0.000 C
ATOM     39  C5  GCT B   3      19.932  40.595  34.1420  0.00  0.00     0.000 C
ATOM     40  O5  GCT B   3      19.622  40.459  35.5170  0.00  0.00     0.000 O
ATOM     41   O  GCT B   3      22.415  41.731  37.2100  0.00  0.00     0.000 O
ATOM     43  HD  GCT B   3      22.984  41.355  37.7440  0.00  0.00     0.000 HD
ATOM     43   O  GCT B   3      22.272  43.460  34.9970  0.00  0.00     0.000 O
ATOM     45  HD  GCT B   3      22.841  43.085  35.5310  0.00  0.00     0.000 HD
BRANCH 39 45
ATOM     45   C  GCT B   3      20.731  39.393  33.6880  0.00  0.00     0.000 C
ATOM     46   O  GCT B   3      20.222  38.231  33.7760  0.00  0.00     0.000 OA
ATOM     47   O  GCT B   3      21.867  39.594  33.2280  0.00  0.00     0.000 OA
ENDBRANCH 39 45
BRANCH 35 48
ATOM     48  O3  ASG B   4      21.348  39.175  36.7280  0.00  0.00     0.000 O
BRANCH 48 51
ATOM     49  C1  ASG B   4      21.454  37.506  40.0290  0.00  0.00     0.000 C
ATOM     50  C2  ASG B   4      21.932  38.236  38.7630  0.00  0.00     0.000 C
ATOM     51  C3  ASG B   4      20.752  38.747  37.9410  0.00  0.00     0.000 C
ATOM     52  C4  ASG B   4      19.728  37.648  37.7060  0.00  0.00     0.000 C
ATOM     53  C5  ASG B   4      19.335  37.069  39.0620  0.00  0.00     0.000 C
ATOM     54  O5  ASG B   4      20.504  36.508  39.6920  0.00  0.00     0.000 O
BRANCH 50 57
ATOM     55   N  ASG B   4      22.790  39.308  39.2140  0.00  0.00     0.000 N
ATOM     57  HD  ASG B   4      23.438  38.818  39.5140  0.00  0.00     0.000 HD
ATOM     57   O  ASG B   4      24.690  38.145  38.9810  0.00  0.00     0.000 OA
ATOM     58   C  ASG B   4      24.123  39.214  39.1890  0.00  0.00     0.000 C
ATOM     59   C  ASG B   4      24.868  40.479  39.4830  0.00  0.00     0.000 C
ENDBRANCH 50 57
BRANCH 52 60
ATOM     60   O  ASG B   4      20.437  36.699  36.8100  0.00  0.00     0.000 O
ATOM     61   O  ASG B   4      18.328  35.994  35.6760  0.00  0.00     0.000 OA
ATOM     62   O  ASG B   4      20.424  35.183  34.8900  0.00  0.00     0.000 OA
ATOM     63   O  ASG B   4      19.675  34.555  37.0730  0.00  0.00     0.000 OA
ATOM     64   S  ASG B   4      19.644  35.561  36.0060  0.00  0.00     0.000 S
ENDBRANCH 52 60
ATOM     65   O  ASG B   4      17.720  35.747  40.2970  0.00  0.00     0.000 O
ATOM     67  HD  ASG B   4      18.364  35.306  40.6730  0.00  0.00     0.000 HD
ATOM     67   O  ASG B   4      17.720  35.747  40.2970  0.00  0.00     0.000 O
ATOM     69  HD  ASG B   4      18.364  35.306  40.6730  0.00  0.00     0.000 HD
ENDBRANCH 48 51
ENDBRANCH 35 48
ENDBRANCH 34 38
ENDBRANCH 15 34
ENDBRANCH 14 17
ENDBRANCH 1 14
TORSDOF 12
ENDMDL
MODEL 4
REMARK VINA RESULT:      -8.4     22.083     28.549
ROOT
ATOM      1  C1  GAD B   1      20.464  28.967  55.6940  0.00  0.00     0.000 C
ATOM      2  C2  GAD B   1      20.231  30.074  56.7260  0.00  0.00     0.000 C
ATOM      3  C3  GAD B   1      20.386  31.450  56.0670  0.00  0.00     0.000 C
ATOM      4  C4  GAD B   1      21.405  31.496  54.9250  0.00  0.00     0.000 C
ATOM      5  C5  GAD B   1      22.015  30.411  54.4080  0.00  0.00     0.000 C
ATOM      6  O5  GAD B   1      21.716  29.137  55.0110  0.00  0.00     0.000 O
ATOM      7   O  GAD B   1      18.933  29.910  57.4080  0.00  0.00     0.000 O
ATOM      9  HD  GAD B   1      19.006  29.123  57.0530  0.00  0.00     0.000 HD
ATOM      9   O  GAD B   1      20.808  32.451  57.0200  0.00  0.00     0.000 O
ATOM     11  HD  GAD B   1      20.880  31.665  56.6650  0.00  0.00     0.000 HD
ENDROOT
BRANCH 5 11
ATOM     11   C  GAD B   1      22.920  30.431  53.2350  0.00  0.00     0.000 C
ATOM     12   O  GAD B   1      22.549  29.777  52.2110  0.00  0.00     0.000 OA
ATOM     13   O  GAD B   1      24.060  31.022  53.3080  0.00  0.00     0.000 OA
ENDBRANCH 5 11
BRANCH 1 14
ATOM     14  O3  ASG B   2      20.806  27.704  56.0110  0.00  0.00     0.000 O
BRANCH 14 17
ATOM     15  C1  ASG B   2      19.965  25.013  58.5270  0.00  0.00     0.000 C
ATOM     16  C2  ASG B   2      20.823  26.093  57.8530  0.00  0.00     0.000 C
ATOM     17  C3  ASG B   2      20.047  26.686  56.6730  0.00  0.00     0.000 C
ATOM     18  C4  ASG B   2      19.691  25.592  55.6850  0.00  0.00     0.000 C
ATOM     19  C5  ASG B   2      18.949  24.479  56.4190  0.00  0.00     0.000 C
ATOM     20  O5  ASG B   2      19.728  24.024  57.5420  0.00  0.00     0.000 O
ATOM     21   C  ASG B   2      18.703  23.281  55.5580  0.00  0.00     0.000 C
ATOM     22   O  ASG B   2      18.213  22.230  56.3530  0.00  0.00     0.000 O
ATOM     24  HD  ASG B   2      17.906  21.504  56.7130  0.00  0.00     0.000 HD
BRANCH 16 26
ATOM     24   N  ASG B   2      21.244  27.235  58.6310  0.00  0.00     0.000 N
ATOM     26  HD  ASG B   2      20.926  26.518  58.9980  0.00  0.00     0.000 HD
ATOM     26   C  ASG B   2      22.495  27.729  58.6270  0.00  0.00     0.000 C
ATOM     27   C  ASG B   2      22.665  29.091  59.2070  0.00  0.00     0.000 C
ATOM     28   O  ASG B   2      23.438  27.093  58.1710  0.00  0.00     0.000 OA
ENDBRANCH 16 26
BRANCH 18 29
ATOM     29   O  ASG B   2      20.957  25.137  55.0920  0.00  0.00     0.000 O
ATOM     30   O  ASG B   2      19.973  24.597  52.9050  0.00  0.00     0.000 OA
ATOM     31   O  ASG B   2      21.358  26.574  53.1550  0.00  0.00     0.000 OA
ATOM     32   O  ASG B   2      22.355  24.375  53.2750  0.00  0.00     0.000 OA
ATOM     33   S  ASG B   2      21.158  25.186  53.4980  0.00  0.00     0.000 S
ENDBRANCH 18 29
BRANCH 15 34
ATOM     34  O4  ASG B   3      20.584  24.409  59.6270  0.00  0.00     0.000 O
BRANCH 34 38
ATOM     35  C1  GCT B   3      19.600  27.145  62.4400  0.00  0.00     0.000 C
ATOM     36  C2  GCT B   3      20.791  26.286  62.8060  0.00  0.00     0.000 C
ATOM     37  C3  GCT B   3      21.369  25.607  61.5720  0.00  0.00     0.000 C
ATOM     38  C4  GCT B   3      20.289  24.729  60.9280  0.00  0.00     0.000 C
ATOM     39  C5  GCT B   3      18.877  25.340  61.0810  0.00  0.00     0.000 C
ATOM     40  O5  GCT B   3      19.053  26.742  61.1890  0.00  0.00     0.000 O
ATOM     41   O  GCT B   3      21.753  27.156  63.3860  0.00  0.00     0.000 O
ATOM     43  HD  GCT B   3      21.806  27.523  64.1680  0.00  0.00     0.000 HD
ATOM     43   O  GCT B   3      22.539  24.859  61.9650  0.00  0.00     0.000 O
ATOM     45  HD  GCT B   3      22.593  25.226  62.7470  0.00  0.00     0.000 HD
BRANCH 39 45
ATOM     45   C  GCT B   3      18.004  24.856  62.2180  0.00  0.00     0.000 C
ATOM     46   O  GCT B   3      16.864  25.387  62.4040  0.00  0.00     0.000 OA
ATOM     47   O  GCT B   3      18.438  23.933  62.9280  0.00  0.00     0.000 OA
ENDBRANCH 39 45
BRANCH 35 48
ATOM     48  O3  ASG B   4      18.968  27.502  63.5370  0.00  0.00     0.000 O
BRANCH 48 51
ATOM     49  C1  ASG B   4      19.059  30.371  65.8710  0.00  0.00     0.000 C
ATOM     50  C2  ASG B   4      18.833  28.945  65.3430  0.00  0.00     0.000 C
ATOM     51  C3  ASG B   4      19.458  28.762  63.9620  0.00  0.00     0.000 C
ATOM     52  C4  ASG B   4      19.039  29.876  63.0170  0.00  0.00     0.000 C
ATOM     53  C5  ASG B   4      19.375  31.210  63.6770  0.00  0.00     0.000 C
ATOM     54  O5  ASG B   4      18.637  31.325  64.9100  0.00  0.00     0.000 O
BRANCH 50 57
ATOM     55   N  ASG B   4      18.211  27.641  65.3000  0.00  0.00     0.000 N
ATOM     57  HD  ASG B   4      18.270  27.458  66.1440  0.00  0.00     0.000 HD
ATOM     57   O  ASG B   4      17.481  27.707  67.4160  0.00  0.00     0.000 OA
ATOM     58   C  ASG B   4      17.487  27.163  66.3160  0.00  0.00     0.000 C
ATOM     59   C  ASG B   4      16.734  25.899  66.0360  0.00  0.00     0.000 C
ENDBRANCH 50 57
BRANCH 52 60
ATOM     60   O  ASG B   4      17.587  29.634  62.8150  0.00  0.00     0.000 O
ATOM     61   O  ASG B   4      17.809  29.586  60.3290  0.00  0.00     0.000 OA
ATOM     62   O  ASG B   4      15.713  29.086  61.3420  0.00  0.00     0.000 OA
ATOM     63   O  ASG B   4      16.618  31.288  61.5630  0.00  0.00     0.000 OA
ATOM     64   S  ASG B   4      16.895  29.859  61.3870  0.00  0.00     0.000 S
ENDBRANCH 52 60
ATOM     65   O  ASG B   4      19.709  33.591  63.3570  0.00  0.00     0.000 O
ATOM     67  HD  ASG B   4      19.215  33.756  64.0480  0.00  0.00     0.000 HD
ATOM     67   O  ASG B   4      19.709  33.591  63.3570  0.00  0.00     0.000 O
ATOM     69  HD  ASG B   4      19.215  33.756  64.0480  0.00  0.00     0.000 HD
ENDBRANCH 48 51
ENDBRANCH 35 48
ENDBRANCH 34 38
ENDBRANCH 15 34
ENDBRANCH 14 17
ENDBRANCH 1 14
TORSDOF 12
ENDMDL
MODEL 5
REMARK VINA RESULT:      -8.3     46.068     49.499
ROOT
ATOM      1  C1  GAD B   1       8.553  48.936  83.8180  0.00  0.00     0.000 C
ATOM      2  C2  GAD B   1       8.516  48.912  85.3490  0.00  0.00     0.000 C
ATOM      3  C3  GAD B   1       8.466  50.344  85.8970  0.00  0.00     0.000 C
ATOM      4  C4  GAD B   1       9.200  51.378  85.0390  0.00  0.00     0.000 C
ATOM      5  C5  GAD B   1       9.720  51.122  83.8220  0.00  0.00     0.000 C
ATOM      6  O5  GAD B   1       9.612  49.773  83.3300  0.00  0.00     0.000 O
ATOM      7   O  GAD B   1       7.411  48.071  85.8470  0.00  0.00     0.000 O
ATOM      9  HD  GAD B   1       7.431  47.802  85.0240  0.00  0.00     0.000 HD
ATOM      9   O  GAD B   1       9.053  50.428  87.2150  0.00  0.00     0.000 O
ATOM     11  HD  GAD B   1       9.073  50.160  86.3920  0.00  0.00     0.000 HD
ENDROOT
BRANCH 5 11
ATOM     11   C  GAD B   1      10.338  52.139  82.9390  0.00  0.00     0.000 C
ATOM     12   O  GAD B   1       9.750  52.379  81.8390  0.00  0.00     0.000 OA
ATOM     13   O  GAD B   1      11.461  52.677  83.2590  0.00  0.00     0.000 OA
ENDBRANCH 5 11
BRANCH 1 14
ATOM     14  O3  ASG B   2       9.005  47.918  83.0610  0.00  0.00     0.000 O
BRANCH 14 17
ATOM     15  C1  ASG B   2       8.509  44.211  82.5250  0.00  0.00     0.000 C
ATOM     16  C2  ASG B   2       9.252  45.487  82.9480  0.00  0.00     0.000 C
ATOM     17  C3  ASG B   2       8.357  46.700  82.6790  0.00  0.00     0.000 C
ATOM     18  C4  ASG B   2       7.990  46.758  81.2080  0.00  0.00     0.000 C
ATOM     19  C5  ASG B   2       7.368  45.427  80.7970  0.00  0.00     0.000 C
ATOM     20  O5  ASG B   2       8.255  44.342  81.1390  0.00  0.00     0.000 O
ATOM     21   C  ASG B   2       7.126  45.331  79.3250  0.00  0.00     0.000 C
ATOM     22   O  ASG B   2       6.758  44.013  78.9980  0.00  0.00     0.000 O
ATOM     24  HD  ASG B   2       6.520  43.254  78.6560  0.00  0.00     0.000 HD
BRANCH 16 26
ATOM     24   N  ASG B   2       9.710  45.522  84.3170  0.00  0.00     0.000 N
ATOM     26  HD  ASG B   2       9.542  44.779  83.9050  0.00  0.00     0.000 HD
ATOM     26   C  ASG B   2      10.883  46.056  84.7050  0.00  0.00     0.000 C
ATOM     27   C  ASG B   2      11.035  46.313  86.1650  0.00  0.00     0.000 C
ATOM     28   O  ASG B   2      11.771  46.314  83.9010  0.00  0.00     0.000 OA
ENDBRANCH 16 26
BRANCH 18 29
ATOM     29   O  ASG B   2       9.230  47.057  80.4810  0.00  0.00     0.000 O
ATOM     30   O  ASG B   2       8.109  48.274  78.6630  0.00  0.00     0.000 OA
ATOM     31   O  ASG B   2       9.369  49.494  80.3400  0.00  0.00     0.000 OA
ATOM     32   O  ASG B   2      10.524  48.108  78.7310  0.00  0.00     0.000 OA
ATOM     33   S  ASG B   2       9.296  48.325  79.4960  0.00  0.00     0.000 S
ENDBRANCH 18 29
BRANCH 15 34
ATOM     34  O4  ASG B   3       9.243  43.038  82.7350  0.00  0.00     0.000 O
BRANCH 34 38
ATOM     35  C1  GCT B   3       9.896  39.080  82.2160  0.00  0.00     0.000 C
ATOM     36  C2  GCT B   3      10.073  39.903  80.9590  0.00  0.00     0.000 C
ATOM     37  C3  GCT B   3      10.247  41.377  81.2970  0.00  0.00     0.000 C
ATOM     38  C4  GCT B   3       9.008  41.870  82.0550  0.00  0.00     0.000 C
ATOM     39  C5  GCT B   3       8.407  40.770  82.9590  0.00  0.00     0.000 C
ATOM     40  O5  GCT B   3       9.471  39.899  83.3000  0.00  0.00     0.000 O
ATOM     41   O  GCT B   3      11.236  39.406  80.3120  0.00  0.00     0.000 O
ATOM     43  HD  GCT B   3      11.378  38.695  79.8390  0.00  0.00     0.000 HD
ATOM     43   O  GCT B   3      10.481  42.105  80.0730  0.00  0.00     0.000 O
ATOM     45  HD  GCT B   3      10.623  41.394  79.5990  0.00  0.00     0.000 HD
BRANCH 39 45
ATOM     45   C  GCT B   3       7.246  39.958  82.4290  0.00  0.00     0.000 C
ATOM     46   O  GCT B   3       6.839  40.148  81.2390  0.00  0.00     0.000 OA
ATOM     47   O  GCT B   3       6.738  39.114  83.1850  0.00  0.00     0.000 OA
ENDBRANCH 39 45
BRANCH 35 48
ATOM     48  O3  ASG B   4       9.489  37.872  81.8910  0.00  0.00     0.000 O
BRANCH 48 51
ATOM     49  C1  ASG B   4      11.044  35.128  83.8250  0.00  0.00     0.000 C
ATOM     50  C2  ASG B   4      10.886  36.268  82.8060  0.00  0.00     0.000 C
ATOM     51  C3  ASG B   4       9.583  37.031  83.0280  0.00  0.00     0.000 C
ATOM     52  C4  ASG B   4       8.400  36.083  83.1260  0.00  0.00     0.000 C
ATOM     53  C5  ASG B   4       8.707  35.051  84.2080  0.00  0.00     0.000 C
ATOM     54  O5  ASG B   4       9.885  34.311  83.8330  0.00  0.00     0.000 O
BRANCH 50 57
ATOM     55   N  ASG B   4      10.991  36.318  81.3660  0.00  0.00     0.000 N
ATOM     57  HD  ASG B   4      11.794  36.639  81.3200  0.00  0.00     0.000 HD
ATOM     57   O  ASG B   4      13.222  36.126  81.3280  0.00  0.00     0.000 OA
ATOM     58   C  ASG B   4      12.152  36.137  80.7280  0.00  0.00     0.000 C
ATOM     59   C  ASG B   4      12.059  36.003  79.2390  0.00  0.00     0.000 C
ENDBRANCH 50 57
BRANCH 52 60
ATOM     60   O  ASG B   4       8.287  35.525  81.7540  0.00  0.00     0.000 O
ATOM     61   O  ASG B   4       6.090  36.635  81.3430  0.00  0.00     0.000 OA
ATOM     62   O  ASG B   4       7.162  35.442  79.5830  0.00  0.00     0.000 OA
ATOM     63   O  ASG B   4       6.403  34.246  81.5100  0.00  0.00     0.000 OA
ATOM     64   S  ASG B   4       6.890  35.518  80.9680  0.00  0.00     0.000 S
ENDBRANCH 52 60
ATOM     65   O  ASG B   4       7.805  33.362  85.6960  0.00  0.00     0.000 O
ATOM     67  HD  ASG B   4       8.442  32.820  85.4710  0.00  0.00     0.000 HD
ATOM     67   O  ASG B   4       7.805  33.362  85.6960  0.00  0.00     0.000 O
ATOM     69  HD  ASG B   4       8.442  32.820  85.4710  0.00  0.00     0.000 HD
ENDBRANCH 48 51
ENDBRANCH 35 48
ENDBRANCH 34 38
ENDBRANCH 15 34
ENDBRANCH 14 17
ENDBRANCH 1 14
TORSDOF 12
ENDMDL
MODEL 6
REMARK VINA RESULT:      -8.1     22.146     28.099
ROOT
ATOM      1  C1  GAD B   1      21.674  29.474  55.1460  0.00  0.00     0.000 C
ATOM      2  C2  GAD B   1      20.641  30.018  54.1540  0.00  0.00     0.000 C
ATOM      3  C3  GAD B   1      20.384  31.505  54.4230  0.00  0.00     0.000 C
ATOM      4  C4  GAD B   1      20.512  31.916  55.8930  0.00  0.00     0.000 C
ATOM      5  C5  GAD B   1      20.963  31.106  56.8710  0.00  0.00     0.000 C
ATOM      6  O5  GAD B   1      21.300  29.755  56.5030  0.00  0.00     0.000 O
ATOM      7   O  GAD B   1      21.041  29.750  52.7590  0.00  0.00     0.000 O
ATOM      9  HD  GAD B   1      21.579  29.207  53.1660  0.00  0.00     0.000 HD
ATOM      9   O  GAD B   1      19.055  31.898  54.0120  0.00  0.00     0.000 O
ATOM     11  HD  GAD B   1      19.593  31.355  54.4190  0.00  0.00     0.000 HD
ENDROOT
BRANCH 5 11
ATOM     11   C  GAD B   1      21.191  31.524  58.2740  0.00  0.00     0.000 C
ATOM     12   O  GAD B   1      20.996  30.649  59.1740  0.00  0.00     0.000 OA
ATOM     13   O  GAD B   1      21.492  32.745  58.5430  0.00  0.00     0.000 OA
ENDBRANCH 5 11
BRANCH 1 14
ATOM     14  O3  ASG B   2      21.810  28.170  55.4500  0.00  0.00     0.000 O
BRANCH 14 17
ATOM     15  C1  ASG B   2      20.588  25.581  57.9160  0.00  0.00     0.000 C
ATOM     16  C2  ASG B   2      21.603  26.512  57.2370  0.00  0.00     0.000 C
ATOM     17  C3  ASG B   2      20.904  27.282  56.1140  0.00  0.00     0.000 C
ATOM     18  C4  ASG B   2      20.314  26.311  55.1090  0.00  0.00     0.000 C
ATOM     19  C5  ASG B   2      19.409  25.325  55.8410  0.00  0.00     0.000 C
ATOM     20  O5  ASG B   2      20.135  24.691  56.9120  0.00  0.00     0.000 O
ATOM     21   C  ASG B   2      18.913  24.227  54.9550  0.00  0.00     0.000 C
ATOM     22   O  ASG B   2      18.269  23.252  55.7380  0.00  0.00     0.000 O
ATOM     24  HD  ASG B   2      17.848  22.581  56.0890  0.00  0.00     0.000 HD
BRANCH 16 26
ATOM     24   N  ASG B   2      22.284  27.436  58.1150  0.00  0.00     0.000 N
ATOM     26  HD  ASG B   2      21.928  26.701  58.4030  0.00  0.00     0.000 HD
ATOM     26   C  ASG B   2      23.578  27.783  57.9840  0.00  0.00     0.000 C
ATOM     27   C  ASG B   2      24.013  28.986  58.7490  0.00  0.00     0.000 C
ATOM     28   O  ASG B   2      24.348  27.146  57.2770  0.00  0.00     0.000 OA
ENDBRANCH 16 26
BRANCH 18 29
ATOM     29   O  ASG B   2      21.449  25.657  54.4450  0.00  0.00     0.000 O
ATOM     30   O  ASG B   2      20.291  25.378  52.2940  0.00  0.00     0.000 OA
ATOM     31   O  ASG B   2      22.021  27.064  52.5280  0.00  0.00     0.000 OA
ATOM     32   O  ASG B   2      22.608  24.719  52.5430  0.00  0.00     0.000 OA
ATOM     33   S  ASG B   2      21.588  25.724  52.8450  0.00  0.00     0.000 S
ENDBRANCH 18 29
BRANCH 15 34
ATOM     34  O4  ASG B   3      21.129  24.831  58.9660  0.00  0.00     0.000 O
BRANCH 34 38
ATOM     35  C1  GCT B   3      20.637  27.526  61.9430  0.00  0.00     0.000 C
ATOM     36  C2  GCT B   3      21.684  26.472  62.2330  0.00  0.00     0.000 C
ATOM     37  C3  GCT B   3      22.126  25.780  60.9510  0.00  0.00     0.000 C
ATOM     38  C4  GCT B   3      20.910  25.120  60.2890  0.00  0.00     0.000 C
ATOM     39  C5  GCT B   3      19.616  25.935  60.5110  0.00  0.00     0.000 C
ATOM     40  O5  GCT B   3      20.012  27.284  60.6880  0.00  0.00     0.000 O
ATOM     41   O  GCT B   3      22.781  27.146  62.8320  0.00  0.00     0.000 O
ATOM     43  HD  GCT B   3      22.905  27.457  63.6310  0.00  0.00     0.000 HD
ATOM     43   O  GCT B   3      23.170  24.838  61.2740  0.00  0.00     0.000 O
ATOM     45  HD  GCT B   3      23.295  25.148  62.0730  0.00  0.00     0.000 HD
BRANCH 39 45
ATOM     45   C  GCT B   3      18.696  25.531  61.6430  0.00  0.00     0.000 C
ATOM     46   O  GCT B   3      17.625  26.185  61.8450  0.00  0.00     0.000 OA
ATOM     47   O  GCT B   3      19.025  24.552  62.3330  0.00  0.00     0.000 OA
ENDBRANCH 39 45
BRANCH 35 48
ATOM     48  O3  ASG B   4      20.088  27.916  63.0730  0.00  0.00     0.000 O
BRANCH 48 51
ATOM     49  C1  ASG B   4      20.395  30.862  65.2910  0.00  0.00     0.000 C
ATOM     50  C2  ASG B   4      20.235  29.399  64.8450  0.00  0.00     0.000 C
ATOM     51  C3  ASG B   4      20.496  29.245  63.3500  0.00  0.00     0.000 C
ATOM     52  C4  ASG B   4      19.698  30.257  62.5450  0.00  0.00     0.000 C
ATOM     53  C5  ASG B   4      20.010  31.648  63.0890  0.00  0.00     0.000 C
ATOM     54  O5  ASG B   4      19.611  31.714  64.4720  0.00  0.00     0.000 O
BRANCH 50 57
ATOM     55   N  ASG B   4      21.084  28.446  65.5240  0.00  0.00     0.000 N
ATOM     57  HD  ASG B   4      20.784  28.576  66.3260  0.00  0.00     0.000 HD
ATOM     57   O  ASG B   4      19.653  28.077  67.2070  0.00  0.00     0.000 OA
ATOM     58   C  ASG B   4      20.680  27.775  66.6070  0.00  0.00     0.000 C
ATOM     59   C  ASG B   4      21.588  26.675  67.0630  0.00  0.00     0.000 C
ENDBRANCH 50 57
BRANCH 52 60
ATOM     60   O  ASG B   4      18.291  29.820  62.7350  0.00  0.00     0.000 O
ATOM     61   O  ASG B   4      17.869  29.674  60.2790  0.00  0.00     0.000 OA
ATOM     62   O  ASG B   4      16.194  28.960  61.8130  0.00  0.00     0.000 OA
ATOM     63   O  ASG B   4      16.813  31.269  61.7540  0.00  0.00     0.000 OA
ATOM     64   S  ASG B   4      17.229  29.881  61.5350  0.00  0.00     0.000 S
ENDBRANCH 52 60
ATOM     65   O  ASG B   4      19.922  34.037  62.6830  0.00  0.00     0.000 O
ATOM     67  HD  ASG B   4      19.608  34.164  63.4800  0.00  0.00     0.000 HD
ATOM     67   O  ASG B   4      19.922  34.037  62.6830  0.00  0.00     0.000 O
ATOM     69  HD  ASG B   4      19.608  34.164  63.4800  0.00  0.00     0.000 HD
ENDBRANCH 48 51
ENDBRANCH 35 48
ENDBRANCH 34 38
ENDBRANCH 15 34
ENDBRANCH 14 17
ENDBRANCH 1 14
TORSDOF 12
ENDMDL
MODEL 7
REMARK VINA RESULT:      -8.1      2.791      5.833
ROOT
ATOM      1  C1  GAD B   1      15.719  44.632  34.3390  0.00  0.00     0.000 C
ATOM      2  C2  GAD B   1      16.662  44.370  35.5160  0.00  0.00     0.000 C
ATOM      3  C3  GAD B   1      17.386  45.664  35.9090  0.00  0.00     0.000 C
ATOM      4  C4  GAD B   1      17.658  46.618  34.7420  0.00  0.00     0.000 C
ATOM      5  C5  GAD B   1      17.180  46.446  33.4940  0.00  0.00     0.000 C
ATOM      6  O5  GAD B   1      16.403  45.259  33.2440  0.00  0.00     0.000 O
ATOM      7   O  GAD B   1      15.950  43.747  36.6490  0.00  0.00     0.000 O
ATOM      9  HD  GAD B   1      15.362  43.618  36.0250  0.00  0.00     0.000 HD
ATOM      9   O  GAD B   1      18.671  45.392  36.5120  0.00  0.00     0.000 O
ATOM     11  HD  GAD B   1      18.083  45.263  35.8890  0.00  0.00     0.000 HD
ENDROOT
BRANCH 5 11
ATOM     11   C  GAD B   1      17.348  47.415  32.3860  0.00  0.00     0.000 C
ATOM     12   O  GAD B   1      18.027  47.030  31.3830  0.00  0.00     0.000 OA
ATOM     13   O  GAD B   1      16.888  48.611  32.4980  0.00  0.00     0.000 OA
ENDBRANCH 5 11
BRANCH 1 14
ATOM     14  O3  ASG B   2      15.268  43.672  33.5090  0.00  0.00     0.000 O
BRANCH 14 17
ATOM     15  C1  ASG B   2      15.545  39.912  33.2590  0.00  0.00     0.000 C
ATOM     16  C2  ASG B   2      15.887  41.374  32.9390  0.00  0.00     0.000 C
ATOM     17  C3  ASG B   2      14.985  42.292  33.7700  0.00  0.00     0.000 C
ATOM     18  C4  ASG B   2      13.528  42.003  33.4620  0.00  0.00     0.000 C
ATOM     19  C5  ASG B   2      13.259  40.516  33.6720  0.00  0.00     0.000 C
ATOM     20  O5  ASG B   2      14.189  39.733  32.8970  0.00  0.00     0.000 O
ATOM     21   C  ASG B   2      11.890  40.108  33.2330  0.00  0.00     0.000 C
ATOM     22   O  ASG B   2      11.792  38.705  33.2560  0.00  0.00     0.000 O
ATOM     24  HD  ASG B   2      11.590  37.863  33.2250  0.00  0.00     0.000 HD
BRANCH 16 26
ATOM     24   N  ASG B   2      17.269  41.747  33.1280  0.00  0.00     0.000 N
ATOM     26  HD  ASG B   2      17.026  40.926  32.9990  0.00  0.00     0.000 HD
ATOM     26   C  ASG B   2      17.937  42.594  32.3230  0.00  0.00     0.000 C
ATOM     27   C  ASG B   2      19.224  43.125  32.8530  0.00  0.00     0.000 C
ATOM     28   O  ASG B   2      17.508  42.906  31.2190  0.00  0.00     0.000 OA
ENDBRANCH 16 26
BRANCH 18 29
ATOM     29   O  ASG B   2      13.301  42.434  32.0760  0.00  0.00     0.000 O
ATOM     30   O  ASG B   2      10.955  43.071  32.4440  0.00  0.00     0.000 OA
ATOM     31   O  ASG B   2      12.652  44.788  32.1900  0.00  0.00     0.000 OA
ATOM     32   O  ASG B   2      12.010  43.432  30.2940  0.00  0.00     0.000 OA
ATOM     33   S  ASG B   2      12.151  43.508  31.7480  0.00  0.00     0.000 S
ENDBRANCH 18 29
BRANCH 15 34
ATOM     34  O4  ASG B   3      16.321  38.986  32.5520  0.00  0.00     0.000 O
BRANCH 34 38
ATOM     35  C1  GCT B   3      19.834  38.111  34.3570  0.00  0.00     0.000 C
ATOM     36  C2  GCT B   3      19.479  37.181  33.2180  0.00  0.00     0.000 C
ATOM     37  C3  GCT B   3      18.414  37.801  32.3240  0.00  0.00     0.000 C
ATOM     38  C4  GCT B   3      17.158  38.084  33.1580  0.00  0.00     0.000 C
ATOM     39  C5  GCT B   3      17.505  38.483  34.6110  0.00  0.00     0.000 C
ATOM     40  O5  GCT B   3      18.797  39.063  34.5740  0.00  0.00     0.000 O
ATOM     41   O  GCT B   3      20.676  36.968  32.4830  0.00  0.00     0.000 O
ATOM     43  HD  GCT B   3      21.372  36.477  32.6370  0.00  0.00     0.000 HD
ATOM     43   O  GCT B   3      18.164  36.907  31.2190  0.00  0.00     0.000 O
ATOM     45  HD  GCT B   3      18.860  36.416  31.3730  0.00  0.00     0.000 HD
BRANCH 39 45
ATOM     45   C  GCT B   3      17.467  37.412  35.6790  0.00  0.00     0.000 C
ATOM     46   O  GCT B   3      17.560  37.743  36.9030  0.00  0.00     0.000 OA
ATOM     47   O  GCT B   3      17.331  36.233  35.3110  0.00  0.00     0.000 OA
ENDBRANCH 39 45
BRANCH 35 48
ATOM     48  O3  ASG B   4      20.546  37.456  35.2480  0.00  0.00     0.000 O
BRANCH 48 51
ATOM     49  C1  ASG B   4      23.822  38.365  36.7090  0.00  0.00     0.000 C
ATOM     50  C2  ASG B   4      22.775  37.640  35.8470  0.00  0.00     0.000 C
ATOM     51  C3  ASG B   4      21.431  38.360  35.8880  0.00  0.00     0.000 C
ATOM     52  C4  ASG B   4      21.003  38.647  37.3180  0.00  0.00     0.000 C
ATOM     53  C5  ASG B   4      22.134  39.405  38.0080  0.00  0.00     0.000 C
ATOM     54  O5  ASG B   4      23.317  38.582  38.0170  0.00  0.00     0.000 O
BRANCH 50 57
ATOM     55   N  ASG B   4      23.366  37.599  34.5290  0.00  0.00     0.000 N
ATOM     57  HD  ASG B   4      24.001  37.037  34.7050  0.00  0.00     0.000 HD
ATOM     57   O  ASG B   4      24.202  35.534  34.7560  0.00  0.00     0.000 OA
ATOM     58   C  ASG B   4      23.950  36.500  34.0420  0.00  0.00     0.000 C
ATOM     59   C  ASG B   4      24.319  36.550  32.5910  0.00  0.00     0.000 C
ENDBRANCH 50 57
BRANCH 52 60
ATOM     60   O  ASG B   4      20.732  37.298  37.8770  0.00  0.00     0.000 O
ATOM     61   O  ASG B   4      19.269  38.200  39.6870  0.00  0.00     0.000 OA
ATOM     62   O  ASG B   4      19.497  35.846  39.4100  0.00  0.00     0.000 OA
ATOM     63   O  ASG B   4      21.404  37.134  40.0600  0.00  0.00     0.000 OA
ATOM     64   S  ASG B   4      20.123  37.112  39.3480  0.00  0.00     0.000 S
ENDBRANCH 52 60
ATOM     65   O  ASG B   4      22.775  40.795  39.8890  0.00  0.00     0.000 O
ATOM     67  HD  ASG B   4      23.479  40.306  40.0140  0.00  0.00     0.000 HD
ATOM     67   O  ASG B   4      22.775  40.795  39.8890  0.00  0.00     0.000 O
ATOM     69  HD  ASG B   4      23.479  40.306  40.0140  0.00  0.00     0.000 HD
ENDBRANCH 48 51
ENDBRANCH 35 48
ENDBRANCH 34 38
ENDBRANCH 15 34
ENDBRANCH 14 17
ENDBRANCH 1 14
TORSDOF 12
ENDMDL
MODEL 8
REMARK VINA RESULT:      -8.1      2.854      5.155
ROOT
ATOM      1  C1  GAD B   1      12.849  39.376  30.9860  0.00  0.00     0.000 C
ATOM      2  C2  GAD B   1      11.722  38.355  30.8020  0.00  0.00     0.000 C
ATOM      3  C3  GAD B   1      10.516  39.018  30.1240  0.00  0.00     0.000 C
ATOM      4  C4  GAD B   1      10.331  40.499  30.4650  0.00  0.00     0.000 C
ATOM      5  C5  GAD B   1      11.217  41.232  31.1680  0.00  0.00     0.000 C
ATOM      6  O5  GAD B   1      12.387  40.554  31.6630  0.00  0.00     0.000 O
ATOM      7   O  GAD B   1      12.194  37.156  30.0830  0.00  0.00     0.000 O
ATOM      9  HD  GAD B   1      12.959  37.502  30.2960  0.00  0.00     0.000 HD
ATOM      9   O  GAD B   1       9.279  38.365  30.4860  0.00  0.00     0.000 O
ATOM     11  HD  GAD B   1      10.043  38.712  30.6990  0.00  0.00     0.000 HD
ENDROOT
BRANCH 5 11
ATOM     11   C  GAD B   1      11.100  42.689  31.4130  0.00  0.00     0.000 C
ATOM     12   O  GAD B   1      10.677  43.402  30.4500  0.00  0.00     0.000 OA
ATOM     13   O  GAD B   1      11.493  43.190  32.5300  0.00  0.00     0.000 OA
ENDBRANCH 5 11
BRANCH 1 14
ATOM     14  O3  ASG B   2      13.842  39.244  31.8850  0.00  0.00     0.000 O
BRANCH 14 17
ATOM     15  C1  ASG B   2      17.561  39.856  32.1620  0.00  0.00     0.000 C
ATOM     16  C2  ASG B   2      16.275  39.027  32.0310  0.00  0.00     0.000 C
ATOM     17  C3  ASG B   2      15.070  39.972  32.0090  0.00  0.00     0.000 C
ATOM     18  C4  ASG B   2      15.042  40.805  33.2770  0.00  0.00     0.000 C
ATOM     19  C5  ASG B   2      16.382  41.515  33.4360  0.00  0.00     0.000 C
ATOM     20  O5  ASG B   2      17.457  40.556  33.3880  0.00  0.00     0.000 O
ATOM     21   C  ASG B   2      16.508  42.230  34.7430  0.00  0.00     0.000 C
ATOM     22   O  ASG B   2      17.832  42.674  34.9060  0.00  0.00     0.000 O
ATOM     24  HD  ASG B   2      18.599  43.004  35.1370  0.00  0.00     0.000 HD
BRANCH 16 26
ATOM     24   N  ASG B   2      16.269  38.115  30.9100  0.00  0.00     0.000 N
ATOM     26  HD  ASG B   2      17.002  38.379  31.2880  0.00  0.00     0.000 HD
ATOM     26   C  ASG B   2      15.667  36.912  30.9230  0.00  0.00     0.000 C
ATOM     27   C  ASG B   2      15.467  36.265  29.5950  0.00  0.00     0.000 C
ATOM     28   O  ASG B   2      15.306  36.383  31.9670  0.00  0.00     0.000 OA
ENDBRANCH 16 26
BRANCH 18 29
ATOM     29   O  ASG B   2      14.754  39.878  34.3790  0.00  0.00     0.000 O
ATOM     30   O  ASG B   2      13.835  41.609  35.8630  0.00  0.00     0.000 OA
ATOM     31   O  ASG B   2      12.346  40.025  34.7830  0.00  0.00     0.000 OA
ATOM     32   O  ASG B   2      13.838  39.282  36.5350  0.00  0.00     0.000 OA
ATOM     33   S  ASG B   2      13.610  40.237  35.4500  0.00  0.00     0.000 S
ENDBRANCH 18 29
BRANCH 15 34
ATOM     34  O4  ASG B   3      18.727  39.084  32.1860  0.00  0.00     0.000 O
BRANCH 34 38
ATOM     35  C1  GCT B   3      20.920  36.920  34.8060  0.00  0.00     0.000 C
ATOM     36  C2  GCT B   3      20.425  36.127  33.6160  0.00  0.00     0.000 C
ATOM     37  C3  GCT B   3      20.003  37.055  32.4850  0.00  0.00     0.000 C
ATOM     38  C4  GCT B   3      18.884  37.978  32.9820  0.00  0.00     0.000 C
ATOM     39  C5  GCT B   3      19.052  38.343  34.4740  0.00  0.00     0.000 C
ATOM     40  O5  GCT B   3      20.437  38.258  34.7580  0.00  0.00     0.000 O
ATOM     41   O  GCT B   3      21.506  35.305  33.2010  0.00  0.00     0.000 O
ATOM     43  HD  GCT B   3      21.835  34.571  33.5230  0.00  0.00     0.000 HD
ATOM     43   O  GCT B   3      19.607  36.251  31.3540  0.00  0.00     0.000 O
ATOM     45  HD  GCT B   3      19.936  35.517  31.6760  0.00  0.00     0.000 HD
BRANCH 39 45
ATOM     45   C  GCT B   3      18.281  37.543  35.5020  0.00  0.00     0.000 C
ATOM     46   O  GCT B   3      18.221  37.956  36.7020  0.00  0.00     0.000 OA
ATOM     47   O  GCT B   3      17.717  36.504  35.1210  0.00  0.00     0.000 OA
ENDBRANCH 39 45
BRANCH 35 48
ATOM     48  O3  ASG B   4      21.025  36.121  35.8470  0.00  0.00     0.000 O
BRANCH 48 51
ATOM     49  C1  ASG B   4      23.915  35.504  38.0740  0.00  0.00     0.000 C
ATOM     50  C2  ASG B   4      22.840  35.263  37.0010  0.00  0.00     0.000 C
ATOM     51  C3  ASG B   4      22.106  36.555  36.6540  0.00  0.00     0.000 C
ATOM     52  C4  ASG B   4      21.621  37.266  37.9070  0.00  0.00     0.000 C
ATOM     53  C5  ASG B   4      22.817  37.461  38.8350  0.00  0.00     0.000 C
ATOM     54  O5  ASG B   4      23.353  36.172  39.1920  0.00  0.00     0.000 O
BRANCH 50 57
ATOM     55   N  ASG B   4      23.548  34.699  35.8750  0.00  0.00     0.000 N
ATOM     57  HD  ASG B   4      23.748  33.938  36.2340  0.00  0.00     0.000 HD
ATOM     57   O  ASG B   4      23.115  32.571  36.4200  0.00  0.00     0.000 OA
ATOM     58   C  ASG B   4      23.543  33.389  35.6120  0.00  0.00     0.000 C
ATOM     59   C  ASG B   4      24.139  32.990  34.2970  0.00  0.00     0.000 C
ENDBRANCH 50 57
BRANCH 52 60
ATOM     60   O  ASG B   4      20.570  36.359  38.4370  0.00  0.00     0.000 O
ATOM     61   O  ASG B   4      19.402  38.206  39.6440  0.00  0.00     0.000 OA
ATOM     62   O  ASG B   4      18.442  36.027  39.5970  0.00  0.00     0.000 OA
ATOM     63   O  ASG B   4      20.524  36.360  40.7270  0.00  0.00     0.000 OA
ATOM     64   S  ASG B   4      19.625  36.799  39.6550  0.00  0.00     0.000 S
ENDBRANCH 52 60
ATOM     65   O  ASG B   4      23.708  38.648  40.7530  0.00  0.00     0.000 O
ATOM     67  HD  ASG B   4      24.003  37.903  41.0810  0.00  0.00     0.000 HD
ATOM     67   O  ASG B   4      23.708  38.648  40.7530  0.00  0.00     0.000 O
ATOM     69  HD  ASG B   4      24.003  37.903  41.0810  0.00  0.00     0.000 HD
ENDBRANCH 48 51
ENDBRANCH 35 48
ENDBRANCH 34 38
ENDBRANCH 15 34
ENDBRANCH 14 17
ENDBRANCH 1 14
TORSDOF 12
ENDMDL
MODEL 9
REMARK VINA RESULT:      -8.1     22.621     28.162
ROOT
ATOM      1  C1  GAD B   1      22.011  25.801  53.6780  0.00  0.00     0.000 C
ATOM      2  C2  GAD B   1      23.018  24.790  54.2340  0.00  0.00     0.000 C
ATOM      3  C3  GAD B   1      23.529  23.882  53.1090  0.00  0.00     0.000 C
ATOM      4  C4  GAD B   1      22.507  23.607  52.0020  0.00  0.00     0.000 C
ATOM      5  C5  GAD B   1      21.309  24.217  51.9060  0.00  0.00     0.000 C
ATOM      6  O5  GAD B   1      20.961  25.152  52.9450  0.00  0.00     0.000 O
ATOM      7   O  GAD B   1      24.109  25.463  54.9650  0.00  0.00     0.000 O
ATOM      9  HD  GAD B   1      23.543  26.117  54.9240  0.00  0.00     0.000 HD
ATOM      9   O  GAD B   1      23.933  22.589  53.6110  0.00  0.00     0.000 O
ATOM     11  HD  GAD B   1      23.367  23.243  53.5700  0.00  0.00     0.000 HD
ENDROOT
BRANCH 5 11
ATOM     11   C  GAD B   1      20.359  24.038  50.7830  0.00  0.00     0.000 C
ATOM     12   O  GAD B   1      19.790  25.083  50.3380  0.00  0.00     0.000 OA
ATOM     13   O  GAD B   1      20.081  22.858  50.3540  0.00  0.00     0.000 OA
ENDBRANCH 5 11
BRANCH 1 14
ATOM     14  O3  ASG B   2      21.095  26.440  54.4290  0.00  0.00     0.000 O
BRANCH 14 17
ATOM     15  C1  ASG B   2      19.934  27.011  57.9800  0.00  0.00     0.000 C
ATOM     16  C2  ASG B   2      19.819  26.572  56.5130  0.00  0.00     0.000 C
ATOM     17  C3  ASG B   2      21.150  26.837  55.8040  0.00  0.00     0.000 C
ATOM     18  C4  ASG B   2      21.502  28.310  55.8950  0.00  0.00     0.000 C
ATOM     19  C5  ASG B   2      21.484  28.737  57.3600  0.00  0.00     0.000 C
ATOM     20  O5  ASG B   2      20.216  28.398  57.9570  0.00  0.00     0.000 O
ATOM     21   C  ASG B   2      21.656  30.212  57.5350  0.00  0.00     0.000 C
ATOM     22   O  ASG B   2      21.416  30.552  58.8790  0.00  0.00     0.000 O
ATOM     24  HD  ASG B   2      21.300  30.903  59.6620  0.00  0.00     0.000 HD
BRANCH 16 26
ATOM     24   N  ASG B   2      19.519  25.191  56.2140  0.00  0.00     0.000 N
ATOM     26  HD  ASG B   2      19.419  25.525  57.0070  0.00  0.00     0.000 HD
ATOM     26   C  ASG B   2      18.600  24.798  55.3120  0.00  0.00     0.000 C
ATOM     27   C  ASG B   2      18.666  23.371  54.8890  0.00  0.00     0.000 C
ATOM     28   O  ASG B   2      17.762  25.572  54.8680  0.00  0.00     0.000 OA
ENDBRANCH 16 26
BRANCH 18 29
ATOM     29   O  ASG B   2      20.511  29.026  55.0810  0.00  0.00     0.000 O
ATOM     30   O  ASG B   2      22.020  30.881  54.5120  0.00  0.00     0.000 OA
ATOM     31   O  ASG B   2      21.473  29.209  52.8400  0.00  0.00     0.000 OA
ATOM     32   O  ASG B   2      19.788  30.777  53.5800  0.00  0.00     0.000 OA
ATOM     33   S  ASG B   2      20.999  30.033  53.9270  0.00  0.00     0.000 S
ENDBRANCH 18 29
BRANCH 15 34
ATOM     34  O4  ASG B   3      18.766  26.805  58.7210  0.00  0.00     0.000 O
BRANCH 34 38
ATOM     35  C1  GCT B   3      19.889  28.658  62.1370  0.00  0.00     0.000 C
ATOM     36  C2  GCT B   3      20.053  27.154  62.1700  0.00  0.00     0.000 C
ATOM     37  C3  GCT B   3      20.039  26.577  60.7610  0.00  0.00     0.000 C
ATOM     38  C4  GCT B   3      18.707  26.927  60.0860  0.00  0.00     0.000 C
ATOM     39  C5  GCT B   3      18.176  28.308  60.5340  0.00  0.00     0.000 C
ATOM     40  O5  GCT B   3      19.307  29.075  60.9070  0.00  0.00     0.000 O
ATOM     41   O  GCT B   3      21.303  26.898  62.7950  0.00  0.00     0.000 O
ATOM     43  HD  GCT B   3      21.553  26.920  63.6240  0.00  0.00     0.000 HD
ATOM     43   O  GCT B   3      20.268  25.154  60.8450  0.00  0.00     0.000 O
ATOM     45  HD  GCT B   3      20.518  25.176  61.6740  0.00  0.00     0.000 HD
BRANCH 39 45
ATOM     45   C  GCT B   3      17.149  28.358  61.6450  0.00  0.00     0.000 C
ATOM     46   O  GCT B   3      16.655  29.476  61.9920  0.00  0.00     0.000 OA
ATOM     47   O  GCT B   3      16.816  27.284  62.1720  0.00  0.00     0.000 OA
ENDBRANCH 39 45
BRANCH 35 48
ATOM     48  O3  ASG B   4      19.641  29.095  63.3540  0.00  0.00     0.000 O
BRANCH 48 51
ATOM     49  C1  ASG B   4      21.318  32.393  63.3660  0.00  0.00     0.000 C
ATOM     50  C2  ASG B   4      21.098  30.884  63.1650  0.00  0.00     0.000 C
ATOM     51  C3  ASG B   4      19.628  30.512  63.3410  0.00  0.00     0.000 C
ATOM     52  C4  ASG B   4      19.068  31.080  64.6340  0.00  0.00     0.000 C
ATOM     53  C5  ASG B   4      19.332  32.583  64.6460  0.00  0.00     0.000 C
ATOM     54  O5  ASG B   4      20.754  32.812  64.5980  0.00  0.00     0.000 O
BRANCH 50 57
ATOM     55   N  ASG B   4      22.129  30.496  64.1000  0.00  0.00     0.000 N
ATOM     57  HD  ASG B   4      22.543  29.934  63.5880  0.00  0.00     0.000 HD
ATOM     57   O  ASG B   4      23.625  29.955  62.5240  0.00  0.00     0.000 OA
ATOM     58   C  ASG B   4      23.360  30.157  63.7050  0.00  0.00     0.000 C
ATOM     59   C  ASG B   4      24.368  29.990  64.8000  0.00  0.00     0.000 C
ENDBRANCH 50 57
BRANCH 52 60
ATOM     60   O  ASG B   4      19.785  30.318  65.6890  0.00  0.00     0.000 O
ATOM     61   O  ASG B   4      17.869  28.759  66.0460  0.00  0.00     0.000 OA
ATOM     62   O  ASG B   4      19.925  28.390  67.1880  0.00  0.00     0.000 OA
ATOM     63   O  ASG B   4      18.654  30.355  67.6800  0.00  0.00     0.000 OA
ATOM     64   S  ASG B   4      19.003  29.336  66.6860  0.00  0.00     0.000 S
ENDBRANCH 52 60
ATOM     65   O  ASG B   4      18.762  34.723  65.6350  0.00  0.00     0.000 O
ATOM     67  HD  ASG B   4      19.602  34.914  65.7130  0.00  0.00     0.000 HD
ATOM     67   O  ASG B   4      18.762  34.723  65.6350  0.00  0.00     0.000 O
ATOM     69  HD  ASG B   4      19.602  34.914  65.7130  0.00  0.00     0.000 HD
ENDBRANCH 48 51
ENDBRANCH 35 48
ENDBRANCH 34 38
ENDBRANCH 15 34
ENDBRANCH 14 17
ENDBRANCH 1 14
TORSDOF 12
ENDMDL
MODEL 10
REMARK VINA RESULT:      -8.0      7.428     10.966
ROOT
ATOM      1  C1  GAD B   1      17.850  27.126  33.6110  0.00  0.00     0.000 C
ATOM      2  C2  GAD B   1      17.002  27.574  34.8050  0.00  0.00     0.000 C
ATOM      3  C3  GAD B   1      15.523  27.643  34.4050  0.00  0.00     0.000 C
ATOM      4  C4  GAD B   1      15.278  28.027  32.9430  0.00  0.00     0.000 C
ATOM      5  C5  GAD B   1      16.250  28.147  32.0170  0.00  0.00     0.000 C
ATOM      6  O5  GAD B   1      17.607  27.943  32.4560  0.00  0.00     0.000 O
ATOM      7   O  GAD B   1      17.236  26.716  35.9830  0.00  0.00     0.000 O
ATOM      9  HD  GAD B   1      17.921  26.487  35.5050  0.00  0.00     0.000 HD
ATOM      9   O  GAD B   1      14.803  28.611  35.2000  0.00  0.00     0.000 O
ATOM     11  HD  GAD B   1      15.487  28.382  34.7220  0.00  0.00     0.000 HD
ENDROOT
BRANCH 5 11
ATOM     11   C  GAD B   1      16.016  28.414  30.5790  0.00  0.00     0.000 C
ATOM     12   O  GAD B   1      16.856  29.162  29.9880  0.00  0.00     0.000 OA
ATOM     13   O  GAD B   1      14.958  27.964  30.0020  0.00  0.00     0.000 OA
ENDBRANCH 5 11
BRANCH 1 14
ATOM     14  O3  ASG B   2      19.171  27.356  33.4990  0.00  0.00     0.000 O
BRANCH 14 17
ATOM     15  C1  ASG B   2      22.215  29.082  34.9260  0.00  0.00     0.000 C
ATOM     16  C2  ASG B   2      21.243  28.616  33.8330  0.00  0.00     0.000 C
ATOM     17  C3  ASG B   2      20.110  27.813  34.4800  0.00  0.00     0.000 C
ATOM     18  C4  ASG B   2      20.681  26.625  35.2310  0.00  0.00     0.000 C
ATOM     19  C5  ASG B   2      21.733  27.118  36.2190  0.00  0.00     0.000 C
ATOM     20  O5  ASG B   2      22.723  27.908  35.5320  0.00  0.00     0.000 O
ATOM     21   C  ASG B   2      22.468  26.001  36.8880  0.00  0.00     0.000 C
ATOM     22   O  ASG B   2      23.553  26.526  37.6130  0.00  0.00     0.000 O
ATOM     24  HD  ASG B   2      24.247  26.706  38.0990  0.00  0.00     0.000 HD
BRANCH 16 26
ATOM     24   N  ASG B   2      20.816  29.694  32.9720  0.00  0.00     0.000 N
ATOM     26  HD  ASG B   2      21.598  29.681  33.3430  0.00  0.00     0.000 HD
ATOM     26   C  ASG B   2      20.461  29.533  31.6840  0.00  0.00     0.000 C
ATOM     27   C  ASG B   2      19.731  30.672  31.0580  0.00  0.00     0.000 C
ATOM     28   O  ASG B   2      20.725  28.509  31.0660  0.00  0.00     0.000 OA
ENDBRANCH 16 26
BRANCH 18 29
ATOM     29   O  ASG B   2      21.233  25.716  34.2170  0.00  0.00     0.000 O
ATOM     30   O  ASG B   2      20.780  23.674  35.5070  0.00  0.00     0.000 OA
ATOM     31   O  ASG B   2      19.410  24.217  33.5780  0.00  0.00     0.000 OA
ATOM     32   O  ASG B   2      21.712  23.543  33.2760  0.00  0.00     0.000 OA
ATOM     33   S  ASG B   2      20.735  24.190  34.1520  0.00  0.00     0.000 S
ENDBRANCH 18 29
BRANCH 15 34
ATOM     34  O4  ASG B   3      23.290  29.834  34.4380  0.00  0.00     0.000 O
BRANCH 34 38
ATOM     35  C1  GCT B   3      22.381  33.724  35.0740  0.00  0.00     0.000 C
ATOM     36  C2  GCT B   3      23.717  33.506  34.3970  0.00  0.00     0.000 C
ATOM     37  C3  GCT B   3      23.801  32.107  33.8030  0.00  0.00     0.000 C
ATOM     38  C4  GCT B   3      23.625  31.073  34.9210  0.00  0.00     0.000 C
ATOM     39  C5  GCT B   3      22.651  31.564  36.0160  0.00  0.00     0.000 C
ATOM     40  O5  GCT B   3      21.768  32.479  35.3920  0.00  0.00     0.000 O
ATOM     41   O  GCT B   3      23.813  34.484  33.3710  0.00  0.00     0.000 O
ATOM     43  HD  GCT B   3      23.988  35.332  33.3920  0.00  0.00     0.000 HD
ATOM     43   O  GCT B   3      25.062  31.977  33.1120  0.00  0.00     0.000 O
ATOM     45  HD  GCT B   3      25.237  32.825  33.1330  0.00  0.00     0.000 HD
BRANCH 39 45
ATOM     45   C  GCT B   3      23.229  32.198  37.2620  0.00  0.00     0.000 C
ATOM     46   O  GCT B   3      22.448  32.621  38.1720  0.00  0.00     0.000 OA
ATOM     47   O  GCT B   3      24.466  32.269  37.3540  0.00  0.00     0.000 OA
ENDBRANCH 39 45
BRANCH 35 48
ATOM     48  O3  ASG B   4      22.433  34.822  35.7960  0.00  0.00     0.000 O
BRANCH 48 51
ATOM     49  C1  ASG B   4      20.586  37.975  35.2160  0.00  0.00     0.000 C
ATOM     50  C2  ASG B   4      21.741  36.960  35.2390  0.00  0.00     0.000 C
ATOM     51  C3  ASG B   4      21.241  35.563  35.5950  0.00  0.00     0.000 C
ATOM     52  C4  ASG B   4      20.378  35.589  36.8460  0.00  0.00     0.000 C
ATOM     53  C5  ASG B   4      19.265  36.611  36.6330  0.00  0.00     0.000 C
ATOM     54  O5  ASG B   4      19.850  37.911  36.4270  0.00  0.00     0.000 O
BRANCH 50 57
ATOM     55   N  ASG B   4      22.140  37.287  33.8890  0.00  0.00     0.000 N
ATOM     57  HD  ASG B   4      22.552  38.028  34.0670  0.00  0.00     0.000 HD
ATOM     57   O  ASG B   4      23.934  38.479  34.5020  0.00  0.00     0.000 OA
ATOM     58   C  ASG B   4      23.274  37.940  33.6190  0.00  0.00     0.000 C
ATOM     59   C  ASG B   4      23.650  38.012  32.1710  0.00  0.00     0.000 C
ENDBRANCH 50 57
BRANCH 52 60
ATOM     60   O  ASG B   4      21.340  35.939  37.9240  0.00  0.00     0.000 O
ATOM     61   O  ASG B   4      20.126  34.575  39.6260  0.00  0.00     0.000 OA
ATOM     62   O  ASG B   4      22.193  35.612  40.1930  0.00  0.00     0.000 OA
ATOM     63   O  ASG B   4      20.303  36.984  39.6790  0.00  0.00     0.000 OA
ATOM     64   S  ASG B   4      20.983  35.702  39.4690  0.00  0.00     0.000 S
ENDBRANCH 52 60
ATOM     65   O  ASG B   4      17.102  37.418  37.3750  0.00  0.00     0.000 O
ATOM     67  HD  ASG B   4      17.394  38.233  37.3490  0.00  0.00     0.000 HD
ATOM     67   O  ASG B   4      17.102  37.418  37.3750  0.00  0.00     0.000 O
ATOM     69  HD  ASG B   4      17.394  38.233  37.3490  0.00  0.00     0.000 HD
ENDBRANCH 48 51
ENDBRANCH 35 48
ENDBRANCH 34 38
ENDBRANCH 15 34
ENDBRANCH 14 17
ENDBRANCH 1 14
TORSDOF 12
ENDMDL
MODEL 11
REMARK VINA RESULT:      -8.0     22.304     29.174
ROOT
ATOM      1  C1  GAD B   1      16.516  27.900  63.9600  0.00  0.00     0.000 C
ATOM      2  C2  GAD B   1      15.531  27.462  62.8710  0.00  0.00     0.000 C
ATOM      3  C3  GAD B   1      14.382  26.660  63.4930  0.00  0.00     0.000 C
ATOM      4  C4  GAD B   1      14.775  25.838  64.7240  0.00  0.00     0.000 C
ATOM      5  C5  GAD B   1      15.975  25.910  65.3330  0.00  0.00     0.000 C
ATOM      6  O5  GAD B   1      16.958  26.787  64.7510  0.00  0.00     0.000 O
ATOM      7   O  GAD B   1      15.061  28.613  62.0770  0.00  0.00     0.000 O
ATOM      9  HD  GAD B   1      15.743  28.980  62.4650  0.00  0.00     0.000 HD
ATOM      9   O  GAD B   1      13.817  25.723  62.5490  0.00  0.00     0.000 O
ATOM     11  HD  GAD B   1      14.499  26.090  62.9370  0.00  0.00     0.000 HD
ENDROOT
BRANCH 5 11
ATOM     11   C  GAD B   1      16.329  25.200  66.5850  0.00  0.00     0.000 C
ATOM     12   O  GAD B   1      16.659  25.918  67.5790  0.00  0.00     0.000 OA
ATOM     13   O  GAD B   1      16.370  23.915  66.6090  0.00  0.00     0.000 OA
ENDBRANCH 5 11
BRANCH 1 14
ATOM     14  O3  ASG B   2      17.796  28.242  63.7220  0.00  0.00     0.000 O
BRANCH 14 17
ATOM     15  C1  ASG B   2      20.147  29.795  61.2030  0.00  0.00     0.000 C
ATOM     16  C2  ASG B   2      19.616  28.714  62.1550  0.00  0.00     0.000 C
ATOM     17  C3  ASG B   2      18.334  29.219  62.8230  0.00  0.00     0.000 C
ATOM     18  C4  ASG B   2      18.615  30.505  63.5770  0.00  0.00     0.000 C
ATOM     19  C5  ASG B   2      19.256  31.511  62.6260  0.00  0.00     0.000 C
ATOM     20  O5  ASG B   2      20.419  30.929  62.0050  0.00  0.00     0.000 O
ATOM     21   C  ASG B   2      19.720  32.751  63.3210  0.00  0.00     0.000 C
ATOM     22   O  ASG B   2      20.483  33.527  62.4300  0.00  0.00     0.000 O
ATOM     24  HD  ASG B   2      20.964  34.101  61.9960  0.00  0.00     0.000 HD
BRANCH 16 26
ATOM     24   N  ASG B   2      19.322  27.420  61.5850  0.00  0.00     0.000 N
ATOM     26  HD  ASG B   2      19.834  27.995  61.1880  0.00  0.00     0.000 HD
ATOM     26   C  ASG B   2      19.624  26.249  62.1770  0.00  0.00     0.000 C
ATOM     27   C  ASG B   2      18.951  25.041  61.6220  0.00  0.00     0.000 C
ATOM     28   O  ASG B   2      20.406  26.186  63.1170  0.00  0.00     0.000 OA
ENDBRANCH 16 26
BRANCH 18 29
ATOM     29   O  ASG B   2      19.490  30.146  64.7020  0.00  0.00     0.000 O
ATOM     30   O  ASG B   2      18.505  31.780  66.2520  0.00  0.00     0.000 OA
ATOM     31   O  ASG B   2      18.013  29.417  66.5100  0.00  0.00     0.000 OA
ATOM     32   O  ASG B   2      20.228  30.252  67.0000  0.00  0.00     0.000 OA
ATOM     33   S  ASG B   2      19.008  30.420  66.2110  0.00  0.00     0.000 S
ENDBRANCH 18 29
BRANCH 15 34
ATOM     34  O4  ASG B   3      21.320  29.428  60.5350  0.00  0.00     0.000 O
BRANCH 34 38
ATOM     35  C1  GCT B   3      21.930  27.816  56.8750  0.00  0.00     0.000 C
ATOM     36  C2  GCT B   3      22.896  28.926  57.2280  0.00  0.00     0.000 C
ATOM     37  C3  GCT B   3      22.905  29.180  58.7290  0.00  0.00     0.000 C
ATOM     38  C4  GCT B   3      21.493  29.573  59.1810  0.00  0.00     0.000 C
ATOM     39  C5  GCT B   3      20.399  28.849  58.3640  0.00  0.00     0.000 C
ATOM     40  O5  GCT B   3      20.971  27.634  57.9110  0.00  0.00     0.000 O
ATOM     41   O  GCT B   3      24.179  28.497  56.7940  0.00  0.00     0.000 O
ATOM     43  HD  GCT B   3      24.544  28.460  56.0090  0.00  0.00     0.000 HD
ATOM     43   O  GCT B   3      23.889  30.194  59.0180  0.00  0.00     0.000 O
ATOM     45  HD  GCT B   3      24.255  30.157  58.2330  0.00  0.00     0.000 HD
BRANCH 39 45
ATOM     45   C  GCT B   3      19.777  29.576  57.1930  0.00  0.00     0.000 C
ATOM     46   O  GCT B   3      20.019  30.812  57.0210  0.00  0.00     0.000 OA
ATOM     47   O  GCT B   3      19.052  28.922  56.4250  0.00  0.00     0.000 OA
ENDBRANCH 39 45
BRANCH 35 48
ATOM     48  O3  ASG B   4      21.746  27.797  55.5730  0.00  0.00     0.000 O
BRANCH 48 51
ATOM     49  C1  ASG B   4      22.802  25.624  52.7700  0.00  0.00     0.000 C
ATOM     50  C2  ASG B   4      22.438  26.895  53.5550  0.00  0.00     0.000 C
ATOM     51  C3  ASG B   4      22.297  26.602  55.0460  0.00  0.00     0.000 C
ATOM     52  C4  ASG B   4      21.387  25.409  55.2890  0.00  0.00     0.000 C
ATOM     53  C5  ASG B   4      21.918  24.233  54.4730  0.00  0.00     0.000 C
ATOM     54  O5  ASG B   4      21.892  24.580  53.0750  0.00  0.00     0.000 O
BRANCH 50 57
ATOM     55   N  ASG B   4      22.754  28.293  53.7400  0.00  0.00     0.000 N
ATOM     57  HD  ASG B   4      23.013  28.460  52.9310  0.00  0.00     0.000 HD
ATOM     57   O  ASG B   4      22.395  28.856  51.6030  0.00  0.00     0.000 OA
ATOM     58   C  ASG B   4      22.606  29.193  52.7640  0.00  0.00     0.000 C
ATOM     59   C  ASG B   4      22.767  30.625  53.1730  0.00  0.00     0.000 C
ENDBRANCH 50 57
BRANCH 52 60
ATOM     60   O  ASG B   4      20.050  25.900  54.8670  0.00  0.00     0.000 O
ATOM     61   O  ASG B   4      18.848  24.262  56.3170  0.00  0.00     0.000 OA
ATOM     62   O  ASG B   4      17.618  25.918  55.1270  0.00  0.00     0.000 OA
ATOM     63   O  ASG B   4      18.802  24.240  53.9020  0.00  0.00     0.000 OA
ATOM     64   S  ASG B   4      18.724  25.038  55.1290  0.00  0.00     0.000 S
ENDBRANCH 52 60
ATOM     65   O  ASG B   4      21.885  21.831  54.1420  0.00  0.00     0.000 O
ATOM     67  HD  ASG B   4      21.794  21.947  53.2890  0.00  0.00     0.000 HD
ATOM     67   O  ASG B   4      21.885  21.831  54.1420  0.00  0.00     0.000 O
ATOM     69  HD  ASG B   4      21.794  21.947  53.2890  0.00  0.00     0.000 HD
ENDBRANCH 48 51
ENDBRANCH 35 48
ENDBRANCH 34 38
ENDBRANCH 15 34
ENDBRANCH 14 17
ENDBRANCH 1 14
TORSDOF 12
ENDMDL
MODEL 12
REMARK VINA RESULT:      -7.9     28.854     35.066
ROOT
ATOM      1  C1  GAD B   1      18.312  19.594  63.5700  0.00  0.00     0.000 C
ATOM      2  C2  GAD B   1      17.487  18.401  63.0790  0.00  0.00     0.000 C
ATOM      3  C3  GAD B   1      17.068  18.614  61.6200  0.00  0.00     0.000 C
ATOM      4  C4  GAD B   1      16.837  20.078  61.2330  0.00  0.00     0.000 C
ATOM      5  C5  GAD B   1      17.119  21.127  62.0310  0.00  0.00     0.000 C
ATOM      6  O5  GAD B   1      17.628  20.836  63.3460  0.00  0.00     0.000 O
ATOM      7   O  GAD B   1      18.204  17.128  63.2880  0.00  0.00     0.000 O
ATOM      9  HD  GAD B   1      18.678  17.641  63.8000  0.00  0.00     0.000 HD
ATOM      9   O  GAD B   1      15.838  17.920  61.3130  0.00  0.00     0.000 O
ATOM     11  HD  GAD B   1      16.311  18.433  61.8260  0.00  0.00     0.000 HD
ENDROOT
BRANCH 5 11
ATOM     11   C  GAD B   1      17.000  22.548  61.6280  0.00  0.00     0.000 C
ATOM     12   O  GAD B   1      16.169  22.817  60.7060  0.00  0.00     0.000 OA
ATOM     13   O  GAD B   1      17.773  23.434  62.1490  0.00  0.00     0.000 OA
ENDBRANCH 5 11
BRANCH 1 14
ATOM     14  O3  ASG B   2      18.474  19.913  64.8670  0.00  0.00     0.000 O
BRANCH 14 17
ATOM     15  C1  ASG B   2      17.882  22.825  67.2030  0.00  0.00     0.000 C
ATOM     16  C2  ASG B   2      18.703  21.846  66.3500  0.00  0.00     0.000 C
ATOM     17  C3  ASG B   2      17.754  20.849  65.6790  0.00  0.00     0.000 C
ATOM     18  C4  ASG B   2      16.958  20.102  66.7320  0.00  0.00     0.000 C
ATOM     19  C5  ASG B   2      16.257  21.112  67.6360  0.00  0.00     0.000 C
ATOM     20  O5  ASG B   2      17.218  22.040  68.1760  0.00  0.00     0.000 O
ATOM     21   C  ASG B   2      15.580  20.471  68.8050  0.00  0.00     0.000 C
ATOM     22   O  ASG B   2      15.146  21.469  69.6960  0.00  0.00     0.000 O
ATOM     24  HD  ASG B   2      14.824  21.968  70.3260  0.00  0.00     0.000 HD
BRANCH 16 26
ATOM     24   N  ASG B   2      19.584  22.486  65.4010  0.00  0.00     0.000 N
ATOM     26  HD  ASG B   2      19.336  22.873  66.1340  0.00  0.00     0.000 HD
ATOM     26   C  ASG B   2      20.784  21.995  65.0390  0.00  0.00     0.000 C
ATOM     27   C  ASG B   2      21.393  22.589  63.8150  0.00  0.00     0.000 C
ATOM     28   O  ASG B   2      21.339  21.111  65.6800  0.00  0.00     0.000 OA
ENDBRANCH 16 26
BRANCH 18 29
ATOM     29   O  ASG B   2      17.915  19.257  67.4580  0.00  0.00     0.000 O
ATOM     30   O  ASG B   2      16.298  17.459  67.9050  0.00  0.00     0.000 OA
ATOM     31   O  ASG B   2      18.028  17.145  66.2300  0.00  0.00     0.000 OA
ATOM     32   O  ASG B   2      18.614  17.231  68.5740  0.00  0.00     0.000 OA
ATOM     33   S  ASG B   2      17.685  17.668  67.5320  0.00  0.00     0.000 S
ENDBRANCH 18 29
BRANCH 15 34
ATOM     34  O4  ASG B   3      18.659  23.786  67.8580  0.00  0.00     0.000 O
BRANCH 34 38
ATOM     35  C1  GCT B   3      18.668  27.223  65.7250  0.00  0.00     0.000 C
ATOM     36  C2  GCT B   3      19.374  27.325  67.0600  0.00  0.00     0.000 C
ATOM     37  C3  GCT B   3      19.716  25.943  67.5980  0.00  0.00     0.000 C
ATOM     38  C4  GCT B   3      18.424  25.135  67.7690  0.00  0.00     0.000 C
ATOM     39  C5  GCT B   3      17.376  25.482  66.6870  0.00  0.00     0.000 C
ATOM     40  O5  GCT B   3      18.098  25.930  65.5530  0.00  0.00     0.000 O
ATOM     41   O  GCT B   3      20.561  28.072  66.8320  0.00  0.00     0.000 O
ATOM     43  HD  GCT B   3      20.701  28.919  66.7190  0.00  0.00     0.000 HD
ATOM     43   O  GCT B   3      20.447  26.098  68.8330  0.00  0.00     0.000 O
ATOM     45  HD  GCT B   3      20.588  26.945  68.7200  0.00  0.00     0.000 HD
BRANCH 39 45
ATOM     45   C  GCT B   3      16.299  26.489  67.0250  0.00  0.00     0.000 C
ATOM     46   O  GCT B   3      16.416  27.206  68.0680  0.00  0.00     0.000 OA
ATOM     47   O  GCT B   3      15.334  26.587  66.2480  0.00  0.00     0.000 OA
ENDBRANCH 39 45
BRANCH 35 48
ATOM     48  O3  ASG B   4      18.156  28.395  65.4140  0.00  0.00     0.000 O
BRANCH 48 51
ATOM     49  C1  ASG B   4      18.904  30.970  62.8650  0.00  0.00     0.000 C
ATOM     50  C2  ASG B   4      18.591  30.337  64.2310  0.00  0.00     0.000 C
ATOM     51  C3  ASG B   4      18.688  28.815  64.1700  0.00  0.00     0.000 C
ATOM     52  C4  ASG B   4      17.890  28.259  63.0010  0.00  0.00     0.000 C
ATOM     53  C5  ASG B   4      18.358  28.962  61.7300  0.00  0.00     0.000 C
ATOM     54  O5  ASG B   4      18.107  30.376  61.8530  0.00  0.00     0.000 O
BRANCH 50 57
ATOM     55   N  ASG B   4      19.408  30.748  65.3490  0.00  0.00     0.000 N
ATOM     57  HD  ASG B   4      19.219  31.593  65.3250  0.00  0.00     0.000 HD
ATOM     57   O  ASG B   4      18.152  32.530  65.8600  0.00  0.00     0.000 OA
ATOM     58   C  ASG B   4      19.065  31.762  66.1490  0.00  0.00     0.000 C
ATOM     59   C  ASG B   4      19.900  31.926  67.3820  0.00  0.00     0.000 C
ENDBRANCH 50 57
BRANCH 52 60
ATOM     60   O  ASG B   4      16.481  28.538  63.3780  0.00  0.00     0.000 O
ATOM     61   O  ASG B   4      15.681  26.332  62.5280  0.00  0.00     0.000 OA
ATOM     62   O  ASG B   4      14.172  27.782  63.6640  0.00  0.00     0.000 OA
ATOM     63   O  ASG B   4      15.086  28.465  61.5630  0.00  0.00     0.000 OA
ATOM     64   S  ASG B   4      15.271  27.672  62.7820  0.00  0.00     0.000 S
ENDBRANCH 52 60
ATOM     65   O  ASG B   4      18.409  28.921  59.3060  0.00  0.00     0.000 O
ATOM     67  HD  ASG B   4      18.187  29.757  59.2840  0.00  0.00     0.000 HD
ATOM     67   O  ASG B   4      18.409  28.921  59.3060  0.00  0.00     0.000 O
ATOM     69  HD  ASG B   4      18.187  29.757  59.2840  0.00  0.00     0.000 HD
ENDBRANCH 48 51
ENDBRANCH 35 48
ENDBRANCH 34 38
ENDBRANCH 15 34
ENDBRANCH 14 17
ENDBRANCH 1 14
TORSDOF 12
ENDMDL
MODEL 13
REMARK VINA RESULT:      -7.8      3.298      6.154
ROOT
ATOM      1  C1  GAD B   1      18.161  45.337  34.3520  0.00  0.00     0.000 C
ATOM      2  C2  GAD B   1      18.629  46.721  33.8920  0.00  0.00     0.000 C
ATOM      3  C3  GAD B   1      19.061  47.559  35.1010  0.00  0.00     0.000 C
ATOM      4  C4  GAD B   1      18.289  47.262  36.3890  0.00  0.00     0.000 C
ATOM      5  C5  GAD B   1      17.410  46.250  36.5300  0.00  0.00     0.000 C
ATOM      6  O5  GAD B   1      17.155  45.432  35.3720  0.00  0.00     0.000 O
ATOM      7   O  GAD B   1      19.680  46.618  32.8620  0.00  0.00     0.000 O
ATOM      9  HD  GAD B   1      19.383  45.805  32.8400  0.00  0.00     0.000 HD
ATOM      9   O  GAD B   1      18.896  48.973  34.8530  0.00  0.00     0.000 O
ATOM     11  HD  GAD B   1      18.599  48.160  34.8310  0.00  0.00     0.000 HD
ENDROOT
BRANCH 5 11
ATOM     11   C  GAD B   1      16.737  45.888  37.8000  0.00  0.00     0.000 C
ATOM     12   O  GAD B   1      16.414  44.669  37.9530  0.00  0.00     0.000 OA
ATOM     13   O  GAD B   1      16.434  46.801  38.6540  0.00  0.00     0.000 OA
ENDBRANCH 5 11
BRANCH 1 14
ATOM     14  O3  ASG B   2      17.355  44.537  33.6290  0.00  0.00     0.000 O
BRANCH 14 17
ATOM     15  C1  ASG B   2      16.886  40.792  33.4420  0.00  0.00     0.000 C
ATOM     16  C2  ASG B   2      17.479  42.158  33.0690  0.00  0.00     0.000 C
ATOM     17  C3  ASG B   2      16.831  43.240  33.9380  0.00  0.00     0.000 C
ATOM     18  C4  ASG B   2      15.328  43.237  33.7340  0.00  0.00     0.000 C
ATOM     19  C5  ASG B   2      14.793  41.832  33.9940  0.00  0.00     0.000 C
ATOM     20  O5  ASG B   2      15.498  40.877  33.1750  0.00  0.00     0.000 O
ATOM     21   C  ASG B   2      13.343  41.692  33.6560  0.00  0.00     0.000 C
ATOM     22   O  ASG B   2      12.980  40.335  33.7160  0.00  0.00     0.000 O
ATOM     24  HD  ASG B   2      12.618  39.548  33.7160  0.00  0.00     0.000 HD
BRANCH 16 26
ATOM     24   N  ASG B   2      18.923  42.196  33.1080  0.00  0.00     0.000 N
ATOM     26  HD  ASG B   2      18.483  41.467  32.9480  0.00  0.00     0.000 HD
ATOM     26   C  ASG B   2      19.678  42.953  32.2900  0.00  0.00     0.000 C
ATOM     27   C  ASG B   2      21.103  43.129  32.6910  0.00  0.00     0.000 C
ATOM     28   O  ASG B   2      19.217  43.465  31.2780  0.00  0.00     0.000 OA
ENDBRANCH 16 26
BRANCH 18 29
ATOM     29   O  ASG B   2      15.092  43.691  32.3570  0.00  0.00     0.000 O
ATOM     30   O  ASG B   2      12.993  44.855  32.8860  0.00  0.00     0.000 OA
ATOM     31   O  ASG B   2      15.010  46.133  32.4480  0.00  0.00     0.000 OA
ATOM     32   O  ASG B   2      13.921  44.938  30.6510  0.00  0.00     0.000 OA
ATOM     33   S  ASG B   2      14.196  44.997  32.0870  0.00  0.00     0.000 S
ENDBRANCH 18 29
BRANCH 15 34
ATOM     34  O4  ASG B   3      17.418  39.729  32.7050  0.00  0.00     0.000 O
BRANCH 34 38
ATOM     35  C1  GCT B   3      20.213  37.701  34.8120  0.00  0.00     0.000 C
ATOM     36  C2  GCT B   3      19.821  37.036  33.5100  0.00  0.00     0.000 C
ATOM     37  C3  GCT B   3      19.127  38.025  32.5850  0.00  0.00     0.000 C
ATOM     38  C4  GCT B   3      17.870  38.566  33.2770  0.00  0.00     0.000 C
ATOM     39  C5  GCT B   3      18.059  38.694  34.8060  0.00  0.00     0.000 C
ATOM     40  O5  GCT B   3      19.446  38.881  35.0270  0.00  0.00     0.000 O
ATOM     41   O  GCT B   3      21.024  36.568  32.9180  0.00  0.00     0.000 O
ATOM     43  HD  GCT B   3      21.528  35.885  33.0880  0.00  0.00     0.000 HD
ATOM     43   O  GCT B   3      18.838  37.361  31.3360  0.00  0.00     0.000 O
ATOM     45  HD  GCT B   3      19.341  36.678  31.5070  0.00  0.00     0.000 HD
BRANCH 39 45
ATOM     45   C  GCT B   3      17.558  37.573  35.6890  0.00  0.00     0.000 C
ATOM     46   O  GCT B   3      17.559  37.720  36.9520  0.00  0.00     0.000 OA
ATOM     47   O  GCT B   3      17.145  36.541  35.1350  0.00  0.00     0.000 OA
ENDBRANCH 39 45
BRANCH 35 48
ATOM     48  O3  ASG B   4      20.564  36.779  35.6830  0.00  0.00     0.000 O
BRANCH 48 51
ATOM     49  C1  ASG B   4      23.776  36.276  37.4490  0.00  0.00     0.000 C
ATOM     50  C2  ASG B   4      22.609  36.038  36.4770  0.00  0.00     0.000 C
ATOM     51  C3  ASG B   4      21.678  37.246  36.4250  0.00  0.00     0.000 C
ATOM     52  C4  ASG B   4      21.276  37.692  37.8210  0.00  0.00     0.000 C
ATOM     53  C5  ASG B   4      22.549  37.924  38.6300  0.00  0.00     0.000 C
ATOM     54  O5  ASG B   4      23.286  36.689  38.7150  0.00  0.00     0.000 O
BRANCH 50 57
ATOM     55   N  ASG B   4      22.403  34.776  37.1500  0.00  0.00     0.000 N
ATOM     57  HD  ASG B   4      22.291  34.286  36.4450  0.00  0.00     0.000 HD
ATOM     57   O  ASG B   4      23.145  33.525  35.4470  0.00  0.00     0.000 OA
ATOM     58   C  ASG B   4      22.788  33.612  36.6180  0.00  0.00     0.000 C
ATOM     59   C  ASG B   4      22.702  32.424  37.5260  0.00  0.00     0.000 C
ENDBRANCH 50 57
BRANCH 52 60
ATOM     60   O  ASG B   4      20.427  36.575  38.3110  0.00  0.00     0.000 O
ATOM     61   O  ASG B   4      19.176  38.049  39.8900  0.00  0.00     0.000 OA
ATOM     62   O  ASG B   4      18.518  35.777  39.6150  0.00  0.00     0.000 OA
ATOM     63   O  ASG B   4      20.656  36.265  40.5690  0.00  0.00     0.000 OA
ATOM     64   S  ASG B   4      19.585  36.702  39.6690  0.00  0.00     0.000 S
ENDBRANCH 52 60
ATOM     65   O  ASG B   4      23.526  38.941  40.6030  0.00  0.00     0.000 O
ATOM     67  HD  ASG B   4      23.954  38.208  40.7720  0.00  0.00     0.000 HD
ATOM     67   O  ASG B   4      23.526  38.941  40.6030  0.00  0.00     0.000 O
ATOM     69  HD  ASG B   4      23.954  38.208  40.7720  0.00  0.00     0.000 HD
ENDBRANCH 48 51
ENDBRANCH 35 48
ENDBRANCH 34 38
ENDBRANCH 15 34
ENDBRANCH 14 17
ENDBRANCH 1 14
TORSDOF 12
ENDMDL
MODEL 14
REMARK VINA RESULT:      -7.8     38.034     42.214
ROOT
ATOM      1  C1  GAD B   1       4.055  50.572  76.4320  0.00  0.00     0.000 C
ATOM      2  C2  GAD B   1       2.862  49.762  75.9160  0.00  0.00     0.000 C
ATOM      3  C3  GAD B   1       2.726  48.459  76.7130  0.00  0.00     0.000 C
ATOM      4  C4  GAD B   1       4.053  47.876  77.2080  0.00  0.00     0.000 C
ATOM      5  C5  GAD B   1       5.241  48.504  77.1100  0.00  0.00     0.000 C
ATOM      6  O5  GAD B   1       5.256  49.786  76.4530  0.00  0.00     0.000 O
ATOM      7   O  GAD B   1       1.625  50.566  75.9180  0.00  0.00     0.000 O
ATOM      9  HD  GAD B   1       2.205  51.202  76.0080  0.00  0.00     0.000 HD
ATOM      9   O  GAD B   1       2.100  47.419  75.9280  0.00  0.00     0.000 O
ATOM     11  HD  GAD B   1       2.680  48.056  76.0180  0.00  0.00     0.000 HD
ENDROOT
BRANCH 5 11
ATOM     11   C  GAD B   1       6.512  47.998  77.6800  0.00  0.00     0.000 C
ATOM     12   O  GAD B   1       6.611  47.987  78.9460  0.00  0.00     0.000 OA
ATOM     13   O  GAD B   1       7.482  47.669  76.9030  0.00  0.00     0.000 OA
ENDBRANCH 5 11
BRANCH 1 14
ATOM     14  O3  ASG B   2       4.686  51.521  75.7140  0.00  0.00     0.000 O
BRANCH 14 17
ATOM     15  C1  ASG B   2       4.131  53.258  72.4050  0.00  0.00     0.000 C
ATOM     16  C2  ASG B   2       4.730  52.227  73.3720  0.00  0.00     0.000 C
ATOM     17  C3  ASG B   2       4.159  52.463  74.7730  0.00  0.00     0.000 C
ATOM     18  C4  ASG B   2       4.476  53.873  75.2320  0.00  0.00     0.000 C
ATOM     19  C5  ASG B   2       3.975  54.863  74.1840  0.00  0.00     0.000 C
ATOM     20  O5  ASG B   2       4.519  54.530  72.8920  0.00  0.00     0.000 O
ATOM     21   C  ASG B   2       4.391  56.270  74.4710  0.00  0.00     0.000 C
ATOM     22   O  ASG B   2       4.080  57.082  73.3650  0.00  0.00     0.000 O
ATOM     24  HD  ASG B   2       3.946  57.694  72.7680  0.00  0.00     0.000 HD
BRANCH 16 26
ATOM     24   N  ASG B   2       4.526  50.830  73.0670  0.00  0.00     0.000 N
ATOM     26  HD  ASG B   2       4.424  51.453  72.4730  0.00  0.00     0.000 HD
ATOM     26   C  ASG B   2       5.478  49.887  73.1840  0.00  0.00     0.000 C
ATOM     27   C  ASG B   2       5.007  48.473  73.1610  0.00  0.00     0.000 C
ATOM     28   O  ASG B   2       6.662  50.178  73.3040  0.00  0.00     0.000 OA
ENDBRANCH 16 26
BRANCH 18 29
ATOM     29   O  ASG B   2       5.932  53.933  75.4220  0.00  0.00     0.000 O
ATOM     30   O  ASG B   2       5.830  55.579  77.2440  0.00  0.00     0.000 OA
ATOM     31   O  ASG B   2       6.347  53.259  77.7350  0.00  0.00     0.000 OA
ATOM     32   O  ASG B   2       7.949  54.631  76.5540  0.00  0.00     0.000 OA
ATOM     33   S  ASG B   2       6.537  54.378  76.8420  0.00  0.00     0.000 S
ENDBRANCH 18 29
BRANCH 15 34
ATOM     34  O4  ASG B   3       4.587  53.126  71.0890  0.00  0.00     0.000 O
BRANCH 34 38
ATOM     35  C1  GCT B   3       7.242  54.204  68.2340  0.00  0.00     0.000 C
ATOM     36  C2  GCT B   3       7.637  52.963  69.0050  0.00  0.00     0.000 C
ATOM     37  C3  GCT B   3       6.437  52.372  69.7310  0.00  0.00     0.000 C
ATOM     38  C4  GCT B   3       5.871  53.415  70.7030  0.00  0.00     0.000 C
ATOM     39  C5  GCT B   3       6.014  54.854  70.1570  0.00  0.00     0.000 C
ATOM     40  O5  GCT B   3       6.030  54.750  68.7440  0.00  0.00     0.000 O
ATOM     41   O  GCT B   3       8.141  52.039  68.0520  0.00  0.00     0.000 O
ATOM     43  HD  GCT B   3       8.897  51.991  67.6330  0.00  0.00     0.000 HD
ATOM     43   O  GCT B   3       6.852  51.157  70.3920  0.00  0.00     0.000 O
ATOM     45  HD  GCT B   3       7.608  51.110  69.9730  0.00  0.00     0.000 HD
BRANCH 39 45
ATOM     45   C  GCT B   3       7.197  55.681  70.6110  0.00  0.00     0.000 C
ATOM     46   O  GCT B   3       8.043  55.177  71.4150  0.00  0.00     0.000 OA
ATOM     47   O  GCT B   3       7.302  56.834  70.1620  0.00  0.00     0.000 OA
ENDBRANCH 39 45
BRANCH 35 48
ATOM     48  O3  ASG B   4       8.327  54.835  67.8400  0.00  0.00     0.000 O
BRANCH 48 51
ATOM     49  C1  ASG B   4      10.058  55.411  64.6210  0.00  0.00     0.000 C
ATOM     50  C2  ASG B   4       9.804  55.363  66.1370  0.00  0.00     0.000 C
ATOM     51  C3  ASG B   4       8.529  54.588  66.4590  0.00  0.00     0.000 C
ATOM     52  C4  ASG B   4       7.359  55.081  65.6230  0.00  0.00     0.000 C
ATOM     53  C5  ASG B   4       7.767  55.020  64.1540  0.00  0.00     0.000 C
ATOM     54  O5  ASG B   4       8.904  55.881  63.9430  0.00  0.00     0.000 O
BRANCH 50 57
ATOM     55   N  ASG B   4      10.740  54.841  67.1060  0.00  0.00     0.000 N
ATOM     57  HD  ASG B   4      11.422  55.326  66.8790  0.00  0.00     0.000 HD
ATOM     57   O  ASG B   4      11.987  56.700  67.1880  0.00  0.00     0.000 OA
ATOM     58   C  ASG B   4      11.708  55.593  67.6390  0.00  0.00     0.000 C
ATOM     59   C  ASG B   4      12.455  54.974  68.7800  0.00  0.00     0.000 C
ENDBRANCH 50 57
BRANCH 52 60
ATOM     60   O  ASG B   4       7.116  56.452  66.1400  0.00  0.00     0.000 O
ATOM     61   O  ASG B   4       4.635  56.196  66.0190  0.00  0.00     0.000 OA
ATOM     62   O  ASG B   4       5.579  58.161  66.9790  0.00  0.00     0.000 OA
ATOM     63   O  ASG B   4       5.920  57.719  64.6530  0.00  0.00     0.000 OA
ATOM     64   S  ASG B   4       5.685  57.159  65.9870  0.00  0.00     0.000 S
ENDBRANCH 52 60
ATOM     65   O  ASG B   4       7.011  55.027  61.8500  0.00  0.00     0.000 O
ATOM     67  HD  ASG B   4       7.623  55.605  61.6470  0.00  0.00     0.000 HD
ATOM     67   O  ASG B   4       7.011  55.027  61.8500  0.00  0.00     0.000 O
ATOM     69  HD  ASG B   4       7.623  55.605  61.6470  0.00  0.00     0.000 HD
ENDBRANCH 48 51
ENDBRANCH 35 48
ENDBRANCH 34 38
ENDBRANCH 15 34
ENDBRANCH 14 17
ENDBRANCH 1 14
TORSDOF 12
ENDMDL
MODEL 15
REMARK VINA RESULT:      -7.8     29.819     35.846
ROOT
ATOM      1  C1  GAD B   1      19.598  30.496  64.1470  0.00  0.00     0.000 C
ATOM      2  C2  GAD B   1      18.590  31.645  64.2460  0.00  0.00     0.000 C
ATOM      3  C3  GAD B   1      19.258  32.880  64.8620  0.00  0.00     0.000 C
ATOM      4  C4  GAD B   1      20.355  32.566  65.8830  0.00  0.00     0.000 C
ATOM      5  C5  GAD B   1      20.831  31.329  66.1290  0.00  0.00     0.000 C
ATOM      6  O5  GAD B   1      20.227  30.236  65.4110  0.00  0.00     0.000 O
ATOM      7   O  GAD B   1      17.964  31.925  62.9390  0.00  0.00     0.000 O
ATOM      9  HD  GAD B   1      18.306  31.149  62.7670  0.00  0.00     0.000 HD
ATOM      9   O  GAD B   1      18.299  33.715  65.5490  0.00  0.00     0.000 O
ATOM     11  HD  GAD B   1      18.641  32.939  65.3760  0.00  0.00     0.000 HD
ENDROOT
BRANCH 5 11
ATOM     11   C  GAD B   1      21.963  31.026  67.0350  0.00  0.00     0.000 C
ATOM     12   O  GAD B   1      22.668  30.008  66.7540  0.00  0.00     0.000 OA
ATOM     13   O  GAD B   1      22.149  31.731  68.0950  0.00  0.00     0.000 OA
ENDBRANCH 5 11
BRANCH 1 14
ATOM     14  O3  ASG B   2      19.252  29.199  64.0490  0.00  0.00     0.000 O
BRANCH 14 17
ATOM     15  C1  ASG B   2      17.093  26.391  65.3660  0.00  0.00     0.000 C
ATOM     16  C2  ASG B   2      18.380  27.064  64.8690  0.00  0.00     0.000 C
ATOM     17  C3  ASG B   2      18.078  28.524  64.5170  0.00  0.00     0.000 C
ATOM     18  C4  ASG B   2      16.997  28.588  63.4550  0.00  0.00     0.000 C
ATOM     19  C5  ASG B   2      15.780  27.802  63.9340  0.00  0.00     0.000 C
ATOM     20  O5  ASG B   2      16.170  26.462  64.2950  0.00  0.00     0.000 O
ATOM     21   C  ASG B   2      14.725  27.670  62.8830  0.00  0.00     0.000 C
ATOM     22   O  ASG B   2      13.743  26.764  63.3210  0.00  0.00     0.000 O
ATOM     24  HD  ASG B   2      13.070  26.236  63.4590  0.00  0.00     0.000 HD
BRANCH 16 26
ATOM     24   N  ASG B   2      19.751  26.782  64.5110  0.00  0.00     0.000 N
ATOM     26  HD  ASG B   2      19.299  27.421  64.1410  0.00  0.00     0.000 HD
ATOM     26   C  ASG B   2      20.780  26.832  65.3770  0.00  0.00     0.000 C
ATOM     27   C  ASG B   2      22.046  26.188  64.9280  0.00  0.00     0.000 C
ATOM     28   O  ASG B   2      20.677  27.377  66.4690  0.00  0.00     0.000 OA
ENDBRANCH 16 26
BRANCH 18 29
ATOM     29   O  ASG B   2      17.585  28.035  62.2270  0.00  0.00     0.000 O
ATOM     30   O  ASG B   2      16.228  29.419  60.7140  0.00  0.00     0.000 OA
ATOM     31   O  ASG B   2      18.581  29.925  61.0360  0.00  0.00     0.000 OA
ATOM     32   O  ASG B   2      17.926  27.930  59.8370  0.00  0.00     0.000 OA
ATOM     33   S  ASG B   2      17.575  28.901  60.8730  0.00  0.00     0.000 S
ENDBRANCH 18 29
BRANCH 15 34
ATOM     34  O4  ASG B   3      17.262  25.048  65.7210  0.00  0.00     0.000 O
BRANCH 34 38
ATOM     35  C1  GCT B   3      17.397  25.794  69.6940  0.00  0.00     0.000 C
ATOM     36  C2  GCT B   3      18.386  24.747  69.2300  0.00  0.00     0.000 C
ATOM     37  C3  GCT B   3      18.593  24.827  67.7240  0.00  0.00     0.000 C
ATOM     38  C4  GCT B   3      17.250  24.604  67.0190  0.00  0.00     0.000 C
ATOM     39  C5  GCT B   3      16.066  25.178  67.8290  0.00  0.00     0.000 C
ATOM     40  O5  GCT B   3      16.588  26.239  68.6110  0.00  0.00     0.000 O
ATOM     41   O  GCT B   3      19.605  25.015  69.9100  0.00  0.00     0.000 O
ATOM     43  HD  GCT B   3      19.861  24.863  70.7230  0.00  0.00     0.000 HD
ATOM     43   O  GCT B   3      19.594  23.859  67.3460  0.00  0.00     0.000 O
ATOM     45  HD  GCT B   3      19.851  23.708  68.1590  0.00  0.00     0.000 HD
BRANCH 39 45
ATOM     45   C  GCT B   3      15.282  24.240  68.7200  0.00  0.00     0.000 C
ATOM     46   O  GCT B   3      14.268  24.675  69.3510  0.00  0.00     0.000 OA
ATOM     47   O  GCT B   3      15.658  23.058  68.7880  0.00  0.00     0.000 OA
ENDBRANCH 39 45
BRANCH 35 48
ATOM     48  O3  ASG B   4      17.039  25.535  70.9340  0.00  0.00     0.000 O
BRANCH 48 51
ATOM     49  C1  ASG B   4      17.883  28.580  72.8590  0.00  0.00     0.000 C
ATOM     50  C2  ASG B   4      18.050  27.361  71.9360  0.00  0.00     0.000 C
ATOM     51  C3  ASG B   4      16.698  26.750  71.5790  0.00  0.00     0.000 C
ATOM     52  C4  ASG B   4      15.857  26.510  72.8220  0.00  0.00     0.000 C
ATOM     53  C5  ASG B   4      15.760  27.825  73.5910  0.00  0.00     0.000 C
ATOM     54  O5  ASG B   4      17.083  28.243  73.9800  0.00  0.00     0.000 O
BRANCH 50 57
ATOM     55   N  ASG B   4      18.869  28.381  71.3210  0.00  0.00     0.000 N
ATOM     57  HD  ASG B   4      19.613  28.187  71.7190  0.00  0.00     0.000 HD
ATOM     57   O  ASG B   4      20.785  27.242  71.5310  0.00  0.00     0.000 OA
ATOM     58   C  ASG B   4      20.168  28.197  71.0690  0.00  0.00     0.000 C
ATOM     59   C  ASG B   4      20.824  29.257  70.2380  0.00  0.00     0.000 C
ENDBRANCH 50 57
BRANCH 52 60
ATOM     60   O  ASG B   4      16.590  25.431  73.5340  0.00  0.00     0.000 O
ATOM     61   O  ASG B   4      14.925  23.690  72.8770  0.00  0.00     0.000 OA
ATOM     62   O  ASG B   4      16.903  23.059  74.0430  0.00  0.00     0.000 OA
ATOM     63   O  ASG B   4      15.293  24.444  75.1430  0.00  0.00     0.000 OA
ATOM     64   S  ASG B   4      15.890  24.028  73.8700  0.00  0.00     0.000 S
ENDBRANCH 52 60
ATOM     65   O  ASG B   4      14.582  29.077  75.3010  0.00  0.00     0.000 O
ATOM     67  HD  ASG B   4      15.338  29.320  75.6480  0.00  0.00     0.000 HD
ATOM     67   O  ASG B   4      14.582  29.077  75.3010  0.00  0.00     0.000 O
ATOM     69  HD  ASG B   4      15.338  29.320  75.6480  0.00  0.00     0.000 HD
ENDBRANCH 48 51
ENDBRANCH 35 48
ENDBRANCH 34 38
ENDBRANCH 15 34
ENDBRANCH 14 17
ENDBRANCH 1 14
TORSDOF 12
ENDMDL
MODEL 16
REMARK VINA RESULT:      -7.8      7.332     11.955
ROOT
ATOM      1  C1  GAD B   1       8.227  30.498  27.4830  0.00  0.00     0.000 C
ATOM      2  C2  GAD B   1       7.911  29.166  26.7970  0.00  0.00     0.000 C
ATOM      3  C3  GAD B   1       9.107  28.215  26.9170  0.00  0.00     0.000 C
ATOM      4  C4  GAD B   1      10.472  28.909  26.9300  0.00  0.00     0.000 C
ATOM      5  C5  GAD B   1      10.643  30.245  26.9940  0.00  0.00     0.000 C
ATOM      6  O5  GAD B   1       9.457  31.061  27.0020  0.00  0.00     0.000 O
ATOM      7   O  GAD B   1       6.659  28.579  27.3120  0.00  0.00     0.000 O
ATOM      9  HD  GAD B   1       6.571  29.385  27.6150  0.00  0.00     0.000 HD
ATOM      9   O  GAD B   1       9.149  27.272  25.8220  0.00  0.00     0.000 O
ATOM     11  HD  GAD B   1       9.060  28.079  26.1250  0.00  0.00     0.000 HD
ENDROOT
BRANCH 5 11
ATOM     11   C  GAD B   1      11.956  30.922  27.1150  0.00  0.00     0.000 C
ATOM     12   O  GAD B   1      12.987  30.226  26.8620  0.00  0.00     0.000 OA
ATOM     13   O  GAD B   1      12.020  32.134  27.5390  0.00  0.00     0.000 OA
ENDBRANCH 5 11
BRANCH 1 14
ATOM     14  O3  ASG B   2       7.590  31.653  27.2130  0.00  0.00     0.000 O
BRANCH 14 17
ATOM     15  C1  ASG B   2       8.423  35.334  27.0270  0.00  0.00     0.000 C
ATOM     16  C2  ASG B   2       7.855  34.047  27.6430  0.00  0.00     0.000 C
ATOM     17  C3  ASG B   2       8.100  32.881  26.6810  0.00  0.00     0.000 C
ATOM     18  C4  ASG B   2       7.446  33.167  25.3420  0.00  0.00     0.000 C
ATOM     19  C5  ASG B   2       7.943  34.512  24.8230  0.00  0.00     0.000 C
ATOM     20  O5  ASG B   2       7.722  35.535  25.8140  0.00  0.00     0.000 O
ATOM     21   C  ASG B   2       7.227  34.956  23.5870  0.00  0.00     0.000 C
ATOM     22   O  ASG B   2       7.583  36.285  23.2940  0.00  0.00     0.000 O
ATOM     24  HD  ASG B   2       7.711  37.087  22.9950  0.00  0.00     0.000 HD
BRANCH 16 26
ATOM     24   N  ASG B   2       8.344  33.749  28.9690  0.00  0.00     0.000 N
ATOM     26  HD  ASG B   2       8.323  34.555  28.6550  0.00  0.00     0.000 HD
ATOM     26   C  ASG B   2       7.603  33.171  29.9320  0.00  0.00     0.000 C
ATOM     27   C  ASG B   2       8.353  32.632  31.1020  0.00  0.00     0.000 C
ATOM     28   O  ASG B   2       6.383  33.094  29.8480  0.00  0.00     0.000 OA
ENDBRANCH 16 26
BRANCH 18 29
ATOM     29   O  ASG B   2       5.996  33.145  25.5740  0.00  0.00     0.000 O
ATOM     30   O  ASG B   2       5.456  32.191  23.3730  0.00  0.00     0.000 OA
ATOM     31   O  ASG B   2       5.306  30.808  25.3620  0.00  0.00     0.000 OA
ATOM     32   O  ASG B   2       3.713  32.591  25.0060  0.00  0.00     0.000 OA
ATOM     33   S  ASG B   2       5.072  32.104  24.7700  0.00  0.00     0.000 S
ENDBRANCH 18 29
BRANCH 15 34
ATOM     34  O4  ASG B   3       8.255  36.464  27.8340  0.00  0.00     0.000 O
BRANCH 34 38
ATOM     35  C1  GCT B   3      10.448  38.796  30.3060  0.00  0.00     0.000 C
ATOM     36  C2  GCT B   3       9.803  39.548  29.1630  0.00  0.00     0.000 C
ATOM     37  C3  GCT B   3       8.673  38.734  28.5480  0.00  0.00     0.000 C
ATOM     38  C4  GCT B   3       9.234  37.404  28.0290  0.00  0.00     0.000 C
ATOM     39  C5  GCT B   3      10.391  36.879  28.9100  0.00  0.00     0.000 C
ATOM     40  O5  GCT B   3      10.178  37.402  30.2100  0.00  0.00     0.000 O
ATOM     41   O  GCT B   3       9.297  40.758  29.7090  0.00  0.00     0.000 O
ATOM     43  HD  GCT B   3       9.685  41.495  29.9450  0.00  0.00     0.000 HD
ATOM     43   O  GCT B   3       8.049  39.522  27.5130  0.00  0.00     0.000 O
ATOM     45  HD  GCT B   3       8.437  40.259  27.7480  0.00  0.00     0.000 HD
BRANCH 39 45
ATOM     45   C  GCT B   3      11.812  37.170  28.4800  0.00  0.00     0.000 C
ATOM     46   O  GCT B   3      12.779  36.774  29.2040  0.00  0.00     0.000 OA
ATOM     47   O  GCT B   3      11.979  37.783  27.4130  0.00  0.00     0.000 OA
ENDBRANCH 39 45
BRANCH 35 48
ATOM     48  O3  ASG B   4      11.572  39.394  30.6410  0.00  0.00     0.000 O
BRANCH 48 51
ATOM     49  C1  ASG B   4      11.907  41.494  33.6680  0.00  0.00     0.000 C
ATOM     50  C2  ASG B   4      11.638  41.098  32.2070  0.00  0.00     0.000 C
ATOM     51  C3  ASG B   4      11.595  39.581  32.0450  0.00  0.00     0.000 C
ATOM     52  C4  ASG B   4      12.810  38.925  32.6800  0.00  0.00     0.000 C
ATOM     53  C5  ASG B   4      12.898  39.392  34.1300  0.00  0.00     0.000 C
ATOM     54  O5  ASG B   4      13.058  40.824  34.1560  0.00  0.00     0.000 O
BRANCH 50 57
ATOM     55   N  ASG B   4      12.416  41.581  31.0900  0.00  0.00     0.000 N
ATOM     57  HD  ASG B   4      11.818  42.109  30.7530  0.00  0.00     0.000 HD
ATOM     57   O  ASG B   4      11.336  43.537  30.9340  0.00  0.00     0.000 OA
ATOM     58   C  ASG B   4      12.273  42.817  30.6020  0.00  0.00     0.000 C
ATOM     59   C  ASG B   4      13.296  43.238  29.5920  0.00  0.00     0.000 C
ENDBRANCH 50 57
BRANCH 52 60
ATOM     60   O  ASG B   4      13.935  39.371  31.8180  0.00  0.00     0.000 O
ATOM     61   O  ASG B   4      14.944  37.089  31.7340  0.00  0.00     0.000 OA
ATOM     62   O  ASG B   4      15.877  38.846  30.4260  0.00  0.00     0.000 OA
ATOM     63   O  ASG B   4      15.964  38.996  32.8110  0.00  0.00     0.000 OA
ATOM     64   S  ASG B   4      15.253  38.476  31.6390  0.00  0.00     0.000 S
ENDBRANCH 52 60
ATOM     65   O  ASG B   4      13.852  38.988  36.3230  0.00  0.00     0.000 O
ATOM     67  HD  ASG B   4      14.052  39.828  36.3940  0.00  0.00     0.000 HD
ATOM     67   O  ASG B   4      13.852  38.988  36.3230  0.00  0.00     0.000 O
ATOM     69  HD  ASG B   4      14.052  39.828  36.3940  0.00  0.00     0.000 HD
ENDBRANCH 48 51
ENDBRANCH 35 48
ENDBRANCH 34 38
ENDBRANCH 15 34
ENDBRANCH 14 17
ENDBRANCH 1 14
TORSDOF 12
ENDMDL
MODEL 17
REMARK VINA RESULT:      -7.7      3.128      6.042
ROOT
ATOM      1  C1  GAD B   1      18.287  45.130  34.6650  0.00  0.00     0.000 C
ATOM      2  C2  GAD B   1      18.630  46.461  33.9880  0.00  0.00     0.000 C
ATOM      3  C3  GAD B   1      18.972  47.517  35.0460  0.00  0.00     0.000 C
ATOM      4  C4  GAD B   1      18.218  47.357  36.3690  0.00  0.00     0.000 C
ATOM      5  C5  GAD B   1      17.435  46.303  36.6740  0.00  0.00     0.000 C
ATOM      6  O5  GAD B   1      17.268  45.292  35.6620  0.00  0.00     0.000 O
ATOM      7   O  GAD B   1      19.695  46.294  32.9810  0.00  0.00     0.000 O
ATOM      9  HD  GAD B   1      19.475  45.464  33.0900  0.00  0.00     0.000 HD
ATOM      9   O  GAD B   1      18.679  48.852  34.5780  0.00  0.00     0.000 O
ATOM     11  HD  GAD B   1      18.458  48.022  34.6870  0.00  0.00     0.000 HD
ENDROOT
BRANCH 5 11
ATOM     11   C  GAD B   1      16.788  46.086  37.9890  0.00  0.00     0.000 C
ATOM     12   O  GAD B   1      16.441  44.897  38.2710  0.00  0.00     0.000 OA
ATOM     13   O  GAD B   1      16.527  47.087  38.7540  0.00  0.00     0.000 OA
ENDBRANCH 5 11
BRANCH 1 14
ATOM     14  O3  ASG B   2      17.566  44.154  34.0820  0.00  0.00     0.000 O
BRANCH 14 17
ATOM     15  C1  ASG B   2      17.653  40.410  34.5820  0.00  0.00     0.000 C
ATOM     16  C2  ASG B   2      18.093  41.766  34.0120  0.00  0.00     0.000 C
ATOM     17  C3  ASG B   2      17.192  42.865  34.5820  0.00  0.00     0.000 C
ATOM     18  C4  ASG B   2      15.744  42.582  34.2290  0.00  0.00     0.000 C
ATOM     19  C5  ASG B   2      15.381  41.178  34.7010  0.00  0.00     0.000 C
ATOM     20  O5  ASG B   2      16.314  40.220  34.1620  0.00  0.00     0.000 O
ATOM     21   C  ASG B   2      14.022  40.748  34.2500  0.00  0.00     0.000 C
ATOM     22   O  ASG B   2      13.847  39.382  34.5350  0.00  0.00     0.000 O
ATOM     24  HD  ASG B   2      13.601  38.560  34.6520  0.00  0.00     0.000 HD
BRANCH 16 26
ATOM     24   N  ASG B   2      19.516  41.977  34.1470  0.00  0.00     0.000 N
ATOM     26  HD  ASG B   2      19.175  41.191  34.0180  0.00  0.00     0.000 HD
ATOM     26   C  ASG B   2      20.243  42.756  33.3250  0.00  0.00     0.000 C
ATOM     27   C  ASG B   2      21.603  43.128  33.8070  0.00  0.00     0.000 C
ATOM     28   O  ASG B   2      19.808  43.134  32.2440  0.00  0.00     0.000 OA
ENDBRANCH 16 26
BRANCH 18 29
ATOM     29   O  ASG B   2      15.630  42.741  32.7730  0.00  0.00     0.000 O
ATOM     30   O  ASG B   2      13.345  43.645  32.8460  0.00  0.00     0.000 OA
ATOM     31   O  ASG B   2      15.216  45.119  32.3760  0.00  0.00     0.000 OA
ATOM     32   O  ASG B   2      14.536  43.469  30.7450  0.00  0.00     0.000 OA
ATOM     33   S  ASG B   2      14.612  43.824  32.1620  0.00  0.00     0.000 S
ENDBRANCH 18 29
BRANCH 15 34
ATOM     34  O4  ASG B   3      18.420  39.333  34.1250  0.00  0.00     0.000 O
BRANCH 34 38
ATOM     35  C1  GCT B   3      21.323  37.777  36.4750  0.00  0.00     0.000 C
ATOM     36  C2  GCT B   3      20.801  36.820  35.4250  0.00  0.00     0.000 C
ATOM     37  C3  GCT B   3      20.060  37.571  34.3270  0.00  0.00     0.000 C
ATOM     38  C4  GCT B   3      18.884  38.336  34.9460  0.00  0.00     0.000 C
ATOM     39  C5  GCT B   3      19.207  38.844  36.3690  0.00  0.00     0.000 C
ATOM     40  O5  GCT B   3      20.613  39.010  36.4310  0.00  0.00     0.000 O
ATOM     41   O  GCT B   3      21.935  36.154  34.8870  0.00  0.00     0.000 O
ATOM     43  HD  GCT B   3      22.430  35.513  35.1920  0.00  0.00     0.000 HD
ATOM     43   O  GCT B   3      19.646  36.623  33.3210  0.00  0.00     0.000 O
ATOM     45  HD  GCT B   3      20.142  35.982  33.6260  0.00  0.00     0.000 HD
BRANCH 39 45
ATOM     45   C  GCT B   3      18.749  38.016  37.5500  0.00  0.00     0.000 C
ATOM     46   O  GCT B   3      19.062  38.376  38.7280  0.00  0.00     0.000 OA
ATOM     47   O  GCT B   3      18.062  37.007  37.3170  0.00  0.00     0.000 OA
ENDBRANCH 39 45
BRANCH 35 48
ATOM     48  O3  ASG B   4      21.719  37.094  37.5270  0.00  0.00     0.000 O
BRANCH 48 51
ATOM     49  C1  ASG B   4      24.964  38.808  37.9970  0.00  0.00     0.000 C
ATOM     50  C2  ASG B   4      23.762  38.158  37.2920  0.00  0.00     0.000 C
ATOM     51  C3  ASG B   4      22.627  37.885  38.2750  0.00  0.00     0.000 C
ATOM     52  C4  ASG B   4      23.130  37.150  39.5070  0.00  0.00     0.000 C
ATOM     53  C5  ASG B   4      24.284  37.953  40.1000  0.00  0.00     0.000 C
ATOM     54  O5  ASG B   4      25.345  38.042  39.1280  0.00  0.00     0.000 O
BRANCH 50 57
ATOM     55   N  ASG B   4      24.339  39.239  36.5270  0.00  0.00     0.000 N
ATOM     57  HD  ASG B   4      24.790  38.756  35.9670  0.00  0.00     0.000 HD
ATOM     57   O  ASG B   4      24.564  38.046  34.6460  0.00  0.00     0.000 OA
ATOM     58   C  ASG B   4      24.602  39.129  35.2210  0.00  0.00     0.000 C
ATOM     59   C  ASG B   4      24.993  40.398  34.5300  0.00  0.00     0.000 C
ENDBRANCH 50 57
BRANCH 52 60
ATOM     60   O  ASG B   4      23.512  35.813  38.9820  0.00  0.00     0.000 O
ATOM     61   O  ASG B   4      21.358  34.774  39.6970  0.00  0.00     0.000 OA
ATOM     62   O  ASG B   4      22.923  33.504  38.4300  0.00  0.00     0.000 OA
ATOM     63   O  ASG B   4      23.517  34.224  40.6310  0.00  0.00     0.000 OA
ATOM     64   S  ASG B   4      22.727  34.488  39.4250  0.00  0.00     0.000 S
ENDBRANCH 52 60
ATOM     65   O  ASG B   4      25.684  38.336  42.0430  0.00  0.00     0.000 O
ATOM     67  HD  ASG B   4      26.389  38.332  41.5400  0.00  0.00     0.000 HD
ATOM     67   O  ASG B   4      25.684  38.336  42.0430  0.00  0.00     0.000 O
ATOM     69  HD  ASG B   4      26.389  38.332  41.5400  0.00  0.00     0.000 HD
ENDBRANCH 48 51
ENDBRANCH 35 48
ENDBRANCH 34 38
ENDBRANCH 15 34
ENDBRANCH 14 17
ENDBRANCH 1 14
TORSDOF 12
ENDMDL
MODEL 18
REMARK VINA RESULT:      -7.7      3.311     10.387
ROOT
ATOM      1  C1  GAD B   1      23.927  36.107  40.3150  0.00  0.00     0.000 C
ATOM      2  C2  GAD B   1      25.399  35.683  40.2990  0.00  0.00     0.000 C
ATOM      3  C3  GAD B   1      26.299  36.897  40.5570  0.00  0.00     0.000 C
ATOM      4  C4  GAD B   1      25.747  38.222  40.0240  0.00  0.00     0.000 C
ATOM      5  C5  GAD B   1      24.511  38.377  39.5100  0.00  0.00     0.000 C
ATOM      6  O5  GAD B   1      23.684  37.201  39.4190  0.00  0.00     0.000 O
ATOM      7   O  GAD B   1      25.650  34.574  41.2400  0.00  0.00     0.000 O
ATOM      9  HD  GAD B   1      24.785  34.534  41.2040  0.00  0.00     0.000 HD
ATOM      9   O  GAD B   1      27.600  36.732  39.9490  0.00  0.00     0.000 O
ATOM     11  HD  GAD B   1      26.736  36.692  39.9130  0.00  0.00     0.000 HD
ENDROOT
BRANCH 5 11
ATOM     11   C  GAD B   1      23.929  39.673  39.0910  0.00  0.00     0.000 C
ATOM     12   O  GAD B   1      23.984  39.955  37.8530  0.00  0.00     0.000 OA
ATOM     13   O  GAD B   1      23.470  40.491  39.9710  0.00  0.00     0.000 OA
ENDBRANCH 5 11
BRANCH 1 14
ATOM     14  O3  ASG B   2      22.937  35.406  39.7330  0.00  0.00     0.000 O
BRANCH 14 17
ATOM     15  C1  ASG B   2      20.877  35.374  36.5650  0.00  0.00     0.000 C
ATOM     16  C2  ASG B   2      21.156  35.567  38.0620  0.00  0.00     0.000 C
ATOM     17  C3  ASG B   2      22.624  35.237  38.3450  0.00  0.00     0.000 C
ATOM     18  C4  ASG B   2      22.925  33.811  37.9250  0.00  0.00     0.000 C
ATOM     19  C5  ASG B   2      22.519  33.625  36.4660  0.00  0.00     0.000 C
ATOM     20  O5  ASG B   2      21.142  34.012  36.2850  0.00  0.00     0.000 O
ATOM     21   C  ASG B   2      22.624  32.204  36.0120  0.00  0.00     0.000 C
ATOM     22   O  ASG B   2      22.036  32.077  34.7410  0.00  0.00     0.000 O
ATOM     24  HD  ASG B   2      21.715  31.853  33.9680  0.00  0.00     0.000 HD
BRANCH 16 26
ATOM     24   N  ASG B   2      20.866  36.875  38.6040  0.00  0.00     0.000 N
ATOM     26  HD  ASG B   2      20.510  36.590  37.8670  0.00  0.00     0.000 HD
ATOM     26   C  ASG B   2      20.313  37.082  39.8130  0.00  0.00     0.000 C
ATOM     27   C  ASG B   2      20.403  38.472  40.3450  0.00  0.00     0.000 C
ATOM     28   O  ASG B   2      19.770  36.179  40.4370  0.00  0.00     0.000 OA
ENDBRANCH 16 26
BRANCH 18 29
ATOM     29   O  ASG B   2      22.177  32.940  38.8410  0.00  0.00     0.000 O
ATOM     30   O  ASG B   2      23.890  31.178  38.8870  0.00  0.00     0.000 OA
ATOM     31   O  ASG B   2      23.598  32.634  40.8070  0.00  0.00     0.000 OA
ATOM     32   O  ASG B   2      21.902  31.002  40.2580  0.00  0.00     0.000 OA
ATOM     33   S  ASG B   2      22.962  31.877  39.7560  0.00  0.00     0.000 S
ENDBRANCH 18 29
BRANCH 15 34
ATOM     34  O4  ASG B   3      19.557  35.657  36.1980  0.00  0.00     0.000 O
BRANCH 34 38
ATOM     35  C1  GCT B   3      18.502  39.405  35.1030  0.00  0.00     0.000 C
ATOM     36  C2  GCT B   3      17.591  38.326  34.5610  0.00  0.00     0.000 C
ATOM     37  C3  GCT B   3      17.764  37.029  35.3390  0.00  0.00     0.000 C
ATOM     38  C4  GCT B   3      19.222  36.566  35.2270  0.00  0.00     0.000 C
ATOM     39  C5  GCT B   3      20.206  37.756  35.1660  0.00  0.00     0.000 C
ATOM     40  O5  GCT B   3      19.579  38.834  35.8380  0.00  0.00     0.000 O
ATOM     41   O  GCT B   3      16.263  38.811  34.7020  0.00  0.00     0.000 O
ATOM     43  HD  GCT B   3      15.806  39.392  34.2500  0.00  0.00     0.000 HD
ATOM     43   O  GCT B   3      16.826  36.058  34.8290  0.00  0.00     0.000 O
ATOM     45  HD  GCT B   3      16.369  36.639  34.3770  0.00  0.00     0.000 HD
BRANCH 39 45
ATOM     45   C  GCT B   3      20.686  38.224  33.8090  0.00  0.00     0.000 C
ATOM     46   O  GCT B   3      21.495  39.202  33.7340  0.00  0.00     0.000 OA
ATOM     47   O  GCT B   3      20.275  37.614  32.8090  0.00  0.00     0.000 OA
ENDBRANCH 39 45
BRANCH 35 48
ATOM     48  O3  ASG B   4      18.528  40.417  34.2610  0.00  0.00     0.000 O
BRANCH 48 51
ATOM     49  C1  ASG B   4      16.720  43.630  33.9510  0.00  0.00     0.000 C
ATOM     50  C2  ASG B   4      17.381  42.299  33.5540  0.00  0.00     0.000 C
ATOM     51  C3  ASG B   4      17.740  41.472  34.7850  0.00  0.00     0.000 C
ATOM     52  C4  ASG B   4      18.513  42.301  35.7980  0.00  0.00     0.000 C
ATOM     53  C5  ASG B   4      17.697  43.552  36.1080  0.00  0.00     0.000 C
ATOM     54  O5  ASG B   4      17.524  44.315  34.8980  0.00  0.00     0.000 O
BRANCH 50 57
ATOM     55   N  ASG B   4      16.579  41.465  32.6880  0.00  0.00     0.000 N
ATOM     57  HD  ASG B   4      16.528  42.011  32.0170  0.00  0.00     0.000 HD
ATOM     57   O  ASG B   4      17.340  42.372  30.7870  0.00  0.00     0.000 OA
ATOM     58   C  ASG B   4      16.699  41.495  31.3570  0.00  0.00     0.000 C
ATOM     59   C  ASG B   4      15.958  40.424  30.6160  0.00  0.00     0.000 C
ENDBRANCH 50 57
BRANCH 52 60
ATOM     60   O  ASG B   4      19.809  42.560  35.1190  0.00  0.00     0.000 O
ATOM     61   O  ASG B   4      21.132  41.546  36.9760  0.00  0.00     0.000 OA
ATOM     62   O  ASG B   4      22.233  42.258  34.9880  0.00  0.00     0.000 OA
ATOM     63   O  ASG B   4      21.179  43.888  36.3850  0.00  0.00     0.000 OA
ATOM     64   S  ASG B   4      21.197  42.498  35.9190  0.00  0.00     0.000 S
ENDBRANCH 52 60
ATOM     65   O  ASG B   4      17.354  45.408  37.6310  0.00  0.00     0.000 O
ATOM     67  HD  ASG B   4      17.309  45.954  36.9600  0.00  0.00     0.000 HD
ATOM     67   O  ASG B   4      17.354  45.408  37.6310  0.00  0.00     0.000 O
ATOM     69  HD  ASG B   4      17.309  45.954  36.9600  0.00  0.00     0.000 HD
ENDBRANCH 48 51
ENDBRANCH 35 48
ENDBRANCH 34 38
ENDBRANCH 15 34
ENDBRANCH 14 17
ENDBRANCH 1 14
TORSDOF 12
ENDMDL
MODEL 19
REMARK VINA RESULT:      -7.7      6.858     13.430
ROOT
ATOM      1  C1  GAD B   1      29.241  34.787  41.7340  0.00  0.00     0.000 C
ATOM      2  C2  GAD B   1      29.637  34.425  43.1680  0.00  0.00     0.000 C
ATOM      3  C3  GAD B   1      28.668  33.380  43.7340  0.00  0.00     0.000 C
ATOM      4  C4  GAD B   1      27.235  33.491  43.2060  0.00  0.00     0.000 C
ATOM      5  C5  GAD B   1      26.855  34.317  42.2110  0.00  0.00     0.000 C
ATOM      6  O5  GAD B   1      27.863  35.180  41.6510  0.00  0.00     0.000 O
ATOM      7   O  GAD B   1      31.047  33.998  43.2450  0.00  0.00     0.000 O
ATOM      9  HD  GAD B   1      31.055  34.367  42.4620  0.00  0.00     0.000 HD
ATOM      9   O  GAD B   1      28.572  33.470  45.1740  0.00  0.00     0.000 O
ATOM     11  HD  GAD B   1      28.580  33.838  44.3900  0.00  0.00     0.000 HD
ENDROOT
BRANCH 5 11
ATOM     11   C  GAD B   1      25.497  34.356  41.6200  0.00  0.00     0.000 C
ATOM     12   O  GAD B   1      25.104  35.470  41.1530  0.00  0.00     0.000 OA
ATOM     13   O  GAD B   1      24.742  33.316  41.6670  0.00  0.00     0.000 OA
ENDBRANCH 5 11
BRANCH 1 14
ATOM     14  O3  ASG B   2      29.606  35.928  41.1180  0.00  0.00     0.000 O
BRANCH 14 17
ATOM     15  C1  ASG B   2      28.026  39.132  39.8880  0.00  0.00     0.000 C
ATOM     16  C2  ASG B   2      28.659  37.739  39.7720  0.00  0.00     0.000 C
ATOM     17  C3  ASG B   2      29.013  37.230  41.1730  0.00  0.00     0.000 C
ATOM     18  C4  ASG B   2      29.967  38.197  41.8490  0.00  0.00     0.000 C
ATOM     19  C5  ASG B   2      29.355  39.594  41.8330  0.00  0.00     0.000 C
ATOM     20  O5  ASG B   2      29.004  39.963  40.4850  0.00  0.00     0.000 O
ATOM     21   C  ASG B   2      30.296  40.644  42.3300  0.00  0.00     0.000 C
ATOM     22   O  ASG B   2      29.746  41.916  42.0870  0.00  0.00     0.000 O
ATOM     24  HD  ASG B   2      29.533  42.751  42.0040  0.00  0.00     0.000 HD
BRANCH 16 26
ATOM     24   N  ASG B   2      29.145  36.771  38.8150  0.00  0.00     0.000 N
ATOM     26  HD  ASG B   2      29.470  36.833  39.6150  0.00  0.00     0.000 HD
ATOM     26   C  ASG B   2      28.380  35.814  38.2580  0.00  0.00     0.000 C
ATOM     27   C  ASG B   2      28.947  35.138  37.0570  0.00  0.00     0.000 C
ATOM     28   O  ASG B   2      27.282  35.520  38.7150  0.00  0.00     0.000 OA
ENDBRANCH 16 26
BRANCH 18 29
ATOM     29   O  ASG B   2      31.233  38.120  41.1080  0.00  0.00     0.000 O
ATOM     30   O  ASG B   2      32.646  38.487  43.0860  0.00  0.00     0.000 OA
ATOM     31   O  ASG B   2      32.494  36.274  42.0990  0.00  0.00     0.000 OA
ATOM     32   O  ASG B   2      33.641  38.047  40.9220  0.00  0.00     0.000 OA
ATOM     33   S  ASG B   2      32.583  37.697  41.8700  0.00  0.00     0.000 S
ENDBRANCH 18 29
BRANCH 15 34
ATOM     34  O4  ASG B   3      27.660  39.687  38.6570  0.00  0.00     0.000 O
BRANCH 34 38
ATOM     35  C1  GCT B   3      24.119  37.773  38.2560  0.00  0.00     0.000 C
ATOM     36  C2  GCT B   3      24.734  38.211  36.9440  0.00  0.00     0.000 C
ATOM     37  C3  GCT B   3      26.215  38.514  37.1160  0.00  0.00     0.000 C
ATOM     38  C4  GCT B   3      26.385  39.631  38.1540  0.00  0.00     0.000 C
ATOM     39  C5  GCT B   3      25.313  39.556  39.2650  0.00  0.00     0.000 C
ATOM     40  O5  GCT B   3      24.917  38.199  39.3550  0.00  0.00     0.000 O
ATOM     41   O  GCT B   3      24.553  37.135  36.0350  0.00  0.00     0.000 O
ATOM     43  HD  GCT B   3      23.862  36.859  35.5920  0.00  0.00     0.000 HD
ATOM     43   O  GCT B   3      26.766  38.859  35.8270  0.00  0.00     0.000 O
ATOM     45  HD  GCT B   3      26.075  38.583  35.3840  0.00  0.00     0.000 HD
BRANCH 39 45
ATOM     45   C  GCT B   3      24.083  40.429  39.1380  0.00  0.00     0.000 C
ATOM     46   O  GCT B   3      23.206  40.414  40.0580  0.00  0.00     0.000 OA
ATOM     47   O  GCT B   3      23.986  41.148  38.1300  0.00  0.00     0.000 OA
ENDBRANCH 39 45
BRANCH 35 48
ATOM     48  O3  ASG B   4      22.808  37.774  38.1430  0.00  0.00     0.000 O
BRANCH 48 51
ATOM     49  C1  ASG B   4      21.869  34.375  39.2660  0.00  0.00     0.000 C
ATOM     50  C2  ASG B   4      22.591  35.496  38.4990  0.00  0.00     0.000 C
ATOM     51  C3  ASG B   4      22.263  36.867  39.0860  0.00  0.00     0.000 C
ATOM     52  C4  ASG B   4      20.763  37.053  39.2430  0.00  0.00     0.000 C
ATOM     53  C5  ASG B   4      20.222  35.883  40.0610  0.00  0.00     0.000 C
ATOM     54  O5  ASG B   4      20.481  34.654  39.3540  0.00  0.00     0.000 O
BRANCH 50 57
ATOM     55   N  ASG B   4      23.461  34.370  38.7480  0.00  0.00     0.000 N
ATOM     57  HD  ASG B   4      23.402  34.004  37.9660  0.00  0.00     0.000 HD
ATOM     57   O  ASG B   4      24.071  34.120  36.6080  0.00  0.00     0.000 OA
ATOM     58   C  ASG B   4      24.221  33.829  37.7910  0.00  0.00     0.000 C
ATOM     59   C  ASG B   4      25.221  32.815  38.2530  0.00  0.00     0.000 C
ENDBRANCH 50 57
BRANCH 52 60
ATOM     60   O  ASG B   4      20.270  37.108  37.8430  0.00  0.00     0.000 O
ATOM     61   O  ASG B   4      19.089  39.276  38.2070  0.00  0.00     0.000 OA
ATOM     62   O  ASG B   4      19.177  38.326  36.0250  0.00  0.00     0.000 OA
ATOM     63   O  ASG B   4      17.983  37.178  37.7500  0.00  0.00     0.000 OA
ATOM     64   S  ASG B   4      19.079  38.092  37.4150  0.00  0.00     0.000 S
ENDBRANCH 52 60
ATOM     65   O  ASG B   4      18.379  35.032  41.3870  0.00  0.00     0.000 O
ATOM     67  HD  ASG B   4      18.416  34.279  40.9600  0.00  0.00     0.000 HD
ATOM     67   O  ASG B   4      18.379  35.032  41.3870  0.00  0.00     0.000 O
ATOM     69  HD  ASG B   4      18.416  34.279  40.9600  0.00  0.00     0.000 HD
ENDBRANCH 48 51
ENDBRANCH 35 48
ENDBRANCH 34 38
ENDBRANCH 15 34
ENDBRANCH 14 17
ENDBRANCH 1 14
TORSDOF 12
ENDMDL
MODEL 20
REMARK VINA RESULT:      -7.7     21.383     24.103
ROOT
ATOM      1  C1  GAD B   1      20.013  27.018  55.1540  0.00  0.00     0.000 C
ATOM      2  C2  GAD B   1      20.206  25.563  55.5920  0.00  0.00     0.000 C
ATOM      3  C3  GAD B   1      19.392  25.283  56.8610  0.00  0.00     0.000 C
ATOM      4  C4  GAD B   1      19.244  26.484  57.7980  0.00  0.00     0.000 C
ATOM      5  C5  GAD B   1      19.642  27.736  57.4970  0.00  0.00     0.000 C
ATOM      6  O5  GAD B   1      20.290  27.932  56.2260  0.00  0.00     0.000 O
ATOM      7   O  GAD B   1      19.897  24.626  54.4950  0.00  0.00     0.000 O
ATOM      9  HD  GAD B   1      19.960  25.359  54.0390  0.00  0.00     0.000 HD
ATOM      9   O  GAD B   1      19.987  24.229  57.6510  0.00  0.00     0.000 O
ATOM     11  HD  GAD B   1      20.051  24.962  57.1950  0.00  0.00     0.000 HD
ENDROOT
BRANCH 5 11
ATOM     11   C  GAD B   1      19.408  28.924  58.3510  0.00  0.00     0.000 C
ATOM     12   O  GAD B   1      18.613  28.780  59.3310  0.00  0.00     0.000 OA
ATOM     13   O  GAD B   1      19.934  30.056  58.0410  0.00  0.00     0.000 OA
ENDBRANCH 5 11
BRANCH 1 14
ATOM     14  O3  ASG B   2      20.872  27.684  54.3600  0.00  0.00     0.000 O
BRANCH 14 17
ATOM     15  C1  ASG B   2      24.243  29.388  54.2310  0.00  0.00     0.000 C
ATOM     16  C2  ASG B   2      22.719  29.266  54.0870  0.00  0.00     0.000 C
ATOM     17  C3  ASG B   2      22.290  27.848  54.4750  0.00  0.00     0.000 C
ATOM     18  C4  ASG B   2      22.994  26.834  53.5930  0.00  0.00     0.000 C
ATOM     19  C5  ASG B   2      24.499  27.068  53.6680  0.00  0.00     0.000 C
ATOM     20  O5  ASG B   2      24.802  28.439  53.3420  0.00  0.00     0.000 O
ATOM     21   C  ASG B   2      25.265  26.222  52.7020  0.00  0.00     0.000 C
ATOM     22   O  ASG B   2      26.607  26.643  52.6770  0.00  0.00     0.000 O
ATOM     24  HD  ASG B   2      27.453  26.790  52.5620  0.00  0.00     0.000 HD
BRANCH 16 26
ATOM     24   N  ASG B   2      22.072  30.424  54.6590  0.00  0.00     0.000 N
ATOM     26  HD  ASG B   2      22.794  30.485  54.1840  0.00  0.00     0.000 HD
ATOM     26   C  ASG B   2      20.810  30.798  54.3750  0.00  0.00     0.000 C
ATOM     27   C  ASG B   2      20.199  31.796  55.2990  0.00  0.00     0.000 C
ATOM     28   O  ASG B   2      20.204  30.342  53.4140  0.00  0.00     0.000 OA
ENDBRANCH 16 26
BRANCH 18 29
ATOM     29   O  ASG B   2      22.455  27.015  52.2390  0.00  0.00     0.000 O
ATOM     30   O  ASG B   2      22.772  24.668  51.5810  0.00  0.00     0.000 OA
ATOM     31   O  ASG B   2      20.543  25.502  52.0570  0.00  0.00     0.000 OA
ATOM     32   O  ASG B   2      21.713  26.240  50.0740  0.00  0.00     0.000 OA
ATOM     33   S  ASG B   2      21.828  25.762  51.4520  0.00  0.00     0.000 S
ENDBRANCH 18 29
BRANCH 15 34
ATOM     34  O4  ASG B   3      24.739  30.654  53.9040  0.00  0.00     0.000 O
BRANCH 34 38
ATOM     35  C1  GCT B   3      27.493  33.606  54.1590  0.00  0.00     0.000 C
ATOM     36  C2  GCT B   3      28.007  32.338  53.5120  0.00  0.00     0.000 C
ATOM     37  C3  GCT B   3      26.853  31.457  53.0550  0.00  0.00     0.000 C
ATOM     38  C4  GCT B   3      25.987  31.093  54.2670  0.00  0.00     0.000 C
ATOM     39  C5  GCT B   3      25.933  32.236  55.3060  0.00  0.00     0.000 C
ATOM     40  O5  GCT B   3      26.147  33.441  54.5920  0.00  0.00     0.000 O
ATOM     41   O  GCT B   3      28.789  32.743  52.3980  0.00  0.00     0.000 O
ATOM     43  HD  GCT B   3      29.589  33.071  52.3370  0.00  0.00     0.000 HD
ATOM     43   O  GCT B   3      27.397  30.299  52.3860  0.00  0.00     0.000 O
ATOM     45  HD  GCT B   3      28.196  30.627  52.3260  0.00  0.00     0.000 HD
BRANCH 39 45
ATOM     45   C  GCT B   3      26.876  32.179  56.4870  0.00  0.00     0.000 C
ATOM     46   O  GCT B   3      27.667  31.192  56.6120  0.00  0.00     0.000 OA
ATOM     47   O  GCT B   3      26.849  33.123  57.2950  0.00  0.00     0.000 OA
ENDBRANCH 39 45
BRANCH 35 48
ATOM     48  O3  ASG B   4      28.485  34.215  54.7730  0.00  0.00     0.000 O
BRANCH 48 51
ATOM     49  C1  ASG B   4      29.760  37.587  53.9430  0.00  0.00     0.000 C
ATOM     50  C2  ASG B   4      29.639  36.055  53.9710  0.00  0.00     0.000 C
ATOM     51  C3  ASG B   4      28.331  35.615  54.6220  0.00  0.00     0.000 C
ATOM     52  C4  ASG B   4      28.123  36.305  55.9610  0.00  0.00     0.000 C
ATOM     53  C5  ASG B   4      28.231  37.811  55.7400  0.00  0.00     0.000 C
ATOM     54  O5  ASG B   4      29.546  38.122  55.2390  0.00  0.00     0.000 O
BRANCH 50 57
ATOM     55   N  ASG B   4      29.848  35.990  52.5420  0.00  0.00     0.000 N
ATOM     57  HD  ASG B   4      30.708  36.085  52.5480  0.00  0.00     0.000 HD
ATOM     57   O  ASG B   4      31.943  35.214  52.6880  0.00  0.00     0.000 OA
ATOM     58   C  ASG B   4      30.956  35.472  52.0060  0.00  0.00     0.000 C
ATOM     59   C  ASG B   4      30.929  35.281  50.5200  0.00  0.00     0.000 C
ENDBRANCH 50 57
BRANCH 52 60
ATOM     60   O  ASG B   4      29.191  35.728  56.8180  0.00  0.00     0.000 O
ATOM     61   O  ASG B   4      27.941  36.213  58.9230  0.00  0.00     0.000 OA
ATOM     62   O  ASG B   4      29.982  34.990  59.0120  0.00  0.00     0.000 OA
ATOM     63   O  ASG B   4      30.020  37.271  58.2940  0.00  0.00     0.000 OA
ATOM     64   S  ASG B   4      29.249  36.027  58.3920  0.00  0.00     0.000 S
ENDBRANCH 52 60
ATOM     65   O  ASG B   4      27.771  40.018  56.6350  0.00  0.00     0.000 O
ATOM     67  HD  ASG B   4      28.574  40.270  56.4330  0.00  0.00     0.000 HD
ATOM     67   O  ASG B   4      27.771  40.018  56.6350  0.00  0.00     0.000 O
ATOM     69  HD  ASG B   4      28.574  40.270  56.4330  0.00  0.00     0.000 HD
ENDBRANCH 48 51
ENDBRANCH 35 48
ENDBRANCH 34 38
ENDBRANCH 15 34
ENDBRANCH 14 17
ENDBRANCH 1 14
TORSDOF 12
ENDMDL
MODEL 21
REMARK VINA RESULT:      -7.7      5.460     12.155
ROOT
ATOM      1  C1  GAD B   1      17.359  38.698  33.3480  0.00  0.00     0.000 C
ATOM      2  C2  GAD B   1      17.094  37.636  34.4200  0.00  0.00     0.000 C
ATOM      3  C3  GAD B   1      18.418  37.022  34.8910  0.00  0.00     0.000 C
ATOM      4  C4  GAD B   1      19.504  36.952  33.8130  0.00  0.00     0.000 C
ATOM      5  C5  GAD B   1      19.400  37.513  32.5920  0.00  0.00     0.000 C
ATOM      6  O5  GAD B   1      18.162  38.179  32.2780  0.00  0.00     0.000 O
ATOM      7   O  GAD B   1      16.289  38.180  35.5300  0.00  0.00     0.000 O
ATOM      9  HD  GAD B   1      16.155  38.801  34.9420  0.00  0.00     0.000 HD
ATOM      9   O  GAD B   1      18.238  35.669  35.3660  0.00  0.00     0.000 O
ATOM     11  HD  GAD B   1      18.103  36.291  34.7780  0.00  0.00     0.000 HD
ENDROOT
BRANCH 5 11
ATOM     11   C  GAD B   1      20.484  37.543  31.5820  0.00  0.00     0.000 C
ATOM     12   O  GAD B   1      20.683  38.646  30.9850  0.00  0.00     0.000 OA
ATOM     13   O  GAD B   1      21.120  36.465  31.2860  0.00  0.00     0.000 OA
ENDBRANCH 5 11
BRANCH 1 14
ATOM     14  O3  ASG B   2      16.438  39.114  32.4590  0.00  0.00     0.000 O
BRANCH 14 17
ATOM     15  C1  ASG B   2      13.273  38.408  30.5180  0.00  0.00     0.000 C
ATOM     16  C2  ASG B   2      14.668  38.995  30.7720  0.00  0.00     0.000 C
ATOM     17  C3  ASG B   2      15.135  38.591  32.1740  0.00  0.00     0.000 C
ATOM     18  C4  ASG B   2      14.148  39.090  33.2120  0.00  0.00     0.000 C
ATOM     19  C5  ASG B   2      12.752  38.588  32.8550  0.00  0.00     0.000 C
ATOM     20  O5  ASG B   2      12.423  38.966  31.5040  0.00  0.00     0.000 O
ATOM     21   C  ASG B   2      11.687  39.167  33.7300  0.00  0.00     0.000 C
ATOM     22   O  ASG B   2      10.424  38.830  33.2100  0.00  0.00     0.000 O
ATOM     24  HD  ASG B   2       9.592  38.699  33.0090  0.00  0.00     0.000 HD
BRANCH 16 26
ATOM     24   N  ASG B   2      15.734  38.622  29.8710  0.00  0.00     0.000 N
ATOM     26  HD  ASG B   2      14.899  38.509  29.6720  0.00  0.00     0.000 HD
ATOM     26   C  ASG B   2      16.637  39.487  29.3740  0.00  0.00     0.000 C
ATOM     27   C  ASG B   2      17.848  38.883  28.7490  0.00  0.00     0.000 C
ATOM     28   O  ASG B   2      16.470  40.699  29.4340  0.00  0.00     0.000 OA
ENDBRANCH 16 26
BRANCH 18 29
ATOM     29   O  ASG B   2      14.244  40.556  33.2090  0.00  0.00     0.000 O
ATOM     30   O  ASG B   2      13.738  40.797  35.6030  0.00  0.00     0.000 OA
ATOM     31   O  ASG B   2      16.006  41.128  34.8050  0.00  0.00     0.000 OA
ATOM     32   O  ASG B   2      14.284  42.734  34.2560  0.00  0.00     0.000 OA
ATOM     33   S  ASG B   2      14.598  41.339  34.5670  0.00  0.00     0.000 S
ENDBRANCH 18 29
BRANCH 15 34
ATOM     34  O4  ASG B   3      12.755  38.716  29.2560  0.00  0.00     0.000 O
BRANCH 34 38
ATOM     35  C1  GCT B   3      10.477  35.405  28.8000  0.00  0.00     0.000 C
ATOM     36  C2  GCT B   3      11.782  35.365  28.0340  0.00  0.00     0.000 C
ATOM     37  C3  GCT B   3      12.759  36.398  28.5750  0.00  0.00     0.000 C
ATOM     38  C4  GCT B   3      12.139  37.795  28.4480  0.00  0.00     0.000 C
ATOM     39  C5  GCT B   3      10.606  37.768  28.6440  0.00  0.00     0.000 C
ATOM     40  O5  GCT B   3      10.323  36.651  29.4690  0.00  0.00     0.000 O
ATOM     41   O  GCT B   3      12.307  34.056  28.2000  0.00  0.00     0.000 O
ATOM     43  HD  GCT B   3      12.099  33.296  27.8390  0.00  0.00     0.000 HD
ATOM     43   O  GCT B   3      14.006  36.271  27.8590  0.00  0.00     0.000 O
ATOM     45  HD  GCT B   3      13.798  35.512  27.4990  0.00  0.00     0.000 HD
BRANCH 39 45
ATOM     45   C  GCT B   3       9.724  37.718  27.4160  0.00  0.00     0.000 C
ATOM     46   O  GCT B   3      10.245  37.496  26.2780  0.00  0.00     0.000 OA
ATOM     47   O  GCT B   3       8.503  37.886  27.5730  0.00  0.00     0.000 OA
ENDBRANCH 39 45
BRANCH 35 48
ATOM     48  O3  ASG B   4       9.572  34.701  28.1540  0.00  0.00     0.000 O
BRANCH 48 51
ATOM     49  C1  ASG B   4       7.300  32.381  29.9280  0.00  0.00     0.000 C
ATOM     50  C2  ASG B   4       8.546  32.905  29.1940  0.00  0.00     0.000 C
ATOM     51  C3  ASG B   4       8.494  34.422  29.0300  0.00  0.00     0.000 C
ATOM     52  C4  ASG B   4       7.164  34.866  28.4440  0.00  0.00     0.000 C
ATOM     53  C5  ASG B   4       6.047  34.298  29.3160  0.00  0.00     0.000 C
ATOM     54  O5  ASG B   4       6.122  32.859  29.2990  0.00  0.00     0.000 O
BRANCH 50 57
ATOM     55   N  ASG B   4       9.059  32.435  27.9270  0.00  0.00     0.000 N
ATOM     57  HD  ASG B   4       9.741  31.999  28.2340  0.00  0.00     0.000 HD
ATOM     57   O  ASG B   4      10.048  30.617  28.7830  0.00  0.00     0.000 OA
ATOM     58   C  ASG B   4       9.687  31.262  27.8030  0.00  0.00     0.000 C
ATOM     59   C  ASG B   4       9.965  30.822  26.3990  0.00  0.00     0.000 C
ENDBRANCH 50 57
BRANCH 52 60
ATOM     60   O  ASG B   4       7.198  34.332  27.0580  0.00  0.00     0.000 O
ATOM     61   O  ASG B   4       5.932  36.277  26.1390  0.00  0.00     0.000 OA
ATOM     62   O  ASG B   4       6.801  34.623  24.6620  0.00  0.00     0.000 OA
ATOM     63   O  ASG B   4       5.091  34.013  26.2190  0.00  0.00     0.000 OA
ATOM     64   S  ASG B   4       6.221  34.899  25.9210  0.00  0.00     0.000 S
ENDBRANCH 52 60
ATOM     65   O  ASG B   4       3.704  34.425  29.9280  0.00  0.00     0.000 O
ATOM     67  HD  ASG B   4       3.639  33.564  29.8690  0.00  0.00     0.000 HD
ATOM     67   O  ASG B   4       3.704  34.425  29.9280  0.00  0.00     0.000 O
ATOM     69  HD  ASG B   4       3.639  33.564  29.8690  0.00  0.00     0.000 HD
ENDBRANCH 48 51
ENDBRANCH 35 48
ENDBRANCH 34 38
ENDBRANCH 15 34
ENDBRANCH 14 17
ENDBRANCH 1 14
TORSDOF 12
ENDMDL
MODEL 22
REMARK VINA RESULT:      -7.6     22.067     27.874
ROOT
ATOM      1  C1  GAD B   1      25.361  31.889  54.7440  0.00  0.00     0.000 C
ATOM      2  C2  GAD B   1      26.240  32.678  55.7190  0.00  0.00     0.000 C
ATOM      3  C3  GAD B   1      27.352  33.406  54.9540  0.00  0.00     0.000 C
ATOM      4  C4  GAD B   1      27.843  32.677  53.7010  0.00  0.00     0.000 C
ATOM      5  C5  GAD B   1      27.267  31.570  53.1920  0.00  0.00     0.000 C
ATOM      6  O5  GAD B   1      26.145  31.022  53.9110  0.00  0.00     0.000 O
ATOM      7   O  GAD B   1      25.433  33.587  56.5560  0.00  0.00     0.000 O
ATOM      9  HD  GAD B   1      24.801  33.080  56.2490  0.00  0.00     0.000 HD
ATOM      9   O  GAD B   1      28.519  33.611  55.7810  0.00  0.00     0.000 O
ATOM     11  HD  GAD B   1      27.887  33.105  55.4740  0.00  0.00     0.000 HD
ENDROOT
BRANCH 5 11
ATOM     11   C  GAD B   1      27.667  30.917  51.9230  0.00  0.00     0.000 C
ATOM     12   O  GAD B   1      28.239  31.649  51.0560  0.00  0.00     0.000 OA
ATOM     13   O  GAD B   1      27.362  29.687  51.7050  0.00  0.00     0.000 OA
ENDBRANCH 5 11
BRANCH 1 14
ATOM     14  O3  ASG B   2      24.588  30.848  55.1040  0.00  0.00     0.000 O
BRANCH 14 17
ATOM     15  C1  ASG B   2      23.052  29.438  58.2560  0.00  0.00     0.000 C
ATOM     16  C2  ASG B   2      24.054  29.531  57.0960  0.00  0.00     0.000 C
ATOM     17  C3  ASG B   2      23.678  30.716  56.2030  0.00  0.00     0.000 C
ATOM     18  C4  ASG B   2      22.266  30.542  55.6770  0.00  0.00     0.000 C
ATOM     19  C5  ASG B   2      21.319  30.328  56.8540  0.00  0.00     0.000 C
ATOM     20  O5  ASG B   2      21.782  29.232  57.6670  0.00  0.00     0.000 O
ATOM     21   C  ASG B   2      19.930  29.981  56.4240  0.00  0.00     0.000 C
ATOM     22   O  ASG B   2      19.177  29.593  57.5470  0.00  0.00     0.000 O
ATOM     24  HD  ASG B   2      18.601  29.338  58.1400  0.00  0.00     0.000 HD
BRANCH 16 26
ATOM     24   N  ASG B   2      25.443  29.625  57.4820  0.00  0.00     0.000 N
ATOM     26  HD  ASG B   2      24.841  29.287  58.0030  0.00  0.00     0.000 HD
ATOM     26   C  ASG B   2      26.451  29.032  56.8160  0.00  0.00     0.000 C
ATOM     27   C  ASG B   2      27.824  29.511  57.1430  0.00  0.00     0.000 C
ATOM     28   O  ASG B   2      26.247  28.151  55.9900  0.00  0.00     0.000 OA
ENDBRANCH 16 26
BRANCH 18 29
ATOM     29   O  ASG B   2      22.302  29.395  54.7590  0.00  0.00     0.000 O
ATOM     30   O  ASG B   2      20.482  30.226  53.3290  0.00  0.00     0.000 OA
ATOM     31   O  ASG B   2      22.777  30.311  52.5420  0.00  0.00     0.000 OA
ATOM     32   O  ASG B   2      21.655  28.182  52.7720  0.00  0.00     0.000 OA
ATOM     33   S  ASG B   2      21.769  29.559  53.2510  0.00  0.00     0.000 S
ENDBRANCH 18 29
BRANCH 15 34
ATOM     34  O4  ASG B   3      23.311  28.384  59.1390  0.00  0.00     0.000 O
BRANCH 34 38
ATOM     35  C1  GCT B   3      20.196  28.990  61.6480  0.00  0.00     0.000 C
ATOM     36  C2  GCT B   3      21.514  29.526  62.1620  0.00  0.00     0.000 C
ATOM     37  C3  GCT B   3      22.522  29.664  61.0300  0.00  0.00     0.000 C
ATOM     38  C4  GCT B   3      22.749  28.290  60.3870  0.00  0.00     0.000 C
ATOM     39  C5  GCT B   3      21.467  27.428  60.3950  0.00  0.00     0.000 C
ATOM     40  O5  GCT B   3      20.373  28.328  60.4000  0.00  0.00     0.000 O
ATOM     41   O  GCT B   3      21.237  30.797  62.7330  0.00  0.00     0.000 O
ATOM     43  HD  GCT B   3      20.876  31.030  63.4850  0.00  0.00     0.000 HD
ATOM     43   O  GCT B   3      23.733  30.242  61.5610  0.00  0.00     0.000 O
ATOM     45  HD  GCT B   3      23.372  30.475  62.3130  0.00  0.00     0.000 HD
BRANCH 39 45
ATOM     45   C  GCT B   3      21.287  26.416  61.5050  0.00  0.00     0.000 C
ATOM     46   O  GCT B   3      22.156  26.338  62.4300  0.00  0.00     0.000 OA
ATOM     47   O  GCT B   3      20.273  25.699  61.4750  0.00  0.00     0.000 OA
ENDBRANCH 39 45
BRANCH 35 48
ATOM     48  O3  ASG B   4      19.443  28.634  62.6670  0.00  0.00     0.000 O
BRANCH 48 51
ATOM     49  C1  ASG B   4      15.954  29.658  61.9830  0.00  0.00     0.000 C
ATOM     50  C2  ASG B   4      17.469  29.762  62.2300  0.00  0.00     0.000 C
ATOM     51  C3  ASG B   4      18.127  28.385  62.2030  0.00  0.00     0.000 C
ATOM     52  C4  ASG B   4      17.391  27.405  63.1020  0.00  0.00     0.000 C
ATOM     53  C5  ASG B   4      15.921  27.397  62.6920  0.00  0.00     0.000 C
ATOM     54  O5  ASG B   4      15.374  28.718  62.8720  0.00  0.00     0.000 O
BRANCH 50 57
ATOM     55   N  ASG B   4      18.043  30.445  63.3650  0.00  0.00     0.000 N
ATOM     57  HD  ASG B   4      18.363  31.128  62.9390  0.00  0.00     0.000 HD
ATOM     57   O  ASG B   4      17.889  32.487  62.4600  0.00  0.00     0.000 OA
ATOM     58   C  ASG B   4      18.114  31.778  63.4350  0.00  0.00     0.000 C
ATOM     59   C  ASG B   4      18.535  32.336  64.7600  0.00  0.00     0.000 C
ENDBRANCH 50 57
BRANCH 52 60
ATOM     60   O  ASG B   4      17.648  27.927  64.4690  0.00  0.00     0.000 O
ATOM     61   O  ASG B   4      18.269  25.676  65.3510  0.00  0.00     0.000 OA
ATOM     62   O  ASG B   4      18.489  27.596  66.7420  0.00  0.00     0.000 OA
ATOM     63   O  ASG B   4      16.310  26.916  66.0290  0.00  0.00     0.000 OA
ATOM     64   S  ASG B   4      17.745  26.945  65.7320  0.00  0.00     0.000 S
ENDBRANCH 52 60
ATOM     65   O  ASG B   4      13.802  26.224  62.8090  0.00  0.00     0.000 O
ATOM     67  HD  ASG B   4      13.398  26.966  62.9960  0.00  0.00     0.000 HD
ATOM     67   O  ASG B   4      13.802  26.224  62.8090  0.00  0.00     0.000 O
ATOM     69  HD  ASG B   4      13.398  26.966  62.9960  0.00  0.00     0.000 HD
ENDBRANCH 48 51
ENDBRANCH 35 48
ENDBRANCH 34 38
ENDBRANCH 15 34
ENDBRANCH 14 17
ENDBRANCH 1 14
TORSDOF 12
ENDMDL
MODEL 23
REMARK VINA RESULT:      -7.6      3.980      6.064
ROOT
ATOM      1  C1  GAD B   1      12.772  47.110  29.3250  0.00  0.00     0.000 C
ATOM      2  C2  GAD B   1      11.260  46.943  29.5100  0.00  0.00     0.000 C
ATOM      3  C3  GAD B   1      10.524  48.167  28.9520  0.00  0.00     0.000 C
ATOM      4  C4  GAD B   1      11.297  49.483  29.0720  0.00  0.00     0.000 C
ATOM      5  C5  GAD B   1      12.578  49.576  29.4800  0.00  0.00     0.000 C
ATOM      6  O5  GAD B   1      13.235  48.355  29.8700  0.00  0.00     0.000 O
ATOM      7   O  GAD B   1      10.784  45.674  28.9280  0.00  0.00     0.000 O
ATOM      9  HD  GAD B   1      11.634  45.510  28.9450  0.00  0.00     0.000 HD
ATOM      9   O  GAD B   1       9.263  48.381  29.6260  0.00  0.00     0.000 O
ATOM     11  HD  GAD B   1      10.113  48.216  29.6420  0.00  0.00     0.000 HD
ENDROOT
BRANCH 5 11
ATOM     11   C  GAD B   1      13.368  50.829  29.4980  0.00  0.00     0.000 C
ATOM     12   O  GAD B   1      12.717  51.919  29.5370  0.00  0.00     0.000 OA
ATOM     13   O  GAD B   1      14.650  50.787  29.3950  0.00  0.00     0.000 OA
ENDBRANCH 5 11
BRANCH 1 14
ATOM     14  O3  ASG B   2      13.695  46.448  30.0480  0.00  0.00     0.000 O
BRANCH 14 17
ATOM     15  C1  ASG B   2      14.703  44.943  33.3640  0.00  0.00     0.000 C
ATOM     16  C2  ASG B   2      14.902  45.685  32.0350  0.00  0.00     0.000 C
ATOM     17  C3  ASG B   2      13.562  45.759  31.2970  0.00  0.00     0.000 C
ATOM     18  C4  ASG B   2      13.027  44.361  31.0530  0.00  0.00     0.000 C
ATOM     19  C5  ASG B   2      12.962  43.614  32.3820  0.00  0.00     0.000 C
ATOM     20  O5  ASG B   2      14.250  43.645  33.0290  0.00  0.00     0.000 O
ATOM     21   C  ASG B   2      12.603  42.172  32.2190  0.00  0.00     0.000 C
ATOM     22   O  ASG B   2      12.771  41.508  33.4470  0.00  0.00     0.000 O
ATOM     24  HD  ASG B   2      12.826  40.977  34.1290  0.00  0.00     0.000 HD
BRANCH 16 26
ATOM     24   N  ASG B   2      15.451  47.019  32.1210  0.00  0.00     0.000 N
ATOM     26  HD  ASG B   2      15.544  46.439  32.7570  0.00  0.00     0.000 HD
ATOM     26   C  ASG B   2      16.357  47.517  31.2590  0.00  0.00     0.000 C
ATOM     27   C  ASG B   2      16.550  48.994  31.2900  0.00  0.00     0.000 C
ATOM     28   O  ASG B   2      16.984  46.793  30.4940  0.00  0.00     0.000 OA
ENDBRANCH 16 26
BRANCH 18 29
ATOM     29   O  ASG B   2      13.936  43.729  30.0880  0.00  0.00     0.000 O
ATOM     30   O  ASG B   2      12.209  42.285  29.1010  0.00  0.00     0.000 OA
ATOM     31   O  ASG B   2      13.023  44.213  27.8720  0.00  0.00     0.000 OA
ATOM     32   O  ASG B   2      14.461  42.300  28.2120  0.00  0.00     0.000 OA
ATOM     33   S  ASG B   2      13.351  43.099  28.7300  0.00  0.00     0.000 S
ENDBRANCH 18 29
BRANCH 15 34
ATOM     34  O4  ASG B   3      15.873  44.826  34.1220  0.00  0.00     0.000 O
BRANCH 34 38
ATOM     35  C1  GCT B   3      18.940  42.527  35.4170  0.00  0.00     0.000 C
ATOM     36  C2  GCT B   3      19.242  43.303  34.1530  0.00  0.00     0.000 C
ATOM     37  C3  GCT B   3      18.254  44.445  33.9690  0.00  0.00     0.000 C
ATOM     38  C4  GCT B   3      16.833  43.874  33.8860  0.00  0.00     0.000 C
ATOM     39  C5  GCT B   3      16.658  42.624  34.7770  0.00  0.00     0.000 C
ATOM     40  O5  GCT B   3      17.596  42.744  35.8320  0.00  0.00     0.000 O
ATOM     41   O  GCT B   3      20.561  43.810  34.2980  0.00  0.00     0.000 O
ATOM     43  HD  GCT B   3      21.339  43.436  34.2260  0.00  0.00     0.000 HD
ATOM     43   O  GCT B   3      18.628  45.192  32.7920  0.00  0.00     0.000 O
ATOM     45  HD  GCT B   3      19.406  44.818  32.7210  0.00  0.00     0.000 HD
BRANCH 39 45
ATOM     45   C  GCT B   3      16.796  41.259  34.1370  0.00  0.00     0.000 C
ATOM     46   O  GCT B   3      16.653  40.216  34.8480  0.00  0.00     0.000 OA
ATOM     47   O  GCT B   3      17.036  41.214  32.9190  0.00  0.00     0.000 OA
ENDBRANCH 39 45
BRANCH 35 48
ATOM     48  O3  ASG B   4      19.628  41.406  35.4140  0.00  0.00     0.000 O
BRANCH 48 51
ATOM     49  C1  ASG B   4      21.879  40.209  38.0950  0.00  0.00     0.000 C
ATOM     50  C2  ASG B   4      21.415  40.852  36.7780  0.00  0.00     0.000 C
ATOM     51  C3  ASG B   4      19.900  41.028  36.7530  0.00  0.00     0.000 C
ATOM     52  C4  ASG B   4      19.189  39.738  37.1280  0.00  0.00     0.000 C
ATOM     53  C5  ASG B   4      19.737  39.268  38.4720  0.00  0.00     0.000 C
ATOM     54  O5  ASG B   4      21.151  39.018  38.3450  0.00  0.00     0.000 O
BRANCH 50 57
ATOM     55   N  ASG B   4      22.233  42.040  36.8580  0.00  0.00     0.000 N
ATOM     57  HD  ASG B   4      22.992  41.671  36.6620  0.00  0.00     0.000 HD
ATOM     57   O  ASG B   4      23.786  41.303  35.4230  0.00  0.00     0.000 OA
ATOM     58   C  ASG B   4      23.311  42.218  36.0880  0.00  0.00     0.000 C
ATOM     59   C  ASG B   4      23.923  43.585  36.1360  0.00  0.00     0.000 C
ENDBRANCH 50 57
BRANCH 52 60
ATOM     60   O  ASG B   4      19.489  38.832  35.9880  0.00  0.00     0.000 O
ATOM     61   O  ASG B   4      17.371  37.545  36.2870  0.00  0.00     0.000 OA
ATOM     62   O  ASG B   4      18.791  37.077  34.4340  0.00  0.00     0.000 OA
ATOM     63   O  ASG B   4      19.582  36.641  36.6480  0.00  0.00     0.000 OA
ATOM     64   S  ASG B   4      18.704  37.448  35.7950  0.00  0.00     0.000 S
ENDBRANCH 52 60
ATOM     65   O  ASG B   4      19.396  37.833  40.3980  0.00  0.00     0.000 O
ATOM     67  HD  ASG B   4      20.220  37.569  40.3510  0.00  0.00     0.000 HD
ATOM     67   O  ASG B   4      19.396  37.833  40.3980  0.00  0.00     0.000 O
ATOM     69  HD  ASG B   4      20.220  37.569  40.3510  0.00  0.00     0.000 HD
ENDBRANCH 48 51
ENDBRANCH 35 48
ENDBRANCH 34 38
ENDBRANCH 15 34
ENDBRANCH 14 17
ENDBRANCH 1 14
TORSDOF 12
ENDMDL
MODEL 24
REMARK VINA RESULT:      -7.6     25.205     29.881
ROOT
ATOM      1  C1  GAD B   1      11.264  58.923  49.5320  0.00  0.00     0.000 C
ATOM      2  C2  GAD B   1      12.767  58.642  49.6290  0.00  0.00     0.000 C
ATOM      3  C3  GAD B   1      13.054  57.717  50.8180  0.00  0.00     0.000 C
ATOM      4  C4  GAD B   1      12.102  57.893  52.0040  0.00  0.00     0.000 C
ATOM      5  C5  GAD B   1      10.999  58.668  51.9830  0.00  0.00     0.000 C
ATOM      6  O5  GAD B   1      10.737  59.409  50.7760  0.00  0.00     0.000 O
ATOM      7   O  GAD B   1      13.299  58.118  48.3560  0.00  0.00     0.000 O
ATOM      9  HD  GAD B   1      12.540  58.425  48.0740  0.00  0.00     0.000 HD
ATOM      9   O  GAD B   1      14.386  57.922  51.3400  0.00  0.00     0.000 O
ATOM     11  HD  GAD B   1      13.626  58.229  51.0590  0.00  0.00     0.000 HD
ENDROOT
BRANCH 5 11
ATOM     11   C  GAD B   1      10.014  58.763  53.0860  0.00  0.00     0.000 C
ATOM     12   O  GAD B   1       9.794  59.919  53.5630  0.00  0.00     0.000 OA
ATOM     13   O  GAD B   1       9.484  57.697  53.5720  0.00  0.00     0.000 OA
ENDBRANCH 5 11
BRANCH 1 14
ATOM     14  O3  ASG B   2      10.737  59.983  48.8920  0.00  0.00     0.000 O
BRANCH 14 17
ATOM     15  C1  ASG B   2       7.512  61.002  47.2070  0.00  0.00     0.000 C
ATOM     16  C2  ASG B   2       8.983  60.570  47.2900  0.00  0.00     0.000 C
ATOM     17  C3  ASG B   2       9.371  60.391  48.7610  0.00  0.00     0.000 C
ATOM     18  C4  ASG B   2       9.151  61.688  49.5160  0.00  0.00     0.000 C
ATOM     19  C5  ASG B   2       7.713  62.150  49.3060  0.00  0.00     0.000 C
ATOM     20  O5  ASG B   2       7.423  62.235  47.8970  0.00  0.00     0.000 O
ATOM     21   C  ASG B   2       7.450  63.506  49.8770  0.00  0.00     0.000 C
ATOM     22   O  ASG B   2       6.182  63.949  49.4620  0.00  0.00     0.000 O
ATOM     24  HD  ASG B   2       5.431  64.345  49.2890  0.00  0.00     0.000 HD
BRANCH 16 26
ATOM     24   N  ASG B   2       9.339  59.368  46.5720  0.00  0.00     0.000 N
ATOM     26  HD  ASG B   2       8.630  59.827  46.3820  0.00  0.00     0.000 HD
ATOM     26   C  ASG B   2      10.486  59.213  45.8850  0.00  0.00     0.000 C
ATOM     27   C  ASG B   2      10.838  57.817  45.5030  0.00  0.00     0.000 C
ATOM     28   O  ASG B   2      11.196  60.168  45.5930  0.00  0.00     0.000 OA
ENDBRANCH 16 26
BRANCH 18 29
ATOM     29   O  ASG B   2      10.138  62.645  48.9970  0.00  0.00     0.000 O
ATOM     30   O  ASG B   2      10.441  63.806  51.1420  0.00  0.00     0.000 OA
ATOM     31   O  ASG B   2      12.170  62.314  50.3170  0.00  0.00     0.000 OA
ATOM     32   O  ASG B   2      11.761  64.423  49.2080  0.00  0.00     0.000 OA
ATOM     33   S  ASG B   2      11.194  63.329  49.9970  0.00  0.00     0.000 S
ENDBRANCH 18 29
BRANCH 15 34
ATOM     34  O4  ASG B   3       7.055  61.189  45.8980  0.00  0.00     0.000 O
BRANCH 34 38
ATOM     35  C1  GCT B   3       6.177  63.609  42.7770  0.00  0.00     0.000 C
ATOM     36  C2  GCT B   3       7.645  63.260  42.8920  0.00  0.00     0.000 C
ATOM     37  C3  GCT B   3       7.844  62.038  43.7790  0.00  0.00     0.000 C
ATOM     38  C4  GCT B   3       7.282  62.332  45.1750  0.00  0.00     0.000 C
ATOM     39  C5  GCT B   3       6.041  63.252  45.1180  0.00  0.00     0.000 C
ATOM     40  O5  GCT B   3       5.438  63.042  43.8540  0.00  0.00     0.000 O
ATOM     41   O  GCT B   3       8.100  62.990  41.5730  0.00  0.00     0.000 O
ATOM     43  HD  GCT B   3       8.299  63.510  40.9100  0.00  0.00     0.000 HD
ATOM     43   O  GCT B   3       9.248  61.708  43.7980  0.00  0.00     0.000 O
ATOM     45  HD  GCT B   3       9.448  62.228  43.1340  0.00  0.00     0.000 HD
BRANCH 39 45
ATOM     45   C  GCT B   3       6.236  64.737  45.3390  0.00  0.00     0.000 C
ATOM     46   O  GCT B   3       7.410  65.199  45.4960  0.00  0.00     0.000 OA
ATOM     47   O  GCT B   3       5.225  65.458  45.3440  0.00  0.00     0.000 OA
ENDBRANCH 39 45
BRANCH 35 48
ATOM     48  O3  ASG B   4       6.055  64.802  42.2350  0.00  0.00     0.000 O
BRANCH 48 51
ATOM     49  C1  ASG B   4       4.597  65.743  38.9680  0.00  0.00     0.000 C
ATOM     50  C2  ASG B   4       5.648  65.476  40.0580  0.00  0.00     0.000 C
ATOM     51  C3  ASG B   4       5.031  64.761  41.2570  0.00  0.00     0.000 C
ATOM     52  C4  ASG B   4       3.772  65.467  41.7310  0.00  0.00     0.000 C
ATOM     53  C5  ASG B   4       2.828  65.607  40.5400  0.00  0.00     0.000 C
ATOM     54  O5  ASG B   4       3.469  66.401  39.5220  0.00  0.00     0.000 O
BRANCH 50 57
ATOM     55   N  ASG B   4       6.523  64.773  39.1480  0.00  0.00     0.000 N
ATOM     57  HD  ASG B   4       6.852  65.466  38.7460  0.00  0.00     0.000 HD
ATOM     57   O  ASG B   4       7.982  66.460  38.9430  0.00  0.00     0.000 OA
ATOM     58   C  ASG B   4       7.687  65.286  38.7390  0.00  0.00     0.000 C
ATOM     59   C  ASG B   4       8.574  64.351  37.9750  0.00  0.00     0.000 C
ENDBRANCH 50 57
BRANCH 52 60
ATOM     60   O  ASG B   4       4.279  66.754  42.2730  0.00  0.00     0.000 O
ATOM     61   O  ASG B   4       2.476  66.888  43.9940  0.00  0.00     0.000 OA
ATOM     62   O  ASG B   4       4.222  68.506  43.9790  0.00  0.00     0.000 OA
ATOM     63   O  ASG B   4       2.704  68.412  42.1330  0.00  0.00     0.000 OA
ATOM     64   S  ASG B   4       3.369  67.679  43.2150  0.00  0.00     0.000 S
ENDBRANCH 52 60
ATOM     65   O  ASG B   4       0.557  66.035  39.8070  0.00  0.00     0.000 O
ATOM     67  HD  ASG B   4       0.851  66.590  39.2100  0.00  0.00     0.000 HD
ATOM     67   O  ASG B   4       0.557  66.035  39.8070  0.00  0.00     0.000 O
ATOM     69  HD  ASG B   4       0.851  66.590  39.2100  0.00  0.00     0.000 HD
ENDBRANCH 48 51
ENDBRANCH 35 48
ENDBRANCH 34 38
ENDBRANCH 15 34
ENDBRANCH 14 17
ENDBRANCH 1 14
TORSDOF 12
ENDMDL
MODEL 25
REMARK VINA RESULT:      -7.6     29.066     35.348
ROOT
ATOM      1  C1  GAD B   1      20.984  31.746  66.6980  0.00  0.00     0.000 C
ATOM      2  C2  GAD B   1      21.180  33.249  66.9190  0.00  0.00     0.000 C
ATOM      3  C3  GAD B   1      21.024  33.588  68.4060  0.00  0.00     0.000 C
ATOM      4  C4  GAD B   1      20.032  32.698  69.1590  0.00  0.00     0.000 C
ATOM      5  C5  GAD B   1      19.447  31.602  68.6360  0.00  0.00     0.000 C
ATOM      6  O5  GAD B   1      19.747  31.287  67.2640  0.00  0.00     0.000 O
ATOM      7   O  GAD B   1      22.464  33.713  66.3580  0.00  0.00     0.000 O
ATOM      9  HD  GAD B   1      22.409  32.943  65.9650  0.00  0.00     0.000 HD
ATOM      9   O  GAD B   1      20.568  34.946  68.5960  0.00  0.00     0.000 O
ATOM     11  HD  GAD B   1      20.513  34.176  68.2040  0.00  0.00     0.000 HD
ENDROOT
BRANCH 5 11
ATOM     11   C  GAD B   1      18.569  30.675  69.3880  0.00  0.00     0.000 C
ATOM     12   O  GAD B   1      17.800  31.189  70.2580  0.00  0.00     0.000 OA
ATOM     13   O  GAD B   1      18.664  29.405  69.2060  0.00  0.00     0.000 OA
ENDBRANCH 5 11
BRANCH 1 14
ATOM     14  O3  ASG B   2      20.651  31.197  65.5150  0.00  0.00     0.000 O
BRANCH 14 17
ATOM     15  C1  ASG B   2      18.265  28.512  64.3400  0.00  0.00     0.000 C
ATOM     16  C2  ASG B   2      19.611  29.108  64.7780  0.00  0.00     0.000 C
ATOM     17  C3  ASG B   2      19.420  30.594  65.0970  0.00  0.00     0.000 C
ATOM     18  C4  ASG B   2      18.884  31.322  63.8790  0.00  0.00     0.000 C
ATOM     19  C5  ASG B   2      17.615  30.624  63.4010  0.00  0.00     0.000 C
ATOM     20  O5  ASG B   2      17.876  29.223  63.1800  0.00  0.00     0.000 O
ATOM     21   C  ASG B   2      17.106  31.171  62.1060  0.00  0.00     0.000 C
ATOM     22   O  ASG B   2      16.073  30.347  61.6250  0.00  0.00     0.000 O
ATOM     24  HD  ASG B   2      15.429  29.938  61.2150  0.00  0.00     0.000 HD
BRANCH 16 26
ATOM     24   N  ASG B   2      21.007  28.752  64.8760  0.00  0.00     0.000 N
ATOM     26  HD  ASG B   2      20.748  29.556  64.6860  0.00  0.00     0.000 HD
ATOM     26   C  ASG B   2      21.583  28.264  65.9910  0.00  0.00     0.000 C
ATOM     27   C  ASG B   2      22.923  27.637  65.8160  0.00  0.00     0.000 C
ATOM     28   O  ASG B   2      21.032  28.333  67.0830  0.00  0.00     0.000 OA
ENDBRANCH 16 26
BRANCH 18 29
ATOM     29   O  ASG B   2      19.957  31.304  62.8770  0.00  0.00     0.000 O
ATOM     30   O  ASG B   2      19.455  33.546  62.0030  0.00  0.00     0.000 OA
ATOM     31   O  ASG B   2      21.411  33.200  63.3980  0.00  0.00     0.000 OA
ATOM     32   O  ASG B   2      21.344  32.288  61.1600  0.00  0.00     0.000 OA
ATOM     33   S  ASG B   2      20.575  32.687  62.3380  0.00  0.00     0.000 S
ENDBRANCH 18 29
BRANCH 15 34
ATOM     34  O4  ASG B   3      18.329  27.150  64.0280  0.00  0.00     0.000 O
BRANCH 34 38
ATOM     35  C1  GCT B   3      18.112  25.582  67.7510  0.00  0.00     0.000 C
ATOM     36  C2  GCT B   3      18.622  24.616  66.7050  0.00  0.00     0.000 C
ATOM     37  C3  GCT B   3      19.089  25.360  65.4610  0.00  0.00     0.000 C
ATOM     38  C4  GCT B   3      17.915  26.160  64.8830  0.00  0.00     0.000 C
ATOM     39  C5  GCT B   3      16.974  26.689  65.9890  0.00  0.00     0.000 C
ATOM     40  O5  GCT B   3      17.761  26.828  67.1590  0.00  0.00     0.000 O
ATOM     41   O  GCT B   3      19.708  23.917  67.2970  0.00  0.00     0.000 O
ATOM     43  HD  GCT B   3      19.737  23.271  67.8740  0.00  0.00     0.000 HD
ATOM     43   O  GCT B   3      19.628  24.401  64.5270  0.00  0.00     0.000 O
ATOM     45  HD  GCT B   3      19.658  23.756  65.1040  0.00  0.00     0.000 HD
BRANCH 39 45
ATOM     45   C  GCT B   3      15.729  25.894  66.3150  0.00  0.00     0.000 C
ATOM     46   O  GCT B   3      14.916  26.332  67.1890  0.00  0.00     0.000 OA
ATOM     47   O  GCT B   3      15.541  24.834  65.6960  0.00  0.00     0.000 OA
ENDBRANCH 39 45
BRANCH 35 48
ATOM     48  O3  ASG B   4      17.480  24.912  68.6910  0.00  0.00     0.000 O
BRANCH 48 51
ATOM     49  C1  ASG B   4      18.483  26.603  71.8250  0.00  0.00     0.000 C
ATOM     50  C2  ASG B   4      18.597  25.891  70.4670  0.00  0.00     0.000 C
ATOM     51  C3  ASG B   4      17.235  25.776  69.7880  0.00  0.00     0.000 C
ATOM     52  C4  ASG B   4      16.195  25.201  70.7350  0.00  0.00     0.000 C
ATOM     53  C5  ASG B   4      16.186  26.050  72.0020  0.00  0.00     0.000 C
ATOM     54  O5  ASG B   4      17.485  25.987  72.6220  0.00  0.00     0.000 O
BRANCH 50 57
ATOM     55   N  ASG B   4      19.655  26.860  70.6370  0.00  0.00     0.000 N
ATOM     57  HD  ASG B   4      20.278  26.309  70.8800  0.00  0.00     0.000 HD
ATOM     57   O  ASG B   4      21.312  25.410  70.2290  0.00  0.00     0.000 OA
ATOM     58   C  ASG B   4      20.937  26.565  70.4000  0.00  0.00     0.000 C
ATOM     59   C  ASG B   4      21.882  27.728  70.4130  0.00  0.00     0.000 C
ENDBRANCH 50 57
BRANCH 52 60
ATOM     60   O  ASG B   4      16.643  23.798  70.9330  0.00  0.00     0.000 O
ATOM     61   O  ASG B   4      14.663  22.860  69.7380  0.00  0.00     0.000 OA
ATOM     62   O  ASG B   4      16.406  21.409  70.4650  0.00  0.00     0.000 OA
ATOM     63   O  ASG B   4      15.099  22.571  72.0960  0.00  0.00     0.000 OA
ATOM     64   S  ASG B   4      15.639  22.565  70.7330  0.00  0.00     0.000 S
ENDBRANCH 52 60
ATOM     65   O  ASG B   4      14.973  26.658  74.0130  0.00  0.00     0.000 O
ATOM     67  HD  ASG B   4      15.698  26.572  74.4790  0.00  0.00     0.000 HD
ATOM     67   O  ASG B   4      14.973  26.658  74.0130  0.00  0.00     0.000 O
ATOM     69  HD  ASG B   4      15.698  26.572  74.4790  0.00  0.00     0.000 HD
ENDBRANCH 48 51
ENDBRANCH 35 48
ENDBRANCH 34 38
ENDBRANCH 15 34
ENDBRANCH 14 17
ENDBRANCH 1 14
TORSDOF 12
ENDMDL
MODEL 26
REMARK VINA RESULT:      -7.5      2.631     10.018
ROOT
ATOM      1  C1  GAD B   1      20.764  36.803  38.8520  0.00  0.00     0.000 C
ATOM      2  C2  GAD B   1      19.367  36.738  39.4770  0.00  0.00     0.000 C
ATOM      3  C3  GAD B   1      19.225  35.462  40.3160  0.00  0.00     0.000 C
ATOM      4  C4  GAD B   1      20.025  34.266  39.7940  0.00  0.00     0.000 C
ATOM      5  C5  GAD B   1      20.913  34.330  38.7820  0.00  0.00     0.000 C
ATOM      6  O5  GAD B   1      21.074  35.603  38.1280  0.00  0.00     0.000 O
ATOM      7   O  GAD B   1      19.062  37.962  40.2410  0.00  0.00     0.000 O
ATOM      9  HD  GAD B   1      19.745  38.245  39.7910  0.00  0.00     0.000 HD
ATOM      9   O  GAD B   1      17.849  35.024  40.3870  0.00  0.00     0.000 O
ATOM     11  HD  GAD B   1      18.532  35.307  39.9360  0.00  0.00     0.000 HD
ENDROOT
BRANCH 5 11
ATOM     11   C  GAD B   1      21.769  33.205  38.3390  0.00  0.00     0.000 C
ATOM     12   O  GAD B   1      22.018  33.127  37.0960  0.00  0.00     0.000 OA
ATOM     13   O  GAD B   1      22.159  32.318  39.1840  0.00  0.00     0.000 OA
ENDBRANCH 5 11
BRANCH 1 14
ATOM     14  O3  ASG B   2      21.069  37.540  37.7680  0.00  0.00     0.000 O
BRANCH 14 17
ATOM     15  C1  ASG B   2      20.093  40.819  36.1630  0.00  0.00     0.000 C
ATOM     16  C2  ASG B   2      20.151  39.294  36.3290  0.00  0.00     0.000 C
ATOM     17  C3  ASG B   2      20.987  38.956  37.5670  0.00  0.00     0.000 C
ATOM     18  C4  ASG B   2      22.383  39.531  37.4230  0.00  0.00     0.000 C
ATOM     19  C5  ASG B   2      22.279  41.026  37.1350  0.00  0.00     0.000 C
ATOM     20  O5  ASG B   2      21.431  41.250  35.9910  0.00  0.00     0.000 O
ATOM     21   C  ASG B   2      23.600  41.647  36.8130  0.00  0.00     0.000 C
ATOM     22   O  ASG B   2      23.397  42.962  36.3550  0.00  0.00     0.000 O
ATOM     24  HD  ASG B   2      23.423  43.776  36.0620  0.00  0.00     0.000 HD
BRANCH 16 26
ATOM     24   N  ASG B   2      19.766  38.089  35.6310  0.00  0.00     0.000 N
ATOM     26  HD  ASG B   2      20.486  38.136  36.1100  0.00  0.00     0.000 HD
ATOM     26   C  ASG B   2      18.615  37.426  35.8530  0.00  0.00     0.000 C
ATOM     27   C  ASG B   2      18.229  36.421  34.8220  0.00  0.00     0.000 C
ATOM     28   O  ASG B   2      17.930  37.640  36.8450  0.00  0.00     0.000 OA
ENDBRANCH 16 26
BRANCH 18 29
ATOM     29   O  ASG B   2      23.031  38.786  36.3360  0.00  0.00     0.000 O
ATOM     30   O  ASG B   2      25.281  38.909  37.3200  0.00  0.00     0.000 OA
ATOM     31   O  ASG B   2      24.050  36.818  37.3700  0.00  0.00     0.000 OA
ATOM     32   O  ASG B   2      24.895  37.674  35.2730  0.00  0.00     0.000 OA
ATOM     33   S  ASG B   2      24.403  37.995  36.6130  0.00  0.00     0.000 S
ENDBRANCH 18 29
BRANCH 15 34
ATOM     34  O4  ASG B   3      19.344  41.236  35.0570  0.00  0.00     0.000 O
BRANCH 34 38
ATOM     35  C1  GCT B   3      15.860  42.161  33.2220  0.00  0.00     0.000 C
ATOM     36  C2  GCT B   3      15.938  42.619  34.6620  0.00  0.00     0.000 C
ATOM     37  C3  GCT B   3      17.381  42.640  35.1470  0.00  0.00     0.000 C
ATOM     38  C4  GCT B   3      17.973  41.230  35.0300  0.00  0.00     0.000 C
ATOM     39  C5  GCT B   3      17.409  40.464  33.8120  0.00  0.00     0.000 C
ATOM     40  O5  GCT B   3      17.033  41.442  32.8580  0.00  0.00     0.000 O
ATOM     41   O  GCT B   3      15.387  43.928  34.7000  0.00  0.00     0.000 O
ATOM     43  HD  GCT B   3      14.570  44.214  34.6770  0.00  0.00     0.000 HD
ATOM     43   O  GCT B   3      17.405  43.149  36.4970  0.00  0.00     0.000 O
ATOM     45  HD  GCT B   3      16.588  43.436  36.4750  0.00  0.00     0.000 HD
BRANCH 39 45
ATOM     45   C  GCT B   3      16.254  39.511  34.0330  0.00  0.00     0.000 C
ATOM     46   O  GCT B   3      15.829  38.805  33.0650  0.00  0.00     0.000 OA
ATOM     47   O  GCT B   3      15.769  39.446  35.1750  0.00  0.00     0.000 OA
ENDBRANCH 39 45
BRANCH 35 48
ATOM     48  O3  ASG B   4      14.607  41.900  32.9160  0.00  0.00     0.000 O
BRANCH 48 51
ATOM     49  C1  ASG B   4      13.174  43.384  29.8440  0.00  0.00     0.000 C
ATOM     50  C2  ASG B   4      13.650  43.255  31.3010  0.00  0.00     0.000 C
ATOM     51  C3  ASG B   4      14.451  41.974  31.5090  0.00  0.00     0.000 C
ATOM     52  C4  ASG B   4      13.709  40.765  30.9630  0.00  0.00     0.000 C
ATOM     53  C5  ASG B   4      13.355  41.045  29.5050  0.00  0.00     0.000 C
ATOM     54  O5  ASG B   4      12.499  42.203  29.4410  0.00  0.00     0.000 O
BRANCH 50 57
ATOM     55   N  ASG B   4      14.328  44.531  31.3180  0.00  0.00     0.000 N
ATOM     57  HD  ASG B   4      13.626  45.034  31.3850  0.00  0.00     0.000 HD
ATOM     57   O  ASG B   4      12.728  45.585  32.4770  0.00  0.00     0.000 OA
ATOM     58   C  ASG B   4      13.859  45.580  32.0000  0.00  0.00     0.000 C
ATOM     59   C  ASG B   4      14.781  46.757  32.0940  0.00  0.00     0.000 C
ENDBRANCH 50 57
BRANCH 52 60
ATOM     60   O  ASG B   4      12.539  40.637  31.8690  0.00  0.00     0.000 O
ATOM     61   O  ASG B   4      12.753  38.153  32.0040  0.00  0.00     0.000 OA
ATOM     62   O  ASG B   4      11.137  39.278  33.3430  0.00  0.00     0.000 OA
ATOM     63   O  ASG B   4      10.906  39.311  30.9630  0.00  0.00     0.000 OA
ATOM     64   S  ASG B   4      11.819  39.224  32.1060  0.00  0.00     0.000 S
ENDBRANCH 52 60
ATOM     65   O  ASG B   4      12.665  40.100  27.3810  0.00  0.00     0.000 O
ATOM     67  HD  ASG B   4      12.069  40.722  27.2940  0.00  0.00     0.000 HD
ATOM     67   O  ASG B   4      12.665  40.100  27.3810  0.00  0.00     0.000 O
ATOM     69  HD  ASG B   4      12.069  40.722  27.2940  0.00  0.00     0.000 HD
ENDBRANCH 48 51
ENDBRANCH 35 48
ENDBRANCH 34 38
ENDBRANCH 15 34
ENDBRANCH 14 17
ENDBRANCH 1 14
TORSDOF 12
ENDMDL
MODEL 27
REMARK VINA RESULT:      -7.5      6.808     13.262
ROOT
ATOM      1  C1  GAD B   1      14.475  38.161  32.1720  0.00  0.00     0.000 C
ATOM      2  C2  GAD B   1      15.972  37.840  32.1430  0.00  0.00     0.000 C
ATOM      3  C3  GAD B   1      16.502  37.675  33.5720  0.00  0.00     0.000 C
ATOM      4  C4  GAD B   1      15.796  38.544  34.6160  0.00  0.00     0.000 C
ATOM      5  C5  GAD B   1      14.697  39.284  34.3700  0.00  0.00     0.000 C
ATOM      6  O5  GAD B   1      14.192  39.283  33.0210  0.00  0.00     0.000 O
ATOM      7   O  GAD B   1      16.255  36.671  31.2890  0.00  0.00     0.000 O
ATOM      9  HD  GAD B   1      15.450  36.847  31.0230  0.00  0.00     0.000 HD
ATOM      9   O  GAD B   1      17.907  38.005  33.6590  0.00  0.00     0.000 O
ATOM     11  HD  GAD B   1      17.101  38.181  33.3930  0.00  0.00     0.000 HD
ENDROOT
BRANCH 5 11
ATOM     11   C  GAD B   1      13.944  40.044  35.3950  0.00  0.00     0.000 C
ATOM     12   O  GAD B   1      13.082  39.400  36.0710  0.00  0.00     0.000 OA
ATOM     13   O  GAD B   1      14.119  41.312  35.5170  0.00  0.00     0.000 OA
ENDBRANCH 5 11
BRANCH 1 14
ATOM     14  O3  ASG B   2      13.814  38.757  31.1610  0.00  0.00     0.000 O
BRANCH 14 17
ATOM     15  C1  ASG B   2      10.302  38.819  29.7690  0.00  0.00     0.000 C
ATOM     16  C2  ASG B   2      11.781  38.417  29.8420  0.00  0.00     0.000 C
ATOM     17  C3  ASG B   2      12.430  39.104  31.0470  0.00  0.00     0.000 C
ATOM     18  C4  ASG B   2      12.291  40.610  30.9210  0.00  0.00     0.000 C
ATOM     19  C5  ASG B   2      10.819  40.960  30.7260  0.00  0.00     0.000 C
ATOM     20  O5  ASG B   2      10.281  40.225  29.6080  0.00  0.00     0.000 O
ATOM     21   C  ASG B   2      10.603  42.408  30.4270  0.00  0.00     0.000 C
ATOM     22   O  ASG B   2       9.263  42.612  30.0520  0.00  0.00     0.000 O
ATOM     24  HD  ASG B   2       8.477  42.883  29.8080  0.00  0.00     0.000 HD
BRANCH 16 26
ATOM     24   N  ASG B   2      12.734  37.678  29.0450  0.00  0.00     0.000 N
ATOM     26  HD  ASG B   2      12.950  38.398  29.4760  0.00  0.00     0.000 HD
ATOM     26   C  ASG B   2      13.070  36.395  29.2720  0.00  0.00     0.000 C
ATOM     27   C  ASG B   2      13.791  35.702  28.1670  0.00  0.00     0.000 C
ATOM     28   O  ASG B   2      12.798  35.834  30.3260  0.00  0.00     0.000 OA
ENDBRANCH 16 26
BRANCH 18 29
ATOM     29   O  ASG B   2      13.128  41.012  29.7830  0.00  0.00     0.000 O
ATOM     30   O  ASG B   2      13.789  43.164  30.7710  0.00  0.00     0.000 OA
ATOM     31   O  ASG B   2      15.382  41.335  30.6750  0.00  0.00     0.000 OA
ATOM     32   O  ASG B   2      14.698  42.451  28.6420  0.00  0.00     0.000 OA
ATOM     33   S  ASG B   2      14.328  42.058  30.0020  0.00  0.00     0.000 S
ENDBRANCH 18 29
BRANCH 15 34
ATOM     34  O4  ASG B   3       9.613  38.237  28.7000  0.00  0.00     0.000 O
BRANCH 34 38
ATOM     35  C1  GCT B   3       7.991  34.876  27.1390  0.00  0.00     0.000 C
ATOM     36  C2  GCT B   3       6.985  35.799  27.7910  0.00  0.00     0.000 C
ATOM     37  C3  GCT B   3       7.562  37.198  27.9570  0.00  0.00     0.000 C
ATOM     38  C4  GCT B   3       8.822  37.124  28.8290  0.00  0.00     0.000 C
ATOM     39  C5  GCT B   3       9.607  35.812  28.6020  0.00  0.00     0.000 C
ATOM     40  O5  GCT B   3       9.312  35.386  27.2830  0.00  0.00     0.000 O
ATOM     41   O  GCT B   3       5.853  35.832  26.9340  0.00  0.00     0.000 O
ATOM     43  HD  GCT B   3       5.211  35.267  26.7980  0.00  0.00     0.000 HD
ATOM     43   O  GCT B   3       6.543  38.052  28.5170  0.00  0.00     0.000 O
ATOM     45  HD  GCT B   3       5.901  37.487  28.3810  0.00  0.00     0.000 HD
BRANCH 39 45
ATOM     45   C  GCT B   3       9.380  34.663  29.5610  0.00  0.00     0.000 C
ATOM     46   O  GCT B   3       8.494  34.767  30.4670  0.00  0.00     0.000 OA
ATOM     47   O  GCT B   3      10.070  33.641  29.4120  0.00  0.00     0.000 OA
ENDBRANCH 39 45
BRANCH 35 48
ATOM     48  O3  ASG B   4       7.574  33.632  27.2480  0.00  0.00     0.000 O
BRANCH 48 51
ATOM     49  C1  ASG B   4       7.159  31.160  24.5270  0.00  0.00     0.000 C
ATOM     50  C2  ASG B   4       6.802  32.208  25.5940  0.00  0.00     0.000 C
ATOM     51  C3  ASG B   4       8.054  32.887  26.1420  0.00  0.00     0.000 C
ATOM     52  C4  ASG B   4       9.095  31.863  26.5640  0.00  0.00     0.000 C
ATOM     53  C5  ASG B   4       9.359  30.939  25.3780  0.00  0.00     0.000 C
ATOM     54  O5  ASG B   4       8.137  30.262  25.0260  0.00  0.00     0.000 O
BRANCH 50 57
ATOM     55   N  ASG B   4       5.907  32.813  24.6340  0.00  0.00     0.000 N
ATOM     57  HD  ASG B   4       5.239  32.273  24.7440  0.00  0.00     0.000 HD
ATOM     57   O  ASG B   4       4.036  32.131  25.6580  0.00  0.00     0.000 OA
ATOM     58   C  ASG B   4       4.581  32.817  24.7980  0.00  0.00     0.000 C
ATOM     59   C  ASG B   4       3.811  33.665  23.8340  0.00  0.00     0.000 C
ENDBRANCH 50 57
BRANCH 52 60
ATOM     60   O  ASG B   4       8.474  31.199  27.7390  0.00  0.00     0.000 O
ATOM     61   O  ASG B   4      10.660  30.313  28.5560  0.00  0.00     0.000 OA
ATOM     62   O  ASG B   4       8.694  30.011  29.8660  0.00  0.00     0.000 OA
ATOM     63   O  ASG B   4       8.850  28.940  27.7330  0.00  0.00     0.000 OA
ATOM     64   S  ASG B   4       9.255  30.073  28.5700  0.00  0.00     0.000 S
ENDBRANCH 52 60
ATOM     65   O  ASG B   4      10.851  29.301  24.3930  0.00  0.00     0.000 O
ATOM     67  HD  ASG B   4      10.175  28.793  24.2070  0.00  0.00     0.000 HD
ATOM     67   O  ASG B   4      10.851  29.301  24.3930  0.00  0.00     0.000 O
ATOM     69  HD  ASG B   4      10.175  28.793  24.2070  0.00  0.00     0.000 HD
ENDBRANCH 48 51
ENDBRANCH 35 48
ENDBRANCH 34 38
ENDBRANCH 15 34
ENDBRANCH 14 17
ENDBRANCH 1 14
TORSDOF 12
ENDMDL
MODEL 28
REMARK VINA RESULT:      -7.5     47.301     50.665
ROOT
ATOM      1  C1  GAD B   1       8.457  49.387  84.4010  0.00  0.00     0.000 C
ATOM      2  C2  GAD B   1       8.142  49.215  85.8900  0.00  0.00     0.000 C
ATOM      3  C3  GAD B   1       7.931  50.585  86.5460  0.00  0.00     0.000 C
ATOM      4  C4  GAD B   1       8.764  51.716  85.9360  0.00  0.00     0.000 C
ATOM      5  C5  GAD B   1       9.508  51.593  84.8190  0.00  0.00     0.000 C
ATOM      6  O5  GAD B   1       9.550  50.295  84.1950  0.00  0.00     0.000 O
ATOM      7   O  GAD B   1       7.002  48.301  86.0960  0.00  0.00     0.000 O
ATOM      9  HD  GAD B   1       7.184  48.113  85.2700  0.00  0.00     0.000 HD
ATOM      9   O  GAD B   1       8.263  50.557  87.9520  0.00  0.00     0.000 O
ATOM     11  HD  GAD B   1       8.445  50.370  87.1260  0.00  0.00     0.000 HD
ENDROOT
BRANCH 5 11
ATOM     11   C  GAD B   1      10.232  52.706  84.1610  0.00  0.00     0.000 C
ATOM     12   O  GAD B   1      10.053  52.849  82.9110  0.00  0.00     0.000 OA
ATOM     13   O  GAD B   1      11.060  53.425  84.8330  0.00  0.00     0.000 OA
ENDBRANCH 5 11
BRANCH 1 14
ATOM     14  O3  ASG B   2       9.083  48.459  83.6530  0.00  0.00     0.000 O
BRANCH 14 17
ATOM     15  C1  ASG B   2       9.297  44.691  83.4680  0.00  0.00     0.000 C
ATOM     16  C2  ASG B   2       9.759  46.113  83.8160  0.00  0.00     0.000 C
ATOM     17  C3  ASG B   2       8.699  47.114  83.3470  0.00  0.00     0.000 C
ATOM     18  C4  ASG B   2       8.479  46.974  81.8530  0.00  0.00     0.000 C
ATOM     19  C5  ASG B   2       8.143  45.521  81.5330  0.00  0.00     0.000 C
ATOM     20  O5  ASG B   2       9.165  44.651  82.0590  0.00  0.00     0.000 O
ATOM     21   C  ASG B   2       8.072  45.253  80.0640  0.00  0.00     0.000 C
ATOM     22   O  ASG B   2       7.973  43.867  79.8470  0.00  0.00     0.000 O
ATOM     24  HD  ASG B   2       7.907  43.050  79.5670  0.00  0.00     0.000 HD
BRANCH 16 26
ATOM     24   N  ASG B   2      10.174  46.231  85.1950  0.00  0.00     0.000 N
ATOM     26  HD  ASG B   2      10.282  45.502  84.7400  0.00  0.00     0.000 HD
ATOM     26   C  ASG B   2      11.080  47.124  85.6350  0.00  0.00     0.000 C
ATOM     27   C  ASG B   2      11.130  47.334  87.1090  0.00  0.00     0.000 C
ATOM     28   O  ASG B   2      11.817  47.726  84.8650  0.00  0.00     0.000 OA
ENDBRANCH 16 26
BRANCH 18 29
ATOM     29   O  ASG B   2       9.716  47.430  81.2050  0.00  0.00     0.000 O
ATOM     30   O  ASG B   2       8.574  48.412  79.2620  0.00  0.00     0.000 OA
ATOM     31   O  ASG B   2       9.512  49.855  80.9740  0.00  0.00     0.000 OA
ATOM     32   O  ASG B   2      10.976  48.605  79.5110  0.00  0.00     0.000 OA
ATOM     33   S  ASG B   2       9.673  48.663  80.1750  0.00  0.00     0.000 S
ENDBRANCH 18 29
BRANCH 15 34
ATOM     34  O4  ASG B   3      10.197  43.696  83.8610  0.00  0.00     0.000 O
BRANCH 34 38
ATOM     35  C1  GCT B   3      10.187  39.651  83.8890  0.00  0.00     0.000 C
ATOM     36  C2  GCT B   3      11.421  40.259  83.2580  0.00  0.00     0.000 C
ATOM     37  C3  GCT B   3      11.572  41.719  83.6610  0.00  0.00     0.000 C
ATOM     38  C4  GCT B   3      10.332  42.498  83.2060  0.00  0.00     0.000 C
ATOM     39  C5  GCT B   3       9.049  41.639  83.2760  0.00  0.00     0.000 C
ATOM     40  O5  GCT B   3       9.269  40.665  84.2810  0.00  0.00     0.000 O
ATOM     41   O  GCT B   3      12.528  39.502  83.7250  0.00  0.00     0.000 O
ATOM     43  HD  GCT B   3      12.831  38.720  83.5070  0.00  0.00     0.000 HD
ATOM     43   O  GCT B   3      12.795  42.229  83.0910  0.00  0.00     0.000 O
ATOM     45  HD  GCT B   3      13.098  41.447  82.8730  0.00  0.00     0.000 HD
BRANCH 39 45
ATOM     45   C  GCT B   3       8.571  40.955  82.0130  0.00  0.00     0.000 C
ATOM     46   O  GCT B   3       9.203  41.135  80.9250  0.00  0.00     0.000 OA
ATOM     47   O  GCT B   3       7.572  40.222  82.0950  0.00  0.00     0.000 OA
ENDBRANCH 39 45
BRANCH 35 48
ATOM     48  O3  ASG B   4       9.937  38.489  83.3240  0.00  0.00     0.000 O
BRANCH 48 51
ATOM     49  C1  ASG B   4       9.808  36.521  86.4550  0.00  0.00     0.000 C
ATOM     50  C2  ASG B   4      10.249  37.580  85.4310  0.00  0.00     0.000 C
ATOM     51  C3  ASG B   4       9.275  37.655  84.2590  0.00  0.00     0.000 C
ATOM     52  C4  ASG B   4       8.999  36.275  83.6840  0.00  0.00     0.000 C
ATOM     53  C5  ASG B   4       8.532  35.371  84.8210  0.00  0.00     0.000 C
ATOM     54  O5  ASG B   4       9.577  35.279  85.8090  0.00  0.00     0.000 O
BRANCH 50 57
ATOM     55   N  ASG B   4      10.378  38.064  86.7860  0.00  0.00     0.000 N
ATOM     57  HD  ASG B   4      11.229  37.931  86.8750  0.00  0.00     0.000 HD
ATOM     57   O  ASG B   4      12.527  38.658  86.5750  0.00  0.00     0.000 OA
ATOM     58   C  ASG B   4      11.486  38.667  87.2260  0.00  0.00     0.000 C
ATOM     59   C  ASG B   4      11.385  39.301  88.5790  0.00  0.00     0.000 C
ENDBRANCH 50 57
BRANCH 52 60
ATOM     60   O  ASG B   4      10.298  35.885  83.0780  0.00  0.00     0.000 O
ATOM     61   O  ASG B   4       9.239  35.230  80.9140  0.00  0.00     0.000 OA
ATOM     62   O  ASG B   4      11.610  35.208  81.1280  0.00  0.00     0.000 OA
ATOM     63   O  ASG B   4      10.308  33.687  82.4350  0.00  0.00     0.000 OA
ATOM     64   S  ASG B   4      10.363  34.984  81.7540  0.00  0.00     0.000 S
ENDBRANCH 52 60
ATOM     65   O  ASG B   4       7.425  33.300  85.4260  0.00  0.00     0.000 O
ATOM     67  HD  ASG B   4       8.053  33.127  85.9960  0.00  0.00     0.000 HD
ATOM     67   O  ASG B   4       7.425  33.300  85.4260  0.00  0.00     0.000 O
ATOM     69  HD  ASG B   4       8.053  33.127  85.9960  0.00  0.00     0.000 HD
ENDBRANCH 48 51
ENDBRANCH 35 48
ENDBRANCH 34 38
ENDBRANCH 15 34
ENDBRANCH 14 17
ENDBRANCH 1 14
TORSDOF 12
ENDMDL
MODEL 29
REMARK VINA RESULT:      -7.4     17.637     22.556
ROOT
ATOM      1  C1  GAD B   1      18.834  50.746  56.6140  0.00  0.00     0.000 C
ATOM      2  C2  GAD B   1      19.127  49.577  57.5600  0.00  0.00     0.000 C
ATOM      3  C3  GAD B   1      18.171  49.617  58.7580  0.00  0.00     0.000 C
ATOM      4  C4  GAD B   1      17.745  51.025  59.1840  0.00  0.00     0.000 C
ATOM      5  C5  GAD B   1      18.036  52.147  58.4960  0.00  0.00     0.000 C
ATOM      6  O5  GAD B   1      18.839  52.002  57.3100  0.00  0.00     0.000 O
ATOM      7   O  GAD B   1      19.097  48.286  56.8470  0.00  0.00     0.000 O
ATOM      9  HD  GAD B   1      19.142  48.821  56.1670  0.00  0.00     0.000 HD
ATOM      9   O  GAD B   1      18.759  49.005  59.9280  0.00  0.00     0.000 O
ATOM     11  HD  GAD B   1      18.804  49.540  59.2480  0.00  0.00     0.000 HD
ENDROOT
BRANCH 5 11
ATOM     11   C  GAD B   1      17.540  53.500  58.8410  0.00  0.00     0.000 C
ATOM     12   O  GAD B   1      18.212  54.487  58.4070  0.00  0.00     0.000 OA
ATOM     13   O  GAD B   1      16.522  53.637  59.6140  0.00  0.00     0.000 OA
ENDBRANCH 5 11
BRANCH 1 14
ATOM     14  O3  ASG B   2      19.719  51.232  55.7240  0.00  0.00     0.000 O
BRANCH 14 17
ATOM     15  C1  ASG B   2      21.895  50.465  52.7310  0.00  0.00     0.000 C
ATOM     16  C2  ASG B   2      21.559  51.012  54.1260  0.00  0.00     0.000 C
ATOM     17  C3  ASG B   2      20.082  50.742  54.4280  0.00  0.00     0.000 C
ATOM     18  C4  ASG B   2      19.209  51.394  53.3730  0.00  0.00     0.000 C
ATOM     19  C5  ASG B   2      19.656  50.921  51.9940  0.00  0.00     0.000 C
ATOM     20  O5  ASG B   2      21.066  51.164  51.8210  0.00  0.00     0.000 O
ATOM     21   C  ASG B   2      18.961  51.639  50.8820  0.00  0.00     0.000 C
ATOM     22   O  ASG B   2      19.571  51.306  49.6590  0.00  0.00     0.000 O
ATOM     24  HD  ASG B   2      19.842  51.191  48.8450  0.00  0.00     0.000 HD
BRANCH 16 26
ATOM     24   N  ASG B   2      22.335  50.501  55.2320  0.00  0.00     0.000 N
ATOM     26  HD  ASG B   2      22.606  50.443  54.4110  0.00  0.00     0.000 HD
ATOM     26   C  ASG B   2      22.789  51.259  56.2470  0.00  0.00     0.000 C
ATOM     27   C  ASG B   2      23.264  50.523  57.4530  0.00  0.00     0.000 C
ATOM     28   O  ASG B   2      22.809  52.482  56.1790  0.00  0.00     0.000 OA
ENDBRANCH 16 26
BRANCH 18 29
ATOM     29   O  ASG B   2      19.354  52.846  53.5520  0.00  0.00     0.000 O
ATOM     30   O  ASG B   2      17.156  53.386  52.5940  0.00  0.00     0.000 OA
ATOM     31   O  ASG B   2      17.504  53.544  54.9910  0.00  0.00     0.000 OA
ATOM     32   O  ASG B   2      18.567  55.130  53.5070  0.00  0.00     0.000 OA
ATOM     33   S  ASG B   2      18.046  53.772  53.6720  0.00  0.00     0.000 S
ENDBRANCH 18 29
BRANCH 15 34
ATOM     34  O4  ASG B   3      23.229  50.658  52.3580  0.00  0.00     0.000 O
BRANCH 34 38
ATOM     35  C1  GCT B   3      25.462  49.733  49.1140  0.00  0.00     0.000 C
ATOM     36  C2  GCT B   3      25.581  51.176  49.5520  0.00  0.00     0.000 C
ATOM     37  C3  GCT B   3      25.090  51.350  50.9830  0.00  0.00     0.000 C
ATOM     38  C4  GCT B   3      23.623  50.913  51.0690  0.00  0.00     0.000 C
ATOM     39  C5  GCT B   3      23.310  49.741  50.1120  0.00  0.00     0.000 C
ATOM     40  O5  GCT B   3      24.525  49.035  49.9260  0.00  0.00     0.000 O
ATOM     41   O  GCT B   3      26.958  51.514  49.4590  0.00  0.00     0.000 O
ATOM     43  HD  GCT B   3      27.465  51.702  48.7830  0.00  0.00     0.000 HD
ATOM     43   O  GCT B   3      25.290  52.726  51.3730  0.00  0.00     0.000 O
ATOM     45  HD  GCT B   3      25.797  52.913  50.6970  0.00  0.00     0.000 HD
BRANCH 39 45
ATOM     45   C  GCT B   3      22.704  50.056  48.7620  0.00  0.00     0.000 C
ATOM     46   O  GCT B   3      22.419  51.260  48.4680  0.00  0.00     0.000 OA
ATOM     47   O  GCT B   3      22.519  49.112  47.9760  0.00  0.00     0.000 OA
ENDBRANCH 39 45
BRANCH 35 48
ATOM     48  O3  ASG B   4      25.638  49.657  47.8120  0.00  0.00     0.000 O
BRANCH 48 51
ATOM     49  C1  ASG B   4      28.547  47.549  46.9280  0.00  0.00     0.000 C
ATOM     50  C2  ASG B   4      27.734  48.730  47.4850  0.00  0.00     0.000 C
ATOM     51  C3  ASG B   4      26.241  48.414  47.5000  0.00  0.00     0.000 C
ATOM     52  C4  ASG B   4      25.777  47.887  46.1520  0.00  0.00     0.000 C
ATOM     53  C5  ASG B   4      26.658  46.699  45.7770  0.00  0.00     0.000 C
ATOM     54  O5  ASG B   4      28.026  47.141  45.6740  0.00  0.00     0.000 O
BRANCH 50 57
ATOM     55   N  ASG B   4      28.728  48.591  48.5240  0.00  0.00     0.000 N
ATOM     57  HD  ASG B   4      29.331  49.106  48.1760  0.00  0.00     0.000 HD
ATOM     57   O  ASG B   4      29.680  50.583  48.1480  0.00  0.00     0.000 OA
ATOM     58   C  ASG B   4      29.566  49.581  48.8480  0.00  0.00     0.000 C
ATOM     59   C  ASG B   4      30.386  49.359  50.0810  0.00  0.00     0.000 C
ENDBRANCH 50 57
BRANCH 52 60
ATOM     60   O  ASG B   4      25.910  49.063  45.2540  0.00  0.00     0.000 O
ATOM     61   O  ASG B   4      23.457  49.161  44.8050  0.00  0.00     0.000 OA
ATOM     62   O  ASG B   4      24.888  50.859  43.9440  0.00  0.00     0.000 OA
ATOM     63   O  ASG B   4      25.129  48.616  43.1480  0.00  0.00     0.000 OA
ATOM     64   S  ASG B   4      24.730  49.489  44.2560  0.00  0.00     0.000 S
ENDBRANCH 52 60
ATOM     65   O  ASG B   4      26.913  44.745  44.3640  0.00  0.00     0.000 O
ATOM     67  HD  ASG B   4      27.729  44.975  44.1870  0.00  0.00     0.000 HD
ATOM     67   O  ASG B   4      26.913  44.745  44.3640  0.00  0.00     0.000 O
ATOM     69  HD  ASG B   4      27.729  44.975  44.1870  0.00  0.00     0.000 HD
ENDBRANCH 48 51
ENDBRANCH 35 48
ENDBRANCH 34 38
ENDBRANCH 15 34
ENDBRANCH 14 17
ENDBRANCH 1 14
TORSDOF 12
ENDMDL
MODEL 30
REMARK VINA RESULT:      -7.4     29.164     35.535
ROOT
ATOM      1  C1  GAD B   1      20.157  32.762  66.6340  0.00  0.00     0.000 C
ATOM      2  C2  GAD B   1      19.964  32.469  68.1250  0.00  0.00     0.000 C
ATOM      3  C3  GAD B   1      20.540  33.614  68.9660  0.00  0.00     0.000 C
ATOM      4  C4  GAD B   1      21.753  34.311  68.3430  0.00  0.00     0.000 C
ATOM      5  C5  GAD B   1      22.208  34.074  67.0970  0.00  0.00     0.000 C
ATOM      6  O5  GAD B   1      21.527  33.064  66.3280  0.00  0.00     0.000 O
ATOM      7   O  GAD B   1      18.551  32.184  68.4390  0.00  0.00     0.000 O
ATOM      9  HD  GAD B   1      18.522  32.100  67.5770  0.00  0.00     0.000 HD
ATOM      9   O  GAD B   1      20.967  33.155  70.2680  0.00  0.00     0.000 O
ATOM     11  HD  GAD B   1      20.938  33.071  69.4060  0.00  0.00     0.000 HD
ENDROOT
BRANCH 5 11
ATOM     11   C  GAD B   1      23.313  34.817  66.4470  0.00  0.00     0.000 C
ATOM     12   O  GAD B   1      23.076  35.316  65.3030  0.00  0.00     0.000 OA
ATOM     13   O  GAD B   1      24.472  34.866  67.0020  0.00  0.00     0.000 OA
ENDBRANCH 5 11
BRANCH 1 14
ATOM     14  O3  ASG B   2      20.148  31.818  65.6750  0.00  0.00     0.000 O
BRANCH 14 17
ATOM     15  C1  ASG B   2      18.398  28.611  64.7100  0.00  0.00     0.000 C
ATOM     16  C2  ASG B   2      19.567  29.496  65.1650  0.00  0.00     0.000 C
ATOM     17  C3  ASG B   2      19.091  30.950  65.2500  0.00  0.00     0.000 C
ATOM     18  C4  ASG B   2      18.569  31.404  63.9000  0.00  0.00     0.000 C
ATOM     19  C5  ASG B   2      17.497  30.428  63.4260  0.00  0.00     0.000 C
ATOM     20  O5  ASG B   2      18.016  29.084  63.4320  0.00  0.00     0.000 O
ATOM     21   C  ASG B   2      17.042  30.702  62.0290  0.00  0.00     0.000 C
ATOM     22   O  ASG B   2      16.221  29.647  61.5910  0.00  0.00     0.000 O
ATOM     24  HD  ASG B   2      15.704  29.077  61.1930  0.00  0.00     0.000 HD
BRANCH 16 26
ATOM     24   N  ASG B   2      20.188  29.149  66.4220  0.00  0.00     0.000 N
ATOM     26  HD  ASG B   2      19.714  28.584  65.9690  0.00  0.00     0.000 HD
ATOM     26   C  ASG B   2      21.515  29.192  66.6430  0.00  0.00     0.000 C
ATOM     27   C  ASG B   2      21.943  29.138  68.0700  0.00  0.00     0.000 C
ATOM     28   O  ASG B   2      22.319  29.272  65.7230  0.00  0.00     0.000 OA
ENDBRANCH 16 26
BRANCH 18 29
ATOM     29   O  ASG B   2      19.730  31.457  63.0010  0.00  0.00     0.000 O
ATOM     30   O  ASG B   2      18.994  33.496  61.8410  0.00  0.00     0.000 OA
ATOM     31   O  ASG B   2      20.828  33.600  63.4280  0.00  0.00     0.000 OA
ATOM     32   O  ASG B   2      21.124  32.473  61.3090  0.00  0.00     0.000 OA
ATOM     33   S  ASG B   2      20.188  32.860  62.3650  0.00  0.00     0.000 S
ENDBRANCH 18 29
BRANCH 15 34
ATOM     34  O4  ASG B   3      18.727  27.255  64.6050  0.00  0.00     0.000 O
BRANCH 34 38
ATOM     35  C1  GCT B   3      17.977  25.884  68.3360  0.00  0.00     0.000 C
ATOM     36  C2  GCT B   3      18.703  24.895  67.4510  0.00  0.00     0.000 C
ATOM     37  C3  GCT B   3      19.330  25.597  66.2550  0.00  0.00     0.000 C
ATOM     38  C4  GCT B   3      18.229  26.291  65.4440  0.00  0.00     0.000 C
ATOM     39  C5  GCT B   3      17.091  26.821  66.3450  0.00  0.00     0.000 C
ATOM     40  O5  GCT B   3      17.666  27.072  67.6160  0.00  0.00     0.000 O
ATOM     41   O  GCT B   3      19.710  24.297  68.2550  0.00  0.00     0.000 O
ATOM     43  HD  GCT B   3      19.677  23.688  68.8700  0.00  0.00     0.000 HD
ATOM     43   O  GCT B   3      20.065  24.623  65.4840  0.00  0.00     0.000 O
ATOM     45  HD  GCT B   3      20.032  24.013  66.0980  0.00  0.00     0.000 HD
BRANCH 39 45
ATOM     45   C  GCT B   3      15.852  25.969  66.5160  0.00  0.00     0.000 C
ATOM     46   O  GCT B   3      15.790  24.832  65.9510  0.00  0.00     0.000 OA
ATOM     47   O  GCT B   3      14.936  26.418  67.2250  0.00  0.00     0.000 OA
ENDBRANCH 39 45
BRANCH 35 48
ATOM     48  O3  ASG B   4      17.234  25.230  69.2020  0.00  0.00     0.000 O
BRANCH 48 51
ATOM     49  C1  ASG B   4      18.236  26.969  72.3100  0.00  0.00     0.000 C
ATOM     50  C2  ASG B   4      18.348  26.273  70.9430  0.00  0.00     0.000 C
ATOM     51  C3  ASG B   4      16.972  26.069  70.3140  0.00  0.00     0.000 C
ATOM     52  C4  ASG B   4      16.009  25.420  71.2940  0.00  0.00     0.000 C
ATOM     53  C5  ASG B   4      15.990  26.261  72.5670  0.00  0.00     0.000 C
ATOM     54  O5  ASG B   4      17.313  26.283  73.1390  0.00  0.00     0.000 O
BRANCH 50 57
ATOM     55   N  ASG B   4      19.198  25.328  71.6300  0.00  0.00     0.000 N
ATOM     57  HD  ASG B   4      19.809  25.259  71.0200  0.00  0.00     0.000 HD
ATOM     57   O  ASG B   4      21.078  25.978  70.6020  0.00  0.00     0.000 OA
ATOM     58   C  ASG B   4      20.526  25.324  71.4810  0.00  0.00     0.000 C
ATOM     59   C  ASG B   4      21.280  24.432  72.4190  0.00  0.00     0.000 C
ENDBRANCH 50 57
BRANCH 52 60
ATOM     60   O  ASG B   4      16.558  24.050  71.4660  0.00  0.00     0.000 O
ATOM     61   O  ASG B   4      14.786  23.021  70.0400  0.00  0.00     0.000 OA
ATOM     62   O  ASG B   4      16.575  21.680  70.8600  0.00  0.00     0.000 OA
ATOM     63   O  ASG B   4      15.027  22.635  72.4130  0.00  0.00     0.000 OA
ATOM     64   S  ASG B   4      15.688  22.752  71.1100  0.00  0.00     0.000 S
ENDBRANCH 52 60
ATOM     65   O  ASG B   4      14.814  26.776  74.6250  0.00  0.00     0.000 O
ATOM     67  HD  ASG B   4      15.560  26.736  75.0640  0.00  0.00     0.000 HD
ATOM     67   O  ASG B   4      14.814  26.776  74.6250  0.00  0.00     0.000 O
ATOM     69  HD  ASG B   4      15.560  26.736  75.0640  0.00  0.00     0.000 HD
ENDBRANCH 48 51
ENDBRANCH 35 48
ENDBRANCH 34 38
ENDBRANCH 15 34
ENDBRANCH 14 17
ENDBRANCH 1 14
TORSDOF 12
ENDMDL
MODEL 31
REMARK VINA RESULT:      -7.4      4.157      8.284
ROOT
ATOM      1  C1  GAD B   1      19.196  37.049  35.5410  0.00  0.00     0.000 C
ATOM      2  C2  GAD B   1      18.007  37.892  36.0130  0.00  0.00     0.000 C
ATOM      3  C3  GAD B   1      16.916  37.914  34.9350  0.00  0.00     0.000 C
ATOM      4  C4  GAD B   1      17.441  37.837  33.4990  0.00  0.00     0.000 C
ATOM      5  C5  GAD B   1      18.729  37.609  33.1720  0.00  0.00     0.000 C
ATOM      6  O5  GAD B   1      19.669  37.478  34.2550  0.00  0.00     0.000 O
ATOM      7   O  GAD B   1      17.508  37.433  37.3230  0.00  0.00     0.000 O
ATOM      9  HD  GAD B   1      18.274  37.029  37.3160  0.00  0.00     0.000 HD
ATOM      9   O  GAD B   1      16.122  39.119  35.0070  0.00  0.00     0.000 O
ATOM     11  HD  GAD B   1      16.888  38.715  35.0000  0.00  0.00     0.000 HD
ENDROOT
BRANCH 5 11
ATOM     11   C  GAD B   1      19.229  37.427  31.7890  0.00  0.00     0.000 C
ATOM     12   O  GAD B   1      20.120  36.539  31.6120  0.00  0.00     0.000 OA
ATOM     13   O  GAD B   1      18.821  38.202  30.8480  0.00  0.00     0.000 OA
ENDBRANCH 5 11
BRANCH 1 14
ATOM     14  O3  ASG B   2      20.441  37.160  36.0400  0.00  0.00     0.000 O
BRANCH 14 17
ATOM     15  C1  ASG B   2      23.043  39.309  37.7390  0.00  0.00     0.000 C
ATOM     16  C2  ASG B   2      22.509  38.247  36.7690  0.00  0.00     0.000 C
ATOM     17  C3  ASG B   2      20.990  38.140  36.9290  0.00  0.00     0.000 C
ATOM     18  C4  ASG B   2      20.644  37.778  38.3610  0.00  0.00     0.000 C
ATOM     19  C5  ASG B   2      21.297  38.787  39.3010  0.00  0.00     0.000 C
ATOM     20  O5  ASG B   2      22.713  38.860  39.0400  0.00  0.00     0.000 O
ATOM     21   C  ASG B   2      21.149  38.416  40.7420  0.00  0.00     0.000 C
ATOM     22   O  ASG B   2      21.949  39.266  41.5270  0.00  0.00     0.000 O
ATOM     24  HD  ASG B   2      22.387  39.711  42.1270  0.00  0.00     0.000 HD
BRANCH 16 26
ATOM     24   N  ASG B   2      22.836  38.450  35.3760  0.00  0.00     0.000 N
ATOM     26  HD  ASG B   2      23.300  38.803  36.0160  0.00  0.00     0.000 HD
ATOM     26   C  ASG B   2      23.145  37.456  34.5230  0.00  0.00     0.000 C
ATOM     27   C  ASG B   2      23.115  37.804  33.0740  0.00  0.00     0.000 C
ATOM     28   O  ASG B   2      23.432  36.333  34.9180  0.00  0.00     0.000 OA
ENDBRANCH 16 26
BRANCH 18 29
ATOM     29   O  ASG B   2      21.126  36.407  38.5730  0.00  0.00     0.000 O
ATOM     30   O  ASG B   2      19.258  35.760  40.0340  0.00  0.00     0.000 OA
ATOM     31   O  ASG B   2      19.358  34.928  37.7560  0.00  0.00     0.000 OA
ATOM     32   O  ASG B   2      20.947  34.144  39.4010  0.00  0.00     0.000 OA
ATOM     33   S  ASG B   2      20.088  35.244  38.9620  0.00  0.00     0.000 S
ENDBRANCH 18 29
BRANCH 15 34
ATOM     34  O4  ASG B   3      24.429  39.490  37.6680  0.00  0.00     0.000 O
BRANCH 34 38
ATOM     35  C1  GCT B   3      25.232  36.312  40.0390  0.00  0.00     0.000 C
ATOM     36  C2  GCT B   3      25.888  37.599  40.4910  0.00  0.00     0.000 C
ATOM     37  C3  GCT B   3      25.218  38.804  39.8460  0.00  0.00     0.000 C
ATOM     38  C4  GCT B   3      25.329  38.686  38.3210  0.00  0.00     0.000 C
ATOM     39  C5  GCT B   3      25.262  37.216  37.8460  0.00  0.00     0.000 C
ATOM     40  O5  GCT B   3      24.518  36.509  38.8240  0.00  0.00     0.000 O
ATOM     41   O  GCT B   3      25.743  37.652  41.9030  0.00  0.00     0.000 O
ATOM     43  HD  GCT B   3      26.156  37.243  42.5450  0.00  0.00     0.000 HD
ATOM     43   O  GCT B   3      25.834  40.003  40.3620  0.00  0.00     0.000 O
ATOM     45  HD  GCT B   3      26.247  39.594  41.0040  0.00  0.00     0.000 HD
BRANCH 39 45
ATOM     45   C  GCT B   3      26.560  36.486  37.5810  0.00  0.00     0.000 C
ATOM     46   O  GCT B   3      27.666  37.068  37.8150  0.00  0.00     0.000 OA
ATOM     47   O  GCT B   3      26.492  35.323  37.1510  0.00  0.00     0.000 OA
ENDBRANCH 39 45
BRANCH 35 48
ATOM     48  O3  ASG B   4      25.984  35.292  40.3940  0.00  0.00     0.000 O
BRANCH 48 51
ATOM     49  C1  ASG B   4      25.643  32.413  42.6920  0.00  0.00     0.000 C
ATOM     50  C2  ASG B   4      26.283  33.582  41.9250  0.00  0.00     0.000 C
ATOM     51  C3  ASG B   4      25.226  34.425  41.2190  0.00  0.00     0.000 C
ATOM     52  C4  ASG B   4      24.283  33.555  40.4030  0.00  0.00     0.000 C
ATOM     53  C5  ASG B   4      23.708  32.484  41.3250  0.00  0.00     0.000 C
ATOM     54  O5  ASG B   4      24.785  31.675  41.8370  0.00  0.00     0.000 O
BRANCH 50 57
ATOM     55   N  ASG B   4      27.100  34.525  42.6540  0.00  0.00     0.000 N
ATOM     57  HD  ASG B   4      27.684  33.961  42.9570  0.00  0.00     0.000 HD
ATOM     57   O  ASG B   4      28.978  33.315  42.4980  0.00  0.00     0.000 OA
ATOM     58   C  ASG B   4      28.420  34.366  42.7960  0.00  0.00     0.000 C
ATOM     59   C  ASG B   4      29.153  35.531  43.3870  0.00  0.00     0.000 C
ENDBRANCH 50 57
BRANCH 52 60
ATOM     60   O  ASG B   4      25.148  33.034  39.3130  0.00  0.00     0.000 O
ATOM     61   O  ASG B   4      23.236  32.824  37.7220  0.00  0.00     0.000 OA
ATOM     62   O  ASG B   4      25.454  32.390  36.9730  0.00  0.00     0.000 OA
ATOM     63   O  ASG B   4      24.477  30.956  38.6200  0.00  0.00     0.000 OA
ATOM     64   S  ASG B   4      24.523  32.299  38.0330  0.00  0.00     0.000 S
ENDBRANCH 52 60
ATOM     65   O  ASG B   4      21.967  30.828  41.6510  0.00  0.00     0.000 O
ATOM     67  HD  ASG B   4      22.560  30.250  41.9040  0.00  0.00     0.000 HD
ATOM     67   O  ASG B   4      21.967  30.828  41.6510  0.00  0.00     0.000 O
ATOM     69  HD  ASG B   4      22.560  30.250  41.9040  0.00  0.00     0.000 HD
ENDBRANCH 48 51
ENDBRANCH 35 48
ENDBRANCH 34 38
ENDBRANCH 15 34
ENDBRANCH 14 17
ENDBRANCH 1 14
TORSDOF 12
ENDMDL
MODEL 32
REMARK VINA RESULT:      -7.4     25.744     30.560
ROOT
ATOM      1  C1  GAD B   1       4.184  64.909  43.1920  0.00  0.00     0.000 C
ATOM      2  C2  GAD B   1       4.920  63.743  42.5260  0.00  0.00     0.000 C
ATOM      3  C3  GAD B   1       5.489  62.800  43.5940  0.00  0.00     0.000 C
ATOM      4  C4  GAD B   1       5.907  63.492  44.8940  0.00  0.00     0.000 C
ATOM      5  C5  GAD B   1       5.666  64.788  45.1750  0.00  0.00     0.000 C
ATOM      6  O5  GAD B   1       5.013  65.572  44.1590  0.00  0.00     0.000 O
ATOM      7   O  GAD B   1       4.056  63.048  41.5520  0.00  0.00     0.000 O
ATOM      9  HD  GAD B   1       3.596  63.774  41.6550  0.00  0.00     0.000 HD
ATOM      9   O  GAD B   1       6.661  62.103  43.1160  0.00  0.00     0.000 O
ATOM     11  HD  GAD B   1       6.200  62.829  43.2190  0.00  0.00     0.000 HD
ENDROOT
BRANCH 5 11
ATOM     11   C  GAD B   1       5.970  65.441  46.4700  0.00  0.00     0.000 C
ATOM     12   O  GAD B   1       6.326  64.684  47.4260  0.00  0.00     0.000 OA
ATOM     13   O  GAD B   1       5.794  66.707  46.6130  0.00  0.00     0.000 OA
ENDBRANCH 5 11
BRANCH 1 14
ATOM     14  O3  ASG B   2       3.941  66.088  42.5880  0.00  0.00     0.000 O
BRANCH 14 17
ATOM     15  C1  ASG B   2       3.833  67.427  39.0570  0.00  0.00     0.000 C
ATOM     16  C2  ASG B   2       4.429  67.167  40.4470  0.00  0.00     0.000 C
ATOM     17  C3  ASG B   2       3.428  66.360  41.2790  0.00  0.00     0.000 C
ATOM     18  C4  ASG B   2       2.119  67.117  41.3920  0.00  0.00     0.000 C
ATOM     19  C5  ASG B   2       1.622  67.465  39.9920  0.00  0.00     0.000 C
ATOM     20  O5  ASG B   2       2.648  68.172  39.2670  0.00  0.00     0.000 O
ATOM     21   C  ASG B   2       0.422  68.356  40.0080  0.00  0.00     0.000 C
ATOM     22   O  ASG B   2       0.156  68.803  38.7010  0.00  0.00     0.000 O
ATOM     24  HD  ASG B   2      -0.125  69.150  37.9590  0.00  0.00     0.000 HD
BRANCH 16 26
ATOM     24   N  ASG B   2       5.735  66.549  40.4300  0.00  0.00     0.000 N
ATOM     26  HD  ASG B   2       5.443  67.031  39.7720  0.00  0.00     0.000 HD
ATOM     26   C  ASG B   2       6.700  66.801  41.3330  0.00  0.00     0.000 C
ATOM     27   C  ASG B   2       7.836  65.838  41.3660  0.00  0.00     0.000 C
ATOM     28   O  ASG B   2       6.643  67.768  42.0830  0.00  0.00     0.000 OA
ENDBRANCH 16 26
BRANCH 18 29
ATOM     29   O  ASG B   2       2.393  68.305  42.2110  0.00  0.00     0.000 O
ATOM     30   O  ASG B   2       0.210  68.278  43.3410  0.00  0.00     0.000 OA
ATOM     31   O  ASG B   2       2.204  67.586  44.5410  0.00  0.00     0.000 OA
ATOM     32   O  ASG B   2       1.894  69.909  43.9480  0.00  0.00     0.000 OA
ATOM     33   S  ASG B   2       1.617  68.514  43.6030  0.00  0.00     0.000 S
ENDBRANCH 18 29
BRANCH 15 34
ATOM     34  O4  ASG B   3       4.676  68.157  38.2120  0.00  0.00     0.000 O
BRANCH 34 38
ATOM     35  C1  GCT B   3       6.360  65.765  35.4180  0.00  0.00     0.000 C
ATOM     36  C2  GCT B   3       6.626  67.240  35.2070  0.00  0.00     0.000 C
ATOM     37  C3  GCT B   3       6.358  68.026  36.4830  0.00  0.00     0.000 C
ATOM     38  C4  GCT B   3       4.895  67.829  36.8980  0.00  0.00     0.000 C
ATOM     39  C5  GCT B   3       4.378  66.415  36.5470  0.00  0.00     0.000 C
ATOM     40  O5  GCT B   3       5.509  65.561  36.5400  0.00  0.00     0.000 O
ATOM     41   O  GCT B   3       7.993  67.354  34.8370  0.00  0.00     0.000 O
ATOM     43  HD  GCT B   3       8.408  67.197  34.0930  0.00  0.00     0.000 HD
ATOM     43   O  GCT B   3       6.693  69.410  36.2480  0.00  0.00     0.000 O
ATOM     45  HD  GCT B   3       7.108  69.253  35.5050  0.00  0.00     0.000 HD
BRANCH 39 45
ATOM     45   C  GCT B   3       3.604  66.230  35.2600  0.00  0.00     0.000 C
ATOM     46   O  GCT B   3       3.299  65.058  34.8740  0.00  0.00     0.000 OA
ATOM     47   O  GCT B   3       3.280  67.250  34.6290  0.00  0.00     0.000 OA
ENDBRANCH 39 45
BRANCH 35 48
ATOM     48  O3  ASG B   4       6.342  65.156  34.2510  0.00  0.00     0.000 O
BRANCH 48 51
ATOM     49  C1  ASG B   4       8.547  62.211  33.8520  0.00  0.00     0.000 C
ATOM     50  C2  ASG B   4       8.100  63.680  33.9480  0.00  0.00     0.000 C
ATOM     51  C3  ASG B   4       6.660  63.788  34.4410  0.00  0.00     0.000 C
ATOM     52  C4  ASG B   4       5.736  62.881  33.6450  0.00  0.00     0.000 C
ATOM     53  C5  ASG B   4       6.303  61.465  33.6940  0.00  0.00     0.000 C
ATOM     54  O5  ASG B   4       7.613  61.461  33.0930  0.00  0.00     0.000 O
BRANCH 50 57
ATOM     55   N  ASG B   4       9.266  63.918  34.7670  0.00  0.00     0.000 N
ATOM     57  HD  ASG B   4       9.843  63.998  34.1260  0.00  0.00     0.000 HD
ATOM     57   O  ASG B   4      10.367  65.082  33.2030  0.00  0.00     0.000 OA
ATOM     58   C  ASG B   4      10.275  64.696  34.3640  0.00  0.00     0.000 C
ATOM     59   C  ASG B   4      11.302  65.016  35.4060  0.00  0.00     0.000 C
ENDBRANCH 50 57
BRANCH 52 60
ATOM     60   O  ASG B   4       5.725  63.496  32.2930  0.00  0.00     0.000 O
ATOM     61   O  ASG B   4       3.249  63.270  32.0700  0.00  0.00     0.000 OA
ATOM     62   O  ASG B   4       4.491  64.414  30.3910  0.00  0.00     0.000 OA
ATOM     63   O  ASG B   4       4.858  62.074  30.7210  0.00  0.00     0.000 OA
ATOM     64   S  ASG B   4       4.458  63.351  31.3210  0.00  0.00     0.000 S
ENDBRANCH 52 60
ATOM     65   O  ASG B   4       5.862  59.104  33.3600  0.00  0.00     0.000 O
ATOM     67  HD  ASG B   4       6.603  59.024  32.9190  0.00  0.00     0.000 HD
ATOM     67   O  ASG B   4       5.862  59.104  33.3600  0.00  0.00     0.000 O
ATOM     69  HD  ASG B   4       6.603  59.024  32.9190  0.00  0.00     0.000 HD
ENDBRANCH 48 51
ENDBRANCH 35 48
ENDBRANCH 34 38
ENDBRANCH 15 34
ENDBRANCH 14 17
ENDBRANCH 1 14
TORSDOF 12
ENDMDL
MODEL 33
REMARK VINA RESULT:      -7.4     35.573     38.785
ROOT
ATOM      1  C1  GAD B   1       4.822  55.761  62.0830  0.00  0.00     0.000 C
ATOM      2  C2  GAD B   1       3.496  55.164  62.5630  0.00  0.00     0.000 C
ATOM      3  C3  GAD B   1       2.411  55.368  61.4990  0.00  0.00     0.000 C
ATOM      4  C4  GAD B   1       2.565  56.647  60.6720  0.00  0.00     0.000 C
ATOM      5  C5  GAD B   1       3.633  57.466  60.7330  0.00  0.00     0.000 C
ATOM      6  O5  GAD B   1       4.668  57.130  61.6770  0.00  0.00     0.000 O
ATOM      7   O  GAD B   1       3.654  53.750  62.9560  0.00  0.00     0.000 O
ATOM      9  HD  GAD B   1       4.487  53.984  62.9370  0.00  0.00     0.000 HD
ATOM      9   O  GAD B   1       1.093  55.429  62.0900  0.00  0.00     0.000 O
ATOM     11  HD  GAD B   1       1.927  55.663  62.0710  0.00  0.00     0.000 HD
ENDROOT
BRANCH 5 11
ATOM     11   C  GAD B   1       3.842  58.647  59.8620  0.00  0.00     0.000 C
ATOM     12   O  GAD B   1       4.436  58.449  58.7570  0.00  0.00     0.000 OA
ATOM     13   O  GAD B   1       3.500  59.818  60.2690  0.00  0.00     0.000 OA
ENDBRANCH 5 11
BRANCH 1 14
ATOM     14  O3  ASG B   2       5.828  56.116  62.9040  0.00  0.00     0.000 O
BRANCH 14 17
ATOM     15  C1  ASG B   2       7.654  54.775  65.9280  0.00  0.00     0.000 C
ATOM     16  C2  ASG B   2       6.688  55.682  65.1540  0.00  0.00     0.000 C
ATOM     17  C3  ASG B   2       6.719  55.297  63.6720  0.00  0.00     0.000 C
ATOM     18  C4  ASG B   2       8.129  55.432  63.1300  0.00  0.00     0.000 C
ATOM     19  C5  ASG B   2       9.078  54.616  64.0020  0.00  0.00     0.000 C
ATOM     20  O5  ASG B   2       8.939  55.007  65.3820  0.00  0.00     0.000 O
ATOM     21   C  ASG B   2      10.515  54.821  63.6440  0.00  0.00     0.000 C
ATOM     22   O  ASG B   2      11.329  54.212  64.6150  0.00  0.00     0.000 O
ATOM     24  HD  ASG B   2      11.945  53.885  65.1290  0.00  0.00     0.000 HD
BRANCH 16 26
ATOM     24   N  ASG B   2       5.344  55.704  65.6840  0.00  0.00     0.000 N
ATOM     26  HD  ASG B   2       6.034  55.528  66.1780  0.00  0.00     0.000 HD
ATOM     26   C  ASG B   2       4.544  56.786  65.6610  0.00  0.00     0.000 C
ATOM     27   C  ASG B   2       3.099  56.537  65.9310  0.00  0.00     0.000 C
ATOM     28   O  ASG B   2       4.981  57.906  65.4310  0.00  0.00     0.000 OA
ENDBRANCH 16 26
BRANCH 18 29
ATOM     29   O  ASG B   2       8.442  56.868  63.1370  0.00  0.00     0.000 O
ATOM     30   O  ASG B   2       9.901  56.764  61.1610  0.00  0.00     0.000 OA
ATOM     31   O  ASG B   2       7.687  57.741  60.9810  0.00  0.00     0.000 OA
ATOM     32   O  ASG B   2       9.416  58.884  62.2260  0.00  0.00     0.000 OA
ATOM     33   S  ASG B   2       8.884  57.597  61.7750  0.00  0.00     0.000 S
ENDBRANCH 18 29
BRANCH 15 34
ATOM     34  O4  ASG B   3       7.698  55.042  67.3010  0.00  0.00     0.000 O
BRANCH 34 38
ATOM     35  C1  GCT B   3       7.681  53.848  71.1660  0.00  0.00     0.000 C
ATOM     36  C2  GCT B   3       8.981  53.573  70.4420  0.00  0.00     0.000 C
ATOM     37  C3  GCT B   3       9.084  54.412  69.1760  0.00  0.00     0.000 C
ATOM     38  C4  GCT B   3       7.908  54.075  68.2520  0.00  0.00     0.000 C
ATOM     39  C5  GCT B   3       6.625  53.737  69.0450  0.00  0.00     0.000 C
ATOM     40  O5  GCT B   3       6.723  54.420  70.2820  0.00  0.00     0.000 O
ATOM     41   O  GCT B   3      10.024  53.913  71.3450  0.00  0.00     0.000 O
ATOM     43  HD  GCT B   3      10.350  53.506  72.0360  0.00  0.00     0.000 HD
ATOM     43   O  GCT B   3      10.367  54.165  68.5640  0.00  0.00     0.000 O
ATOM     45  HD  GCT B   3      10.693  53.758  69.2560  0.00  0.00     0.000 HD
BRANCH 39 45
ATOM     45   C  GCT B   3       6.301  52.282  69.3010  0.00  0.00     0.000 C
ATOM     46   O  GCT B   3       5.360  51.980  70.1010  0.00  0.00     0.000 OA
ATOM     47   O  GCT B   3       6.969  51.426  68.6980  0.00  0.00     0.000 OA
ENDBRANCH 39 45
BRANCH 35 48
ATOM     48  O3  ASG B   4       7.499  52.934  72.0950  0.00  0.00     0.000 O
BRANCH 48 51
ATOM     49  C1  ASG B   4       7.367  52.878  75.7920  0.00  0.00     0.000 C
ATOM     50  C2  ASG B   4       7.633  52.420  74.3490  0.00  0.00     0.000 C
ATOM     51  C3  ASG B   4       7.445  53.568  73.3610  0.00  0.00     0.000 C
ATOM     52  C4  ASG B   4       6.116  54.272  73.5820  0.00  0.00     0.000 C
ATOM     53  C5  ASG B   4       6.040  54.694  75.0470  0.00  0.00     0.000 C
ATOM     54  O5  ASG B   4       6.106  53.520  75.8800  0.00  0.00     0.000 O
BRANCH 50 57
ATOM     55   N  ASG B   4       8.836  51.802  73.8390  0.00  0.00     0.000 N
ATOM     57  HD  ASG B   4       8.901  51.172  74.4290  0.00  0.00     0.000 HD
ATOM     57   O  ASG B   4       8.367  49.768  74.6500  0.00  0.00     0.000 OA
ATOM     58   C  ASG B   4       9.062  50.489  73.9400  0.00  0.00     0.000 C
ATOM     59   C  ASG B   4      10.243  49.974  73.1770  0.00  0.00     0.000 C
ENDBRANCH 50 57
BRANCH 52 60
ATOM     60   O  ASG B   4       5.113  53.253  73.1800  0.00  0.00     0.000 O
ATOM     61   O  ASG B   4       3.652  54.943  72.0650  0.00  0.00     0.000 OA
ATOM     62   O  ASG B   4       3.112  52.629  71.9190  0.00  0.00     0.000 OA
ATOM     63   O  ASG B   4       3.044  53.709  74.0510  0.00  0.00     0.000 OA
ATOM     64   S  ASG B   4       3.638  53.673  72.7120  0.00  0.00     0.000 S
ENDBRANCH 52 60
ATOM     65   O  ASG B   4       4.942  56.108  76.6820  0.00  0.00     0.000 O
ATOM     67  HD  ASG B   4       4.872  55.435  77.2220  0.00  0.00     0.000 HD
ATOM     67   O  ASG B   4       4.942  56.108  76.6820  0.00  0.00     0.000 O
ATOM     69  HD  ASG B   4       4.872  55.435  77.2220  0.00  0.00     0.000 HD
ENDBRANCH 48 51
ENDBRANCH 35 48
ENDBRANCH 34 38
ENDBRANCH 15 34
ENDBRANCH 14 17
ENDBRANCH 1 14
TORSDOF 12
ENDMDL
MODEL 34
REMARK VINA RESULT:      -7.3     37.144     41.467
ROOT
ATOM      1  C1  GAD B   1       5.631  49.132  76.3090  0.00  0.00     0.000 C
ATOM      2  C2  GAD B   1       4.647  48.116  75.7200  0.00  0.00     0.000 C
ATOM      3  C3  GAD B   1       4.441  46.954  76.6990  0.00  0.00     0.000 C
ATOM      4  C4  GAD B   1       5.668  46.616  77.5510  0.00  0.00     0.000 C
ATOM      5  C5  GAD B   1       6.797  47.353  77.5820  0.00  0.00     0.000 C
ATOM      6  O5  GAD B   1       6.856  48.503  76.7170  0.00  0.00     0.000 O
ATOM      7   O  GAD B   1       3.381  48.762  75.3250  0.00  0.00     0.000 O
ATOM      9  HD  GAD B   1       3.876  49.467  75.4110  0.00  0.00     0.000 HD
ATOM      9   O  GAD B   1       4.085  45.735  76.0090  0.00  0.00     0.000 O
ATOM     11  HD  GAD B   1       4.581  46.440  76.0960  0.00  0.00     0.000 HD
ENDROOT
BRANCH 5 11
ATOM     11   C  GAD B   1       7.947  47.096  78.4800  0.00  0.00     0.000 C
ATOM     12   O  GAD B   1       8.158  47.944  79.4020  0.00  0.00     0.000 OA
ATOM     13   O  GAD B   1       8.727  46.097  78.2610  0.00  0.00     0.000 OA
ENDBRANCH 5 11
BRANCH 1 14
ATOM     14  O3  ASG B   2       6.328  50.017  75.5720  0.00  0.00     0.000 O
BRANCH 14 17
ATOM     15  C1  ASG B   2       7.838  50.981  72.2450  0.00  0.00     0.000 C
ATOM     16  C2  ASG B   2       7.728  50.910  73.7740  0.00  0.00     0.000 C
ATOM     17  C3  ASG B   2       6.475  50.115  74.1500  0.00  0.00     0.000 C
ATOM     18  C4  ASG B   2       5.245  50.774  73.5560  0.00  0.00     0.000 C
ATOM     19  C5  ASG B   2       5.446  50.940  72.0530  0.00  0.00     0.000 C
ATOM     20  O5  ASG B   2       6.674  51.649  71.7950  0.00  0.00     0.000 O
ATOM     21   C  ASG B   2       4.354  51.732  71.4060  0.00  0.00     0.000 C
ATOM     22   O  ASG B   2       4.714  52.023  70.0780  0.00  0.00     0.000 O
ATOM     24  HD  ASG B   2       4.801  52.270  69.2530  0.00  0.00     0.000 HD
BRANCH 16 26
ATOM     24   N  ASG B   2       8.368  51.448  74.9530  0.00  0.00     0.000 N
ATOM     26  HD  ASG B   2       7.516  51.295  74.9180  0.00  0.00     0.000 HD
ATOM     26   C  ASG B   2       9.338  50.814  75.6380  0.00  0.00     0.000 C
ATOM     27   C  ASG B   2      10.110  51.648  76.6030  0.00  0.00     0.000 C
ATOM     28   O  ASG B   2       9.569  49.623  75.4750  0.00  0.00     0.000 OA
ENDBRANCH 16 26
BRANCH 18 29
ATOM     29   O  ASG B   2       5.081  52.057  74.2540  0.00  0.00     0.000 O
ATOM     30   O  ASG B   2       2.644  52.145  73.9430  0.00  0.00     0.000 OA
ATOM     31   O  ASG B   2       3.568  51.626  76.1260  0.00  0.00     0.000 OA
ATOM     32   O  ASG B   2       3.789  53.856  75.2180  0.00  0.00     0.000 OA
ATOM     33   S  ASG B   2       3.670  52.427  74.9290  0.00  0.00     0.000 S
ENDBRANCH 18 29
BRANCH 15 34
ATOM     34  O4  ASG B   3       8.960  51.686  71.7950  0.00  0.00     0.000 O
BRANCH 34 38
ATOM     35  C1  GCT B   3       9.375  54.019  68.5160  0.00  0.00     0.000 C
ATOM     36  C2  GCT B   3      10.088  54.547  69.7420  0.00  0.00     0.000 C
ATOM     37  C3  GCT B   3      10.264  53.449  70.7810  0.00  0.00     0.000 C
ATOM     38  C4  GCT B   3       8.885  52.914  71.1870  0.00  0.00     0.000 C
ATOM     39  C5  GCT B   3       7.886  52.931  70.0080  0.00  0.00     0.000 C
ATOM     40  O5  GCT B   3       8.657  52.829  68.8230  0.00  0.00     0.000 O
ATOM     41   O  GCT B   3      11.354  55.016  69.3010  0.00  0.00     0.000 O
ATOM     43  HD  GCT B   3      11.594  55.734  68.8810  0.00  0.00     0.000 HD
ATOM     43   O  GCT B   3      11.008  53.986  71.8960  0.00  0.00     0.000 O
ATOM     45  HD  GCT B   3      11.247  54.704  71.4750  0.00  0.00     0.000 HD
BRANCH 39 45
ATOM     45   C  GCT B   3       6.936  54.101  69.8870  0.00  0.00     0.000 C
ATOM     46   O  GCT B   3       6.965  55.026  70.7580  0.00  0.00     0.000 OA
ATOM     47   O  GCT B   3       6.161  54.119  68.9160  0.00  0.00     0.000 OA
ENDBRANCH 39 45
BRANCH 35 48
ATOM     48  O3  ASG B   4       9.005  55.029  67.7590  0.00  0.00     0.000 O
BRANCH 48 51
ATOM     49  C1  ASG B   4      10.119  55.339  64.2440  0.00  0.00     0.000 C
ATOM     50  C2  ASG B   4      10.115  55.473  65.7760  0.00  0.00     0.000 C
ATOM     51  C3  ASG B   4       9.017  54.618  66.4030  0.00  0.00     0.000 C
ATOM     52  C4  ASG B   4       7.677  54.864  65.7290  0.00  0.00     0.000 C
ATOM     53  C5  ASG B   4       7.853  54.646  64.2290  0.00  0.00     0.000 C
ATOM     54  O5  ASG B   4       8.822  55.586  63.7260  0.00  0.00     0.000 O
BRANCH 50 57
ATOM     55   N  ASG B   4      11.509  55.096  65.8400  0.00  0.00     0.000 N
ATOM     57  HD  ASG B   4      11.845  55.860  65.6100  0.00  0.00     0.000 HD
ATOM     57   O  ASG B   4      12.248  57.166  66.2690  0.00  0.00     0.000 OA
ATOM     58   C  ASG B   4      12.466  55.961  66.1880  0.00  0.00     0.000 C
ATOM     59   C  ASG B   4      13.823  55.369  66.4170  0.00  0.00     0.000 C
ENDBRANCH 50 57
BRANCH 52 60
ATOM     60   O  ASG B   4       7.344  56.259  66.1160  0.00  0.00     0.000 O
ATOM     61   O  ASG B   4       4.901  55.772  66.2650  0.00  0.00     0.000 OA
ATOM     62   O  ASG B   4       5.724  57.911  66.9100  0.00  0.00     0.000 OA
ATOM     63   O  ASG B   4       5.905  57.233  64.6240  0.00  0.00     0.000 OA
ATOM     64   S  ASG B   4       5.843  56.814  66.0270  0.00  0.00     0.000 S
ENDBRANCH 52 60
ATOM     65   O  ASG B   4       6.748  54.256  62.1060  0.00  0.00     0.000 O
ATOM     67  HD  ASG B   4       7.241  54.863  61.7340  0.00  0.00     0.000 HD
ATOM     67   O  ASG B   4       6.748  54.256  62.1060  0.00  0.00     0.000 O
ATOM     69  HD  ASG B   4       7.241  54.863  61.7340  0.00  0.00     0.000 HD
ENDBRANCH 48 51
ENDBRANCH 35 48
ENDBRANCH 34 38
ENDBRANCH 15 34
ENDBRANCH 14 17
ENDBRANCH 1 14
TORSDOF 12
ENDMDL
MODEL 35
REMARK VINA RESULT:      -7.3     23.745     28.832
ROOT
ATOM      1  C1  GAD B   1      19.857  29.409  61.7260  0.00  0.00     0.000 C
ATOM      2  C2  GAD B   1      19.765  30.858  62.2130  0.00  0.00     0.000 C
ATOM      3  C3  GAD B   1      18.654  30.991  63.2620  0.00  0.00     0.000 C
ATOM      4  C4  GAD B   1      17.470  30.043  63.0580  0.00  0.00     0.000 C
ATOM      5  C5  GAD B   1      17.440  29.053  62.1430  0.00  0.00     0.000 C
ATOM      6  O5  GAD B   1      18.583  28.922  61.2770  0.00  0.00     0.000 O
ATOM      7   O  GAD B   1      21.070  31.347  62.6970  0.00  0.00     0.000 O
ATOM      9  HD  GAD B   1      21.334  30.642  62.2690  0.00  0.00     0.000 HD
ATOM      9   O  GAD B   1      18.099  32.326  63.2820  0.00  0.00     0.000 O
ATOM     11  HD  GAD B   1      18.364  31.621  62.8540  0.00  0.00     0.000 HD
ENDROOT
BRANCH 5 11
ATOM     11   C  GAD B   1      16.345  28.064  62.0070  0.00  0.00     0.000 C
ATOM     12   O  GAD B   1      15.293  28.448  61.4090  0.00  0.00     0.000 OA
ATOM     13   O  GAD B   1      16.452  26.903  62.5520  0.00  0.00     0.000 OA
ENDBRANCH 5 11
BRANCH 1 14
ATOM     14  O3  ASG B   2      20.412  29.044  60.5550  0.00  0.00     0.000 O
BRANCH 14 17
ATOM     15  C1  ASG B   2      19.628  27.193  57.3560  0.00  0.00     0.000 C
ATOM     16  C2  ASG B   2      20.323  27.451  58.7000  0.00  0.00     0.000 C
ATOM     17  C3  ASG B   2      19.794  28.759  59.2950  0.00  0.00     0.000 C
ATOM     18  C4  ASG B   2      20.046  29.905  58.3340  0.00  0.00     0.000 C
ATOM     19  C5  ASG B   2      19.447  29.557  56.9750  0.00  0.00     0.000 C
ATOM     20  O5  ASG B   2      19.959  28.288  56.5210  0.00  0.00     0.000 O
ATOM     21   C  ASG B   2      19.791  30.556  55.9170  0.00  0.00     0.000 C
ATOM     22   O  ASG B   2      19.391  30.063  54.6620  0.00  0.00     0.000 O
ATOM     24  HD  ASG B   2      19.197  29.889  53.8360  0.00  0.00     0.000 HD
BRANCH 16 26
ATOM     24   N  ASG B   2      21.392  26.869  59.4780  0.00  0.00     0.000 N
ATOM     26  HD  ASG B   2      21.275  27.725  59.4210  0.00  0.00     0.000 HD
ATOM     26   C  ASG B   2      21.199  26.031  60.5130  0.00  0.00     0.000 C
ATOM     27   C  ASG B   2      22.395  25.269  60.9710  0.00  0.00     0.000 C
ATOM     28   O  ASG B   2      20.103  25.905  61.0440  0.00  0.00     0.000 OA
ENDBRANCH 16 26
BRANCH 18 29
ATOM     29   O  ASG B   2      21.502  30.095  58.2840  0.00  0.00     0.000 O
ATOM     30   O  ASG B   2      21.375  32.513  57.8540  0.00  0.00     0.000 OA
ATOM     31   O  ASG B   2      22.041  31.705  60.0440  0.00  0.00     0.000 OA
ATOM     32   O  ASG B   2      23.517  31.422  58.1500  0.00  0.00     0.000 OA
ATOM     33   S  ASG B   2      22.134  31.536  58.6130  0.00  0.00     0.000 S
ENDBRANCH 18 29
BRANCH 15 34
ATOM     34  O4  ASG B   3      20.039  26.013  56.7280  0.00  0.00     0.000 O
BRANCH 34 38
ATOM     35  C1  GCT B   3      19.875  22.009  56.1730  0.00  0.00     0.000 C
ATOM     36  C2  GCT B   3      18.639  22.746  55.7060  0.00  0.00     0.000 C
ATOM     37  C3  GCT B   3      18.926  24.231  55.5340  0.00  0.00     0.000 C
ATOM     38  C4  GCT B   3      19.388  24.814  56.8750  0.00  0.00     0.000 C
ATOM     39  C5  GCT B   3      20.208  23.794  57.6990  0.00  0.00     0.000 C
ATOM     40  O5  GCT B   3      20.804  22.908  56.7680  0.00  0.00     0.000 O
ATOM     41   O  GCT B   3      18.270  22.169  54.4620  0.00  0.00     0.000 O
ATOM     43  HD  GCT B   3      17.874  21.425  54.2610  0.00  0.00     0.000 HD
ATOM     43   O  GCT B   3      17.739  24.873  55.0230  0.00  0.00     0.000 O
ATOM     45  HD  GCT B   3      17.343  24.130  54.8230  0.00  0.00     0.000 HD
BRANCH 39 45
ATOM     45   C  GCT B   3      19.495  22.993  58.7660  0.00  0.00     0.000 C
ATOM     46   O  GCT B   3      20.139  22.121  59.4310  0.00  0.00     0.000 OA
ATOM     47   O  GCT B   3      18.292  23.232  58.9620  0.00  0.00     0.000 OA
ENDBRANCH 39 45
BRANCH 35 48
ATOM     48  O3  ASG B   4      19.538  20.798  56.5630  0.00  0.00     0.000 O
BRANCH 48 51
ATOM     49  C1  ASG B   4      21.893  18.976  54.3670  0.00  0.00     0.000 C
ATOM     50  C2  ASG B   4      20.889  20.040  54.8430  0.00  0.00     0.000 C
ATOM     51  C3  ASG B   4      20.629  19.922  56.3420  0.00  0.00     0.000 C
ATOM     52  C4  ASG B   4      20.290  18.493  56.7320  0.00  0.00     0.000 C
ATOM     53  C5  ASG B   4      21.406  17.585  56.2220  0.00  0.00     0.000 C
ATOM     54  O5  ASG B   4      21.479  17.686  54.7870  0.00  0.00     0.000 O
BRANCH 50 57
ATOM     55   N  ASG B   4      21.865  20.649  53.9690  0.00  0.00     0.000 N
ATOM     57  HD  ASG B   4      21.397  20.629  53.2410  0.00  0.00     0.000 HD
ATOM     57   O  ASG B   4      20.354  21.480  52.5410  0.00  0.00     0.000 OA
ATOM     58   C  ASG B   4      21.515  21.418  52.9340  0.00  0.00     0.000 C
ATOM     59   C  ASG B   4      22.636  22.147  52.2590  0.00  0.00     0.000 C
ENDBRANCH 50 57
BRANCH 52 60
ATOM     60   O  ASG B   4      18.968  18.263  56.0940  0.00  0.00     0.000 O
ATOM     61   O  ASG B   4      18.231  16.692  57.8890  0.00  0.00     0.000 OA
ATOM     62   O  ASG B   4      16.706  17.335  56.1770  0.00  0.00     0.000 OA
ATOM     63   O  ASG B   4      18.639  16.052  55.5950  0.00  0.00     0.000 OA
ATOM     64   S  ASG B   4      18.043  17.024  56.5160  0.00  0.00     0.000 S
ENDBRANCH 52 60
ATOM     65   O  ASG B   4      22.463  15.407  56.3790  0.00  0.00     0.000 O
ATOM     67  HD  ASG B   4      22.481  15.351  55.5150  0.00  0.00     0.000 HD
ATOM     67   O  ASG B   4      22.463  15.407  56.3790  0.00  0.00     0.000 O
ATOM     69  HD  ASG B   4      22.481  15.351  55.5150  0.00  0.00     0.000 HD
ENDBRANCH 48 51
ENDBRANCH 35 48
ENDBRANCH 34 38
ENDBRANCH 15 34
ENDBRANCH 14 17
ENDBRANCH 1 14
TORSDOF 12
ENDMDL
MODEL 36
REMARK VINA RESULT:      -7.3     28.227     32.421
ROOT
ATOM      1  C1  GAD B   1      20.133  29.873  64.1670  0.00  0.00     0.000 C
ATOM      2  C2  GAD B   1      21.484  29.774  64.8830  0.00  0.00     0.000 C
ATOM      3  C3  GAD B   1      22.128  31.161  64.9870  0.00  0.00     0.000 C
ATOM      4  C4  GAD B   1      21.803  32.101  63.8230  0.00  0.00     0.000 C
ATOM      5  C5  GAD B   1      20.906  31.828  62.8540  0.00  0.00     0.000 C
ATOM      6  O5  GAD B   1      20.254  30.544  62.9040  0.00  0.00     0.000 O
ATOM      7   O  GAD B   1      21.351  29.105  66.1920  0.00  0.00     0.000 O
ATOM      9  HD  GAD B   1      20.591  28.881  65.8420  0.00  0.00     0.000 HD
ATOM      9   O  GAD B   1      23.569  31.075  65.0410  0.00  0.00     0.000 O
ATOM     11  HD  GAD B   1      22.809  30.851  64.6920  0.00  0.00     0.000 HD
ENDROOT
BRANCH 5 11
ATOM     11   C  GAD B   1      20.506  32.772  61.7840  0.00  0.00     0.000 C
ATOM     12   O  GAD B   1      19.550  33.566  62.0460  0.00  0.00     0.000 OA
ATOM     13   O  GAD B   1      21.064  32.710  60.6270  0.00  0.00     0.000 OA
ENDBRANCH 5 11
BRANCH 1 14
ATOM     14  O3  ASG B   2      19.526  28.836  63.5610  0.00  0.00     0.000 O
BRANCH 14 17
ATOM     15  C1  ASG B   2      18.966  25.126  64.0130  0.00  0.00     0.000 C
ATOM     16  C2  ASG B   2      19.549  26.396  63.3760  0.00  0.00     0.000 C
ATOM     17  C3  ASG B   2      19.007  27.622  64.1170  0.00  0.00     0.000 C
ATOM     18  C4  ASG B   2      17.492  27.639  64.0530  0.00  0.00     0.000 C
ATOM     19  C5  ASG B   2      16.956  26.311  64.5790  0.00  0.00     0.000 C
ATOM     20  O5  ASG B   2      17.561  25.217  63.8630  0.00  0.00     0.000 O
ATOM     21   C  ASG B   2      15.478  26.171  64.4000  0.00  0.00     0.000 C
ATOM     22   O  ASG B   2      15.095  24.854  64.7070  0.00  0.00     0.000 O
ATOM     24  HD  ASG B   2      14.718  24.090  64.8650  0.00  0.00     0.000 HD
BRANCH 16 26
ATOM     24   N  ASG B   2      20.991  26.464  63.3200  0.00  0.00     0.000 N
ATOM     26  HD  ASG B   2      20.566  25.713  63.3890  0.00  0.00     0.000 HD
ATOM     26   C  ASG B   2      21.680  26.982  62.2870  0.00  0.00     0.000 C
ATOM     27   C  ASG B   2      23.117  27.282  62.5420  0.00  0.00     0.000 C
ATOM     28   O  ASG B   2      21.152  27.193  61.2020  0.00  0.00     0.000 OA
ENDBRANCH 16 26
BRANCH 18 29
ATOM     29   O  ASG B   2      17.137  27.881  62.6480  0.00  0.00     0.000 O
ATOM     30   O  ASG B   2      15.018  29.014  63.1690  0.00  0.00     0.000 OA
ATOM     31   O  ASG B   2      16.927  30.305  62.4040  0.00  0.00     0.000 OA
ATOM     32   O  ASG B   2      15.783  28.818  60.8790  0.00  0.00     0.000 OA
ATOM     33   S  ASG B   2      16.153  29.093  62.2680  0.00  0.00     0.000 S
ENDBRANCH 18 29
BRANCH 15 34
ATOM     34  O4  ASG B   3      19.404  23.943  63.4100  0.00  0.00     0.000 O
BRANCH 34 38
ATOM     35  C1  GCT B   3      19.177  21.023  60.6190  0.00  0.00     0.000 C
ATOM     36  C2  GCT B   3      19.059  22.423  60.0570  0.00  0.00     0.000 C
ATOM     37  C3  GCT B   3      19.579  23.452  61.0510  0.00  0.00     0.000 C
ATOM     38  C4  GCT B   3      18.765  23.356  62.3470  0.00  0.00     0.000 C
ATOM     39  C5  GCT B   3      18.326  21.905  62.6500  0.00  0.00     0.000 C
ATOM     40  O5  GCT B   3      19.282  21.057  62.0380  0.00  0.00     0.000 O
ATOM     41   O  GCT B   3      19.838  22.448  58.8690  0.00  0.00     0.000 O
ATOM     43  HD  GCT B   3      19.693  22.141  58.0730  0.00  0.00     0.000 HD
ATOM     43   O  GCT B   3      19.508  24.758  60.4400  0.00  0.00     0.000 O
ATOM     45  HD  GCT B   3      19.363  24.451  59.6440  0.00  0.00     0.000 HD
BRANCH 39 45
ATOM     45   C  GCT B   3      16.936  21.473  62.2360  0.00  0.00     0.000 C
ATOM     46   O  GCT B   3      16.169  22.303  61.6540  0.00  0.00     0.000 OA
ATOM     47   O  GCT B   3      16.601  20.301  62.4720  0.00  0.00     0.000 OA
ENDBRANCH 39 45
BRANCH 35 48
ATOM     48  O3  ASG B   4      18.489  20.193  59.8650  0.00  0.00     0.000 O
BRANCH 48 51
ATOM     49  C1  ASG B   4      19.572  17.385  57.7130  0.00  0.00     0.000 C
ATOM     50  C2  ASG B   4      18.979  18.741  58.1290  0.00  0.00     0.000 C
ATOM     51  C3  ASG B   4      19.285  19.052  59.5910  0.00  0.00     0.000 C
ATOM     52  C4  ASG B   4      18.919  17.883  60.4910  0.00  0.00     0.000 C
ATOM     53  C5  ASG B   4      19.625  16.638  59.9610  0.00  0.00     0.000 C
ATOM     54  O5  ASG B   4      19.169  16.372  58.6200  0.00  0.00     0.000 O
BRANCH 50 57
ATOM     55   N  ASG B   4      19.535  19.735  57.2400  0.00  0.00     0.000 N
ATOM     57  HD  ASG B   4      19.147  19.469  56.5130  0.00  0.00     0.000 HD
ATOM     57   O  ASG B   4      17.828  19.675  55.7910  0.00  0.00     0.000 OA
ATOM     58   C  ASG B   4      18.862  20.205  56.1850  0.00  0.00     0.000 C
ATOM     59   C  ASG B   4      19.482  21.380  55.4930  0.00  0.00     0.000 C
ENDBRANCH 50 57
BRANCH 52 60
ATOM     60   O  ASG B   4      17.436  17.834  60.4120  0.00  0.00     0.000 O
ATOM     61   O  ASG B   4      17.221  16.801  62.6740  0.00  0.00     0.000 OA
ATOM     62   O  ASG B   4      15.268  17.443  61.4740  0.00  0.00     0.000 OA
ATOM     63   O  ASG B   4      16.647  15.693  60.6060  0.00  0.00     0.000 OA
ATOM     64   S  ASG B   4      16.578  16.917  61.4090  0.00  0.00     0.000 S
ENDBRANCH 52 60
ATOM     65   O  ASG B   4      20.346  14.373  60.4400  0.00  0.00     0.000 O
ATOM     67  HD  ASG B   4      20.032  14.108  59.6770  0.00  0.00     0.000 HD
ATOM     67   O  ASG B   4      20.346  14.373  60.4400  0.00  0.00     0.000 O
ATOM     69  HD  ASG B   4      20.032  14.108  59.6770  0.00  0.00     0.000 HD
ENDBRANCH 48 51
ENDBRANCH 35 48
ENDBRANCH 34 38
ENDBRANCH 15 34
ENDBRANCH 14 17
ENDBRANCH 1 14
TORSDOF 12
ENDMDL
MODEL 37
REMARK VINA RESULT:      -7.3     18.519     23.215
ROOT
ATOM      1  C1  GAD B   1      18.813  52.663  57.4920  0.00  0.00     0.000 C
ATOM      2  C2  GAD B   1      17.541  53.207  58.1480  0.00  0.00     0.000 C
ATOM      3  C3  GAD B   1      17.179  52.364  59.3770  0.00  0.00     0.000 C
ATOM      4  C4  GAD B   1      17.565  50.886  59.2690  0.00  0.00     0.000 C
ATOM      5  C5  GAD B   1      18.300  50.365  58.2660  0.00  0.00     0.000 C
ATOM      6  O5  GAD B   1      18.703  51.259  57.2120  0.00  0.00     0.000 O
ATOM      7   O  GAD B   1      17.667  54.644  58.4580  0.00  0.00     0.000 O
ATOM      9  HD  GAD B   1      18.337  54.558  57.9150  0.00  0.00     0.000 HD
ATOM      9   O  GAD B   1      15.758  52.389  59.6390  0.00  0.00     0.000 O
ATOM     11  HD  GAD B   1      16.428  52.303  59.0960  0.00  0.00     0.000 HD
ENDROOT
BRANCH 5 11
ATOM     11   C  GAD B   1      18.768  48.961  58.2060  0.00  0.00     0.000 C
ATOM     12   O  GAD B   1      19.434  48.620  57.1800  0.00  0.00     0.000 OA
ATOM     13   O  GAD B   1      18.430  48.127  59.1250  0.00  0.00     0.000 OA
ENDBRANCH 5 11
BRANCH 1 14
ATOM     14  O3  ASG B   2      19.157  52.895  56.2120  0.00  0.00     0.000 O
BRANCH 14 17
ATOM     15  C1  ASG B   2      19.403  51.018  52.9410  0.00  0.00     0.000 C
ATOM     16  C2  ASG B   2      19.919  51.711  54.2100  0.00  0.00     0.000 C
ATOM     17  C3  ASG B   2      18.727  52.240  55.0130  0.00  0.00     0.000 C
ATOM     18  C4  ASG B   2      17.920  53.206  54.1660  0.00  0.00     0.000 C
ATOM     19  C5  ASG B   2      17.532  52.520  52.8600  0.00  0.00     0.000 C
ATOM     20  O5  ASG B   2      18.708  52.007  52.2040  0.00  0.00     0.000 O
ATOM     21   C  ASG B   2      16.876  53.450  51.8900  0.00  0.00     0.000 C
ATOM     22   O  ASG B   2      16.744  52.808  50.6460  0.00  0.00     0.000 O
ATOM     24  HD  ASG B   2      16.597  52.541  49.8350  0.00  0.00     0.000 HD
BRANCH 16 26
ATOM     24   N  ASG B   2      20.745  50.912  55.0860  0.00  0.00     0.000 N
ATOM     26  HD  ASG B   2      20.629  50.713  54.2510  0.00  0.00     0.000 HD
ATOM     26   C  ASG B   2      21.833  51.377  55.7260  0.00  0.00     0.000 C
ATOM     27   C  ASG B   2      22.352  50.529  56.8360  0.00  0.00     0.000 C
ATOM     28   O  ASG B   2      22.362  52.436  55.4120  0.00  0.00     0.000 OA
ENDBRANCH 16 26
BRANCH 18 29
ATOM     29   O  ASG B   2      18.768  54.388  53.9590  0.00  0.00     0.000 O
ATOM     30   O  ASG B   2      16.898  55.983  53.9780  0.00  0.00     0.000 OA
ATOM     31   O  ASG B   2      18.391  55.845  55.8870  0.00  0.00     0.000 OA
ATOM     32   O  ASG B   2      19.183  56.762  53.7960  0.00  0.00     0.000 OA
ATOM     33   S  ASG B   2      18.262  55.833  54.4490  0.00  0.00     0.000 S
ENDBRANCH 18 29
BRANCH 15 34
ATOM     34  O4  ASG B   3      20.418  50.492  52.1360  0.00  0.00     0.000 O
BRANCH 34 38
ATOM     35  C1  GCT B   3      22.219  50.896  48.5360  0.00  0.00     0.000 C
ATOM     36  C2  GCT B   3      23.102  51.259  49.7100  0.00  0.00     0.000 C
ATOM     37  C3  GCT B   3      22.544  50.685  51.0050  0.00  0.00     0.000 C
ATOM     38  C4  GCT B   3      21.135  51.242  51.2380  0.00  0.00     0.000 C
ATOM     39  C5  GCT B   3      20.373  51.464  49.9120  0.00  0.00     0.000 C
ATOM     40  O5  GCT B   3      20.912  50.546  48.9770  0.00  0.00     0.000 O
ATOM     41   O  GCT B   3      24.382  50.709  49.4380  0.00  0.00     0.000 O
ATOM     43  HD  GCT B   3      25.022  50.959  48.9100  0.00  0.00     0.000 HD
ATOM     43   O  GCT B   3      23.457  51.000  52.0780  0.00  0.00     0.000 O
ATOM     45  HD  GCT B   3      24.096  51.250  51.5500  0.00  0.00     0.000 HD
BRANCH 39 45
ATOM     45   C  GCT B   3      20.370  52.851  49.3070  0.00  0.00     0.000 C
ATOM     46   O  GCT B   3      21.136  53.746  49.7870  0.00  0.00     0.000 OA
ATOM     47   O  GCT B   3      19.618  53.059  48.3410  0.00  0.00     0.000 OA
ENDBRANCH 39 45
BRANCH 35 48
ATOM     48  O3  ASG B   4      22.569  51.613  47.4900  0.00  0.00     0.000 O
BRANCH 48 51
ATOM     49  C1  ASG B   4      22.754  50.034  44.1490  0.00  0.00     0.000 C
ATOM     50  C2  ASG B   4      23.167  50.479  45.5620  0.00  0.00     0.000 C
ATOM     51  C3  ASG B   4      21.980  51.055  46.3290  0.00  0.00     0.000 C
ATOM     52  C4  ASG B   4      21.251  52.106  45.5080  0.00  0.00     0.000 C
ATOM     53  C5  ASG B   4      20.879  51.484  44.1640  0.00  0.00     0.000 C
ATOM     54  O5  ASG B   4      22.083  51.088  43.4780  0.00  0.00     0.000 O
BRANCH 50 57
ATOM     55   N  ASG B   4      23.704  49.205  45.9810  0.00  0.00     0.000 N
ATOM     57  HD  ASG B   4      24.442  49.236  45.5280  0.00  0.00     0.000 HD
ATOM     57   O  ASG B   4      25.845  49.792  45.6860  0.00  0.00     0.000 OA
ATOM     58   C  ASG B   4      25.017  48.992  46.1110  0.00  0.00     0.000 C
ATOM     59   C  ASG B   4      25.403  47.697  46.7570  0.00  0.00     0.000 C
ENDBRANCH 50 57
BRANCH 52 60
ATOM     60   O  ASG B   4      22.230  53.220  45.4230  0.00  0.00     0.000 O
ATOM     61   O  ASG B   4      20.559  54.915  46.1770  0.00  0.00     0.000 OA
ATOM     62   O  ASG B   4      22.831  55.552  45.8530  0.00  0.00     0.000 OA
ATOM     63   O  ASG B   4      21.537  54.849  43.9690  0.00  0.00     0.000 OA
ATOM     64   S  ASG B   4      21.752  54.750  45.4160  0.00  0.00     0.000 S
ENDBRANCH 52 60
ATOM     65   O  ASG B   4      19.497  51.653  42.1790  0.00  0.00     0.000 O
ATOM     67  HD  ASG B   4      20.187  51.492  41.6810  0.00  0.00     0.000 HD
ATOM     67   O  ASG B   4      19.497  51.653  42.1790  0.00  0.00     0.000 O
ATOM     69  HD  ASG B   4      20.187  51.492  41.6810  0.00  0.00     0.000 HD
ENDBRANCH 48 51
ENDBRANCH 35 48
ENDBRANCH 34 38
ENDBRANCH 15 34
ENDBRANCH 14 17
ENDBRANCH 1 14
TORSDOF 12
ENDMDL
MODEL 38
REMARK VINA RESULT:      -7.3     28.188     32.206
ROOT
ATOM      1  C1  GAD B   1      18.454  29.413  62.0100  0.00  0.00     0.000 C
ATOM      2  C2  GAD B   1      17.718  30.581  62.6740  0.00  0.00     0.000 C
ATOM      3  C3  GAD B   1      18.691  31.736  62.9360  0.00  0.00     0.000 C
ATOM      4  C4  GAD B   1      20.127  31.300  63.2380  0.00  0.00     0.000 C
ATOM      5  C5  GAD B   1      20.573  30.032  63.1360  0.00  0.00     0.000 C
ATOM      6  O5  GAD B   1      19.614  29.025  62.7630  0.00  0.00     0.000 O
ATOM      7   O  GAD B   1      16.541  30.992  61.8850  0.00  0.00     0.000 O
ATOM      9  HD  GAD B   1      16.693  30.223  61.5170  0.00  0.00     0.000 HD
ATOM      9   O  GAD B   1      18.271  32.540  64.0610  0.00  0.00     0.000 O
ATOM     11  HD  GAD B   1      18.424  31.770  63.6940  0.00  0.00     0.000 HD
ENDROOT
BRANCH 5 11
ATOM     11   C  GAD B   1      21.983  29.617  63.3230  0.00  0.00     0.000 C
ATOM     12   O  GAD B   1      22.380  28.613  62.6540  0.00  0.00     0.000 OA
ATOM     13   O  GAD B   1      22.723  30.212  64.1910  0.00  0.00     0.000 OA
ENDBRANCH 5 11
BRANCH 1 14
ATOM     14  O3  ASG B   2      18.015  28.140  62.0280  0.00  0.00     0.000 O
BRANCH 14 17
ATOM     15  C1  ASG B   2      19.487  24.697  62.5330  0.00  0.00     0.000 C
ATOM     16  C2  ASG B   2      18.936  25.892  61.7410  0.00  0.00     0.000 C
ATOM     17  C3  ASG B   2      18.533  26.999  62.7200  0.00  0.00     0.000 C
ATOM     18  C4  ASG B   2      17.494  26.477  63.6930  0.00  0.00     0.000 C
ATOM     19  C5  ASG B   2      18.030  25.219  64.3680  0.00  0.00     0.000 C
ATOM     20  O5  ASG B   2      18.435  24.259  63.3720  0.00  0.00     0.000 O
ATOM     21   C  ASG B   2      17.009  24.540  65.2230  0.00  0.00     0.000 C
ATOM     22   O  ASG B   2      17.503  23.289  65.6350  0.00  0.00     0.000 O
ATOM     24  HD  ASG B   2      17.676  22.506  65.9620  0.00  0.00     0.000 HD
BRANCH 16 26
ATOM     24   N  ASG B   2      19.813  26.457  60.7420  0.00  0.00     0.000 N
ATOM     26  HD  ASG B   2      19.915  25.652  61.0440  0.00  0.00     0.000 HD
ATOM     26   C  ASG B   2      19.401  26.889  59.5360  0.00  0.00     0.000 C
ATOM     27   C  ASG B   2      20.361  27.744  58.7820  0.00  0.00     0.000 C
ATOM     28   O  ASG B   2      18.300  26.594  59.0880  0.00  0.00     0.000 OA
ENDBRANCH 16 26
BRANCH 18 29
ATOM     29   O  ASG B   2      16.276  26.229  62.9090  0.00  0.00     0.000 O
ATOM     30   O  ASG B   2      14.739  26.725  64.7630  0.00  0.00     0.000 OA
ATOM     31   O  ASG B   2      15.002  28.315  62.9480  0.00  0.00     0.000 OA
ATOM     32   O  ASG B   2      13.886  26.206  62.5560  0.00  0.00     0.000 OA
ATOM     33   S  ASG B   2      14.893  26.928  63.3340  0.00  0.00     0.000 S
ENDBRANCH 18 29
BRANCH 15 34
ATOM     34  O4  ASG B   3      19.891  23.628  61.7270  0.00  0.00     0.000 O
BRANCH 34 38
ATOM     35  C1  GCT B   3      19.025  20.276  59.6350  0.00  0.00     0.000 C
ATOM     36  C2  GCT B   3      18.781  21.559  58.8710  0.00  0.00     0.000 C
ATOM     37  C3  GCT B   3      19.517  22.723  59.5190  0.00  0.00     0.000 C
ATOM     38  C4  GCT B   3      19.024  22.891  60.9610  0.00  0.00     0.000 C
ATOM     39  C5  GCT B   3      18.665  21.535  61.6120  0.00  0.00     0.000 C
ATOM     40  O5  GCT B   3      19.454  20.554  60.9630  0.00  0.00     0.000 O
ATOM     41   O  GCT B   3      19.266  21.342  57.5530  0.00  0.00     0.000 O
ATOM     43  HD  GCT B   3      18.941  20.906  56.8790  0.00  0.00     0.000 HD
ATOM     43   O  GCT B   3      19.309  23.904  58.7140  0.00  0.00     0.000 O
ATOM     45  HD  GCT B   3      18.984  23.468  58.0400  0.00  0.00     0.000 HD
BRANCH 39 45
ATOM     45   C  GCT B   3      17.217  21.096  61.6080  0.00  0.00     0.000 C
ATOM     46   O  GCT B   3      16.892  20.005  62.1720  0.00  0.00     0.000 OA
ATOM     47   O  GCT B   3      16.389  21.840  61.0570  0.00  0.00     0.000 OA
ENDBRANCH 39 45
BRANCH 35 48
ATOM     48  O3  ASG B   4      18.182  19.355  59.2190  0.00  0.00     0.000 O
BRANCH 48 51
ATOM     49  C1  ASG B   4      18.909  16.205  57.4210  0.00  0.00     0.000 C
ATOM     50  C2  ASG B   4      18.440  17.646  57.6790  0.00  0.00     0.000 C
ATOM     51  C3  ASG B   4      18.878  18.131  59.0580  0.00  0.00     0.000 C
ATOM     52  C4  ASG B   4      18.508  17.128  60.1370  0.00  0.00     0.000 C
ATOM     53  C5  ASG B   4      19.087  15.772  59.7440  0.00  0.00     0.000 C
ATOM     54  O5  ASG B   4      18.512  15.359  58.4880  0.00  0.00     0.000 O
BRANCH 50 57
ATOM     55   N  ASG B   4      19.008  18.419  56.5980  0.00  0.00     0.000 N
ATOM     57  HD  ASG B   4      18.528  18.090  55.9570  0.00  0.00     0.000 HD
ATOM     57   O  ASG B   4      17.175  18.334  55.3150  0.00  0.00     0.000 OA
ATOM     58   C  ASG B   4      18.291  18.794  55.5350  0.00  0.00     0.000 C
ATOM     59   C  ASG B   4      18.960  19.767  54.6130  0.00  0.00     0.000 C
ENDBRANCH 50 57
BRANCH 52 60
ATOM     60   O  ASG B   4      17.023  17.180  60.1660  0.00  0.00     0.000 O
ATOM     61   O  ASG B   4      16.924  16.664  62.6070  0.00  0.00     0.000 OA
ATOM     62   O  ASG B   4      14.926  17.192  61.4250  0.00  0.00     0.000 OA
ATOM     63   O  ASG B   4      16.118  15.196  60.8650  0.00  0.00     0.000 OA
ATOM     64   S  ASG B   4      16.191  16.563  61.3900  0.00  0.00     0.000 S
ENDBRANCH 52 60
ATOM     65   O  ASG B   4      19.695  13.546  60.4910  0.00  0.00     0.000 O
ATOM     67  HD  ASG B   4      19.306  13.204  59.7970  0.00  0.00     0.000 HD
ATOM     67   O  ASG B   4      19.695  13.546  60.4910  0.00  0.00     0.000 O
ATOM     69  HD  ASG B   4      19.306  13.204  59.7970  0.00  0.00     0.000 HD
ENDBRANCH 48 51
ENDBRANCH 35 48
ENDBRANCH 34 38
ENDBRANCH 15 34
ENDBRANCH 14 17
ENDBRANCH 1 14
TORSDOF 12
ENDMDL
MODEL 39
REMARK VINA RESULT:      -7.3     37.994     42.405
ROOT
ATOM      1  C1  GAD B   1       6.252  47.225  76.7980  0.00  0.00     0.000 C
ATOM      2  C2  GAD B   1       6.709  46.930  78.2310  0.00  0.00     0.000 C
ATOM      3  C3  GAD B   1       6.159  45.575  78.6900  0.00  0.00     0.000 C
ATOM      4  C4  GAD B   1       4.797  45.207  78.0950  0.00  0.00     0.000 C
ATOM      5  C5  GAD B   1       4.177  45.911  77.1270  0.00  0.00     0.000 C
ATOM      6  O5  GAD B   1       4.827  47.110  76.6650  0.00  0.00     0.000 O
ATOM      7   O  GAD B   1       8.176  47.025  78.3580  0.00  0.00     0.000 O
ATOM      9  HD  GAD B   1       8.075  47.425  77.5960  0.00  0.00     0.000 HD
ATOM      9   O  GAD B   1       5.995  45.527  80.1250  0.00  0.00     0.000 O
ATOM     11  HD  GAD B   1       5.894  45.927  79.3640  0.00  0.00     0.000 HD
ENDROOT
BRANCH 5 11
ATOM     11   C  GAD B   1       2.912  45.507  76.4700  0.00  0.00     0.000 C
ATOM     12   O  GAD B   1       1.940  46.321  76.5440  0.00  0.00     0.000 OA
ATOM     13   O  GAD B   1       2.807  44.345  75.9290  0.00  0.00     0.000 OA
ENDBRANCH 5 11
BRANCH 1 14
ATOM     14  O3  ASG B   2       6.205  48.459  76.2640  0.00  0.00     0.000 O
BRANCH 14 17
ATOM     15  C1  ASG B   2       7.532  50.345  73.2700  0.00  0.00     0.000 C
ATOM     16  C2  ASG B   2       7.429  49.939  74.7470  0.00  0.00     0.000 C
ATOM     17  C3  ASG B   2       6.338  48.875  74.8990  0.00  0.00     0.000 C
ATOM     18  C4  ASG B   2       5.012  49.416  74.4000  0.00  0.00     0.000 C
ATOM     19  C5  ASG B   2       5.187  49.923  72.9720  0.00  0.00     0.000 C
ATOM     20  O5  ASG B   2       6.268  50.875  72.9160  0.00  0.00     0.000 O
ATOM     21   C  ASG B   2       3.974  50.626  72.4540  0.00  0.00     0.000 C
ATOM     22   O  ASG B   2       4.281  51.245  71.2290  0.00  0.00     0.000 O
ATOM     24  HD  ASG B   2       4.326  51.670  70.4760  0.00  0.00     0.000 HD
BRANCH 16 26
ATOM     24   N  ASG B   2       8.015  50.383  75.9900  0.00  0.00     0.000 N
ATOM     26  HD  ASG B   2       7.177  50.177  75.9220  0.00  0.00     0.000 HD
ATOM     26   C  ASG B   2       9.019  49.745  76.6190  0.00  0.00     0.000 C
ATOM     27   C  ASG B   2       9.719  50.515  77.6860  0.00  0.00     0.000 C
ATOM     28   O  ASG B   2       9.336  48.598  76.3280  0.00  0.00     0.000 OA
ENDBRANCH 16 26
BRANCH 18 29
ATOM     29   O  ASG B   2       4.615  50.475  75.3360  0.00  0.00     0.000 O
ATOM     30   O  ASG B   2       2.206  50.226  74.9120  0.00  0.00     0.000 OA
ATOM     31   O  ASG B   2       3.160  49.414  76.9910  0.00  0.00     0.000 OA
ATOM     32   O  ASG B   2       3.011  51.791  76.5760  0.00  0.00     0.000 OA
ATOM     33   S  ASG B   2       3.147  50.456  75.9920  0.00  0.00     0.000 S
ENDBRANCH 18 29
BRANCH 15 34
ATOM     34  O4  ASG B   3       8.509  51.315  73.0210  0.00  0.00     0.000 O
BRANCH 34 38
ATOM     35  C1  GCT B   3       9.121  54.077  70.1290  0.00  0.00     0.000 C
ATOM     36  C2  GCT B   3       9.229  54.624  71.5360  0.00  0.00     0.000 C
ATOM     37  C3  GCT B   3       9.426  53.498  72.5410  0.00  0.00     0.000 C
ATOM     38  C4  GCT B   3       8.233  52.537  72.4610  0.00  0.00     0.000 C
ATOM     39  C5  GCT B   3       7.681  52.417  71.0220  0.00  0.00     0.000 C
ATOM     40  O5  GCT B   3       8.761  52.700  70.1500  0.00  0.00     0.000 O
ATOM     41   O  GCT B   3      10.352  55.494  71.5450  0.00  0.00     0.000 O
ATOM     43  HD  GCT B   3      10.465  56.300  71.2480  0.00  0.00     0.000 HD
ATOM     43   O  GCT B   3       9.592  54.077  73.8530  0.00  0.00     0.000 O
ATOM     45  HD  GCT B   3       9.705  54.882  73.5560  0.00  0.00     0.000 HD
BRANCH 39 45
ATOM     45   C  GCT B   3       6.490  53.267  70.6360  0.00  0.00     0.000 C
ATOM     46   O  GCT B   3       5.988  54.067  71.4870  0.00  0.00     0.000 OA
ATOM     47   O  GCT B   3       6.051  53.156  69.4790  0.00  0.00     0.000 OA
ENDBRANCH 39 45
BRANCH 35 48
ATOM     48  O3  ASG B   4       8.693  55.027  69.3250  0.00  0.00     0.000 O
BRANCH 48 51
ATOM     49  C1  ASG B   4      10.527  55.347  66.1280  0.00  0.00     0.000 C
ATOM     50  C2  ASG B   4      10.216  55.441  67.6310  0.00  0.00     0.000 C
ATOM     51  C3  ASG B   4       8.959  54.651  67.9850  0.00  0.00     0.000 C
ATOM     52  C4  ASG B   4       7.806  55.008  67.0620  0.00  0.00     0.000 C
ATOM     53  C5  ASG B   4       8.274  54.816  65.6220  0.00  0.00     0.000 C
ATOM     54  O5  ASG B   4       9.384  55.698  65.3650  0.00  0.00     0.000 O
BRANCH 50 57
ATOM     55   N  ASG B   4      11.524  54.958  68.0080  0.00  0.00     0.000 N
ATOM     57  HD  ASG B   4      11.962  55.692  67.8690  0.00  0.00     0.000 HD
ATOM     57   O  ASG B   4      12.303  56.967  68.6170  0.00  0.00     0.000 OA
ATOM     58   C  ASG B   4      12.440  55.748  68.5750  0.00  0.00     0.000 C
ATOM     59   C  ASG B   4      13.658  55.053  69.1010  0.00  0.00     0.000 C
ENDBRANCH 50 57
BRANCH 52 60
ATOM     60   O  ASG B   4       7.490  56.413  67.4270  0.00  0.00     0.000 O
ATOM     61   O  ASG B   4       5.134  55.860  68.0380  0.00  0.00     0.000 OA
ATOM     62   O  ASG B   4       5.970  58.058  68.4100  0.00  0.00     0.000 OA
ATOM     63   O  ASG B   4       5.770  57.251  66.1680  0.00  0.00     0.000 OA
ATOM     64   S  ASG B   4       5.975  56.914  67.5800  0.00  0.00     0.000 S
ENDBRANCH 52 60
ATOM     65   O  ASG B   4       7.610  54.561  63.3030  0.00  0.00     0.000 O
ATOM     67  HD  ASG B   4       8.207  55.140  63.0650  0.00  0.00     0.000 HD
ATOM     67   O  ASG B   4       7.610  54.561  63.3030  0.00  0.00     0.000 O
ATOM     69  HD  ASG B   4       8.207  55.140  63.0650  0.00  0.00     0.000 HD
ENDBRANCH 48 51
ENDBRANCH 35 48
ENDBRANCH 34 38
ENDBRANCH 15 34
ENDBRANCH 14 17
ENDBRANCH 1 14
TORSDOF 12
ENDMDL
MODEL 40
REMARK VINA RESULT:      -7.3     27.410     31.476
ROOT
ATOM      1  C1  GAD B   1      22.127  30.016  60.5850  0.00  0.00     0.000 C
ATOM      2  C2  GAD B   1      23.379  30.023  61.4670  0.00  0.00     0.000 C
ATOM      3  C3  GAD B   1      24.549  29.367  60.7250  0.00  0.00     0.000 C
ATOM      4  C4  GAD B   1      24.143  28.249  59.7610  0.00  0.00     0.000 C
ATOM      5  C5  GAD B   1      22.869  27.944  59.4450  0.00  0.00     0.000 C
ATOM      6  O5  GAD B   1      21.831  28.698  60.1000  0.00  0.00     0.000 O
ATOM      7   O  GAD B   1      23.694  31.383  61.9430  0.00  0.00     0.000 O
ATOM      9  HD  GAD B   1      22.882  31.514  61.6740  0.00  0.00     0.000 HD
ATOM      9   O  GAD B   1      25.499  28.780  61.6430  0.00  0.00     0.000 O
ATOM     11  HD  GAD B   1      24.686  28.910  61.3730  0.00  0.00     0.000 HD
ENDROOT
BRANCH 5 11
ATOM     11   C  GAD B   1      22.467  26.937  58.4350  0.00  0.00     0.000 C
ATOM     12   O  GAD B   1      21.991  27.376  57.3430  0.00  0.00     0.000 OA
ATOM     13   O  GAD B   1      22.533  25.683  58.7130  0.00  0.00     0.000 OA
ENDBRANCH 5 11
BRANCH 1 14
ATOM     14  O3  ASG B   2      20.872  30.126  61.0610  0.00  0.00     0.000 O
BRANCH 14 17
ATOM     15  C1  ASG B   2      18.375  28.795  63.5660  0.00  0.00     0.000 C
ATOM     16  C2  ASG B   2      18.902  29.206  62.1830  0.00  0.00     0.000 C
ATOM     17  C3  ASG B   2      20.333  29.732  62.3280  0.00  0.00     0.000 C
ATOM     18  C4  ASG B   2      20.357  30.911  63.2820  0.00  0.00     0.000 C
ATOM     19  C5  ASG B   2      19.712  30.499  64.6010  0.00  0.00     0.000 C
ATOM     20  O5  ASG B   2      18.395  29.966  64.3610  0.00  0.00     0.000 O
ATOM     21   C  ASG B   2      19.542  31.645  65.5460  0.00  0.00     0.000 C
ATOM     22   O  ASG B   2      18.756  31.236  66.6380  0.00  0.00     0.000 O
ATOM     24  HD  ASG B   2      18.293  31.124  67.3620  0.00  0.00     0.000 HD
BRANCH 16 26
ATOM     24   N  ASG B   2      18.768  28.169  61.1860  0.00  0.00     0.000 N
ATOM     26  HD  ASG B   2      18.228  28.235  61.8590  0.00  0.00     0.000 HD
ATOM     26   C  ASG B   2      18.562  28.406  59.8770  0.00  0.00     0.000 C
ATOM     27   C  ASG B   2      18.791  27.255  58.9590  0.00  0.00     0.000 C
ATOM     28   O  ASG B   2      18.206  29.505  59.4700  0.00  0.00     0.000 OA
ENDBRANCH 16 26
BRANCH 18 29
ATOM     29   O  ASG B   2      19.638  32.003  62.6120  0.00  0.00     0.000 O
ATOM     30   O  ASG B   2      21.276  33.730  63.2280  0.00  0.00     0.000 OA
ATOM     31   O  ASG B   2      21.177  32.913  60.9440  0.00  0.00     0.000 OA
ATOM     32   O  ASG B   2      19.380  34.272  61.8220  0.00  0.00     0.000 OA
ATOM     33   S  ASG B   2      20.439  33.307  62.1210  0.00  0.00     0.000 S
ENDBRANCH 18 29
BRANCH 15 34
ATOM     34  O4  ASG B   3      17.069  28.293  63.5430  0.00  0.00     0.000 O
BRANCH 34 38
ATOM     35  C1  GCT B   3      16.957  24.336  62.7090  0.00  0.00     0.000 C
ATOM     36  C2  GCT B   3      15.631  24.908  63.1620  0.00  0.00     0.000 C
ATOM     37  C3  GCT B   3      15.624  26.425  63.0360  0.00  0.00     0.000 C
ATOM     38  C4  GCT B   3      16.749  27.007  63.9000  0.00  0.00     0.000 C
ATOM     39  C5  GCT B   3      17.985  26.081  63.9440  0.00  0.00     0.000 C
ATOM     40  O5  GCT B   3      17.973  25.332  62.7410  0.00  0.00     0.000 O
ATOM     41   O  GCT B   3      14.638  24.339  62.3200  0.00  0.00     0.000 O
ATOM     43  HD  GCT B   3      14.269  23.556  62.3050  0.00  0.00     0.000 HD
ATOM     43   O  GCT B   3      14.319  26.911  63.4120  0.00  0.00     0.000 O
ATOM     45  HD  GCT B   3      13.949  26.128  63.3970  0.00  0.00     0.000 HD
BRANCH 39 45
ATOM     45   C  GCT B   3      18.136  25.138  65.1180  0.00  0.00     0.000 C
ATOM     46   O  GCT B   3      17.211  25.066  65.9870  0.00  0.00     0.000 OA
ATOM     47   O  GCT B   3      19.169  24.452  65.1790  0.00  0.00     0.000 OA
ENDBRANCH 39 45
BRANCH 35 48
ATOM     48  O3  ASG B   4      17.033  23.073  63.0710  0.00  0.00     0.000 O
BRANCH 48 51
ATOM     49  C1  ASG B   4      16.785  19.833  61.3030  0.00  0.00     0.000 C
ATOM     50  C2  ASG B   4      16.959  20.845  62.4480  0.00  0.00     0.000 C
ATOM     51  C3  ASG B   4      16.604  22.258  61.9940  0.00  0.00     0.000 C
ATOM     52  C4  ASG B   4      17.317  22.616  60.7000  0.00  0.00     0.000 C
ATOM     53  C5  ASG B   4      17.000  21.536  59.6700  0.00  0.00     0.000 C
ATOM     54  O5  ASG B   4      17.488  20.268  60.1500  0.00  0.00     0.000 O
BRANCH 50 57
ATOM     55   N  ASG B   4      17.095  21.269  63.8220  0.00  0.00     0.000 N
ATOM     57  HD  ASG B   4      16.949  20.501  64.1950  0.00  0.00     0.000 HD
ATOM     57   O  ASG B   4      17.736  19.262  64.5810  0.00  0.00     0.000 OA
ATOM     58   C  ASG B   4      17.577  20.463  64.7730  0.00  0.00     0.000 C
ATOM     59   C  ASG B   4      17.857  21.114  66.0930  0.00  0.00     0.000 C
ENDBRANCH 50 57
BRANCH 52 60
ATOM     60   O  ASG B   4      18.746  22.690  61.1000  0.00  0.00     0.000 O
ATOM     61   O  ASG B   4      19.299  24.326  59.2980  0.00  0.00     0.000 OA
ATOM     62   O  ASG B   4      20.952  23.727  60.9020  0.00  0.00     0.000 OA
ATOM     63   O  ASG B   4      20.137  22.062  59.3920  0.00  0.00     0.000 OA
ATOM     64   S  ASG B   4      19.855  23.304  60.1190  0.00  0.00     0.000 S
ENDBRANCH 52 60
ATOM     65   O  ASG B   4      16.990  20.933  57.3210  0.00  0.00     0.000 O
ATOM     67  HD  ASG B   4      17.353  20.170  57.5120  0.00  0.00     0.000 HD
ATOM     67   O  ASG B   4      16.990  20.933  57.3210  0.00  0.00     0.000 O
ATOM     69  HD  ASG B   4      17.353  20.170  57.5120  0.00  0.00     0.000 HD
ENDBRANCH 48 51
ENDBRANCH 35 48
ENDBRANCH 34 38
ENDBRANCH 15 34
ENDBRANCH 14 17
ENDBRANCH 1 14
TORSDOF 12
ENDMDL
MODEL 41
REMARK VINA RESULT:      -7.3     22.529     29.156
ROOT
ATOM      1  C1  GAD B   1      18.347  18.570  60.4460  0.00  0.00     0.000 C
ATOM      2  C2  GAD B   1      17.347  17.641  61.1420  0.00  0.00     0.000 C
ATOM      3  C3  GAD B   1      17.958  17.080  62.4310  0.00  0.00     0.000 C
ATOM      4  C4  GAD B   1      19.475  16.879  62.3790  0.00  0.00     0.000 C
ATOM      5  C5  GAD B   1      20.262  17.294  61.3670  0.00  0.00     0.000 C
ATOM      6  O5  GAD B   1      19.614  17.925  60.2460  0.00  0.00     0.000 O
ATOM      7   O  GAD B   1      16.055  18.316  61.3680  0.00  0.00     0.000 O
ATOM      9  HD  GAD B   1      16.400  18.865  60.7940  0.00  0.00     0.000 HD
ATOM      9   O  GAD B   1      17.395  15.793  62.7700  0.00  0.00     0.000 O
ATOM     11  HD  GAD B   1      17.741  16.342  62.1960  0.00  0.00     0.000 HD
ENDROOT
BRANCH 5 11
ATOM     11   C  GAD B   1      21.741  17.199  61.3550  0.00  0.00     0.000 C
ATOM     12   O  GAD B   1      22.278  16.715  60.3100  0.00  0.00     0.000 OA
ATOM     13   O  GAD B   1      22.418  17.523  62.3990  0.00  0.00     0.000 OA
ENDBRANCH 5 11
BRANCH 1 14
ATOM     14  O3  ASG B   2      18.297  18.883  59.1380  0.00  0.00     0.000 O
BRANCH 14 17
ATOM     15  C1  ASG B   2      20.037  21.343  56.8570  0.00  0.00     0.000 C
ATOM     16  C2  ASG B   2      18.917  20.809  57.7610  0.00  0.00     0.000 C
ATOM     17  C3  ASG B   2      19.312  19.425  58.2840  0.00  0.00     0.000 C
ATOM     18  C4  ASG B   2      19.555  18.482  57.1210  0.00  0.00     0.000 C
ATOM     19  C5  ASG B   2      20.583  19.106  56.1810  0.00  0.00     0.000 C
ATOM     20  O5  ASG B   2      20.154  20.424  55.7870  0.00  0.00     0.000 O
ATOM     21   C  ASG B   2      20.764  18.323  54.9200  0.00  0.00     0.000 C
ATOM     22   O  ASG B   2      21.554  19.063  54.0220  0.00  0.00     0.000 O
ATOM     24  HD  ASG B   2      22.025  19.399  53.3780  0.00  0.00     0.000 HD
BRANCH 16 26
ATOM     24   N  ASG B   2      18.554  21.537  58.9550  0.00  0.00     0.000 N
ATOM     26  HD  ASG B   2      19.055  21.881  58.3390  0.00  0.00     0.000 HD
ATOM     26   C  ASG B   2      17.286  21.824  59.3060  0.00  0.00     0.000 C
ATOM     27   C  ASG B   2      17.080  22.268  60.7130  0.00  0.00     0.000 C
ATOM     28   O  ASG B   2      16.360  21.723  58.5110  0.00  0.00     0.000 OA
ENDBRANCH 16 26
BRANCH 18 29
ATOM     29   O  ASG B   2      18.252  18.267  56.4780  0.00  0.00     0.000 O
ATOM     30   O  ASG B   2      18.725  15.940  55.8390  0.00  0.00     0.000 OA
ATOM     31   O  ASG B   2      17.202  16.408  57.6710  0.00  0.00     0.000 OA
ATOM     32   O  ASG B   2      16.556  16.925  55.3990  0.00  0.00     0.000 OA
ATOM     33   S  ASG B   2      17.657  16.779  56.3520  0.00  0.00     0.000 S
ENDBRANCH 18 29
BRANCH 15 34
ATOM     34  O4  ASG B   3      19.776  22.612  56.3300  0.00  0.00     0.000 O
BRANCH 34 38
ATOM     35  C1  GCT B   3      20.907  26.245  54.9540  0.00  0.00     0.000 C
ATOM     36  C2  GCT B   3      21.571  25.084  54.2460  0.00  0.00     0.000 C
ATOM     37  C3  GCT B   3      20.805  23.791  54.4890  0.00  0.00     0.000 C
ATOM     38  C4  GCT B   3      20.760  23.508  55.9960  0.00  0.00     0.000 C
ATOM     39  C5  GCT B   3      20.684  24.808  56.8280  0.00  0.00     0.000 C
ATOM     40  O5  GCT B   3      20.065  25.780  56.0040  0.00  0.00     0.000 O
ATOM     41   O  GCT B   3      21.572  25.403  52.8620  0.00  0.00     0.000 O
ATOM     43  HD  GCT B   3      22.060  25.940  52.3900  0.00  0.00     0.000 HD
ATOM     43   O  GCT B   3      21.438  22.733  53.7380  0.00  0.00     0.000 O
ATOM     45  HD  GCT B   3      21.927  23.271  53.2660  0.00  0.00     0.000 HD
BRANCH 39 45
ATOM     45   C  GCT B   3      21.967  25.375  57.3950  0.00  0.00     0.000 C
ATOM     46   O  GCT B   3      23.069  24.781  57.1710  0.00  0.00     0.000 OA
ATOM     47   O  GCT B   3      21.893  26.424  58.0550  0.00  0.00     0.000 OA
ENDBRANCH 39 45
BRANCH 35 48
ATOM     48  O3  ASG B   4      21.719  27.280  54.9490  0.00  0.00     0.000 O
BRANCH 48 51
ATOM     49  C1  ASG B   4      21.930  30.332  52.8680  0.00  0.00     0.000 C
ATOM     50  C2  ASG B   4      22.346  29.023  53.5600  0.00  0.00     0.000 C
ATOM     51  C3  ASG B   4      21.141  28.316  54.1740  0.00  0.00     0.000 C
ATOM     52  C4  ASG B   4      20.321  29.267  55.0300  0.00  0.00     0.000 C
ATOM     53  C5  ASG B   4      19.961  30.481  54.1780  0.00  0.00     0.000 C
ATOM     54  O5  ASG B   4      21.172  31.138  53.7550  0.00  0.00     0.000 O
BRANCH 50 57
ATOM     55   N  ASG B   4      23.366  28.646  54.5120  0.00  0.00     0.000 N
ATOM     57  HD  ASG B   4      23.947  28.345  53.9440  0.00  0.00     0.000 HD
ATOM     57   O  ASG B   4      25.068  28.887  53.0760  0.00  0.00     0.000 OA
ATOM     58   C  ASG B   4      24.669  28.708  54.2230  0.00  0.00     0.000 C
ATOM     59   C  ASG B   4      25.599  28.493  55.3770  0.00  0.00     0.000 C
ENDBRANCH 50 57
BRANCH 52 60
ATOM     60   O  ASG B   4      21.218  29.562  56.1770  0.00  0.00     0.000 O
ATOM     61   O  ASG B   4      19.325  29.644  57.8020  0.00  0.00     0.000 OA
ATOM     62   O  ASG B   4      21.566  29.822  58.5840  0.00  0.00     0.000 OA
ATOM     63   O  ASG B   4      20.679  31.547  57.1860  0.00  0.00     0.000 OA
ATOM     64   S  ASG B   4      20.642  30.130  57.5610  0.00  0.00     0.000 S
ENDBRANCH 52 60
ATOM     65   O  ASG B   4      18.521  32.418  53.9350  0.00  0.00     0.000 O
ATOM     67  HD  ASG B   4      19.209  32.908  53.7420  0.00  0.00     0.000 HD
ATOM     67   O  ASG B   4      18.521  32.418  53.9350  0.00  0.00     0.000 O
ATOM     69  HD  ASG B   4      19.209  32.908  53.7420  0.00  0.00     0.000 HD
ENDBRANCH 48 51
ENDBRANCH 35 48
ENDBRANCH 34 38
ENDBRANCH 15 34
ENDBRANCH 14 17
ENDBRANCH 1 14
TORSDOF 12
ENDMDL
MODEL 42
REMARK VINA RESULT:      -7.3     31.738     38.051
ROOT
ATOM      1  C1  GAD B   1      18.172  26.502  64.9870  0.00  0.00     0.000 C
ATOM      2  C2  GAD B   1      18.286  24.978  65.0930  0.00  0.00     0.000 C
ATOM      3  C3  GAD B   1      17.629  24.315  63.8770  0.00  0.00     0.000 C
ATOM      4  C4  GAD B   1      16.435  25.081  63.3030  0.00  0.00     0.000 C
ATOM      5  C5  GAD B   1      16.060  26.313  63.7030  0.00  0.00     0.000 C
ATOM      6  O5  GAD B   1      16.813  26.915  64.7730  0.00  0.00     0.000 O
ATOM      7   O  GAD B   1      19.686  24.556  65.2890  0.00  0.00     0.000 O
ATOM      9  HD  GAD B   1      19.767  25.398  65.4730  0.00  0.00     0.000 HD
ATOM      9   O  GAD B   1      17.141  22.991  64.1920  0.00  0.00     0.000 O
ATOM     11  HD  GAD B   1      17.222  23.834  64.3770  0.00  0.00     0.000 HD
ENDROOT
BRANCH 5 11
ATOM     11   C  GAD B   1      14.973  27.107  63.0830  0.00  0.00     0.000 C
ATOM     12   O  GAD B   1      15.205  27.602  61.9360  0.00  0.00     0.000 OA
ATOM     13   O  GAD B   1      13.889  27.337  63.7350  0.00  0.00     0.000 OA
ENDBRANCH 5 11
BRANCH 1 14
ATOM     14  O3  ASG B   2      18.263  27.337  66.0390  0.00  0.00     0.000 O
BRANCH 14 17
ATOM     15  C1  ASG B   2      19.596  27.325  69.5740  0.00  0.00     0.000 C
ATOM     16  C2  ASG B   2      18.530  27.289  68.4710  0.00  0.00     0.000 C
ATOM     17  C3  ASG B   2      19.218  27.371  67.1050  0.00  0.00     0.000 C
ATOM     18  C4  ASG B   2      20.040  28.643  67.0140  0.00  0.00     0.000 C
ATOM     19  C5  ASG B   2      21.001  28.701  68.1970  0.00  0.00     0.000 C
ATOM     20  O5  ASG B   2      20.272  28.560  69.4320  0.00  0.00     0.000 O
ATOM     21   C  ASG B   2      21.736  30.000  68.2830  0.00  0.00     0.000 C
ATOM     22   O  ASG B   2      22.433  30.061  69.5030  0.00  0.00     0.000 O
ATOM     24  HD  ASG B   2      22.910  30.234  70.2050  0.00  0.00     0.000 HD
BRANCH 16 26
ATOM     24   N  ASG B   2      17.666  26.140  68.3240  0.00  0.00     0.000 N
ATOM     26  HD  ASG B   2      18.173  26.252  69.0170  0.00  0.00     0.000 HD
ATOM     26   C  ASG B   2      16.327  26.215  68.2050  0.00  0.00     0.000 C
ATOM     27   C  ASG B   2      15.642  24.983  67.7240  0.00  0.00     0.000 C
ATOM     28   O  ASG B   2      15.713  27.239  68.4770  0.00  0.00     0.000 OA
ENDBRANCH 16 26
BRANCH 18 29
ATOM     29   O  ASG B   2      19.082  29.757  67.0020  0.00  0.00     0.000 O
ATOM     30   O  ASG B   2      20.413  31.149  65.4740  0.00  0.00     0.000 OA
ATOM     31   O  ASG B   2      18.404  30.049  64.6710  0.00  0.00     0.000 OA
ATOM     32   O  ASG B   2      18.235  31.886  66.2340  0.00  0.00     0.000 OA
ATOM     33   S  ASG B   2      19.042  30.765  65.7510  0.00  0.00     0.000 S
ENDBRANCH 18 29
BRANCH 15 34
ATOM     34  O4  ASG B   3      19.069  27.250  70.8680  0.00  0.00     0.000 O
BRANCH 34 38
ATOM     35  C1  GCT B   3      16.805  28.964  73.7490  0.00  0.00     0.000 C
ATOM     36  C2  GCT B   3      16.066  27.943  72.9110  0.00  0.00     0.000 C
ATOM     37  C3  GCT B   3      17.043  27.043  72.1670  0.00  0.00     0.000 C
ATOM     38  C4  GCT B   3      17.927  27.904  71.2560  0.00  0.00     0.000 C
ATOM     39  C5  GCT B   3      18.221  29.290  71.8740  0.00  0.00     0.000 C
ATOM     40  O5  GCT B   3      18.138  29.131  73.2800  0.00  0.00     0.000 O
ATOM     41   O  GCT B   3      15.277  27.177  73.8100  0.00  0.00     0.000 O
ATOM     43  HD  GCT B   3      14.533  27.347  74.2190  0.00  0.00     0.000 HD
ATOM     43   O  GCT B   3      16.290  26.049  71.4410  0.00  0.00     0.000 O
ATOM     45  HD  GCT B   3      15.545  26.218  71.8500  0.00  0.00     0.000 HD
BRANCH 39 45
ATOM     45   C  GCT B   3      17.363  30.462  71.4510  0.00  0.00     0.000 C
ATOM     46   O  GCT B   3      16.352  30.264  70.7060  0.00  0.00     0.000 OA
ATOM     47   O  GCT B   3      17.678  31.589  71.8680  0.00  0.00     0.000 OA
ENDBRANCH 39 45
BRANCH 35 48
ATOM     48  O3  ASG B   4      15.958  29.881  74.1640  0.00  0.00     0.000 O
BRANCH 48 51
ATOM     49  C1  ASG B   4      16.611  31.110  77.5930  0.00  0.00     0.000 C
ATOM     50  C2  ASG B   4      16.187  30.172  76.4500  0.00  0.00     0.000 C
ATOM     51  C3  ASG B   4      16.613  30.727  75.0930  0.00  0.00     0.000 C
ATOM     52  C4  ASG B   4      16.186  32.176  74.9330  0.00  0.00     0.000 C
ATOM     53  C5  ASG B   4      16.725  32.965  76.1230  0.00  0.00     0.000 C
ATOM     54  O5  ASG B   4      16.162  32.431  77.3370  0.00  0.00     0.000 O
BRANCH 50 57
ATOM     55   N  ASG B   4      14.835  29.698  76.2630  0.00  0.00     0.000 N
ATOM     57  HD  ASG B   4      14.968  28.875  76.5000  0.00  0.00     0.000 HD
ATOM     57   O  ASG B   4      14.997  28.054  77.7750  0.00  0.00     0.000 OA
ATOM     58   C  ASG B   4      14.306  28.733  77.0220  0.00  0.00     0.000 C
ATOM     59   C  ASG B   4      12.836  28.506  76.8490  0.00  0.00     0.000 C
ENDBRANCH 50 57
BRANCH 52 60
ATOM     60   O  ASG B   4      14.704  32.096  74.8650  0.00  0.00     0.000 O
ATOM     61   O  ASG B   4      14.642  32.850  72.4860  0.00  0.00     0.000 OA
ATOM     62   O  ASG B   4      12.633  32.165  73.5650  0.00  0.00     0.000 OA
ATOM     63   O  ASG B   4      13.767  34.120  74.3460  0.00  0.00     0.000 OA
ATOM     64   S  ASG B   4      13.882  32.814  73.6910  0.00  0.00     0.000 S
ENDBRANCH 52 60
ATOM     65   O  ASG B   4      17.238  35.158  77.0220  0.00  0.00     0.000 O
ATOM     67  HD  ASG B   4      16.852  34.946  77.7670  0.00  0.00     0.000 HD
ATOM     67   O  ASG B   4      17.238  35.158  77.0220  0.00  0.00     0.000 O
ATOM     69  HD  ASG B   4      16.852  34.946  77.7670  0.00  0.00     0.000 HD
ENDBRANCH 48 51
ENDBRANCH 35 48
ENDBRANCH 34 38
ENDBRANCH 15 34
ENDBRANCH 14 17
ENDBRANCH 1 14
TORSDOF 12
ENDMDL
MODEL 43
REMARK VINA RESULT:      -7.3      3.588     10.740
ROOT
ATOM      1  C1  GAD B   1      24.445  34.765  39.2790  0.00  0.00     0.000 C
ATOM      2  C2  GAD B   1      24.226  34.677  40.7930  0.00  0.00     0.000 C
ATOM      3  C3  GAD B   1      24.427  33.235  41.2720  0.00  0.00     0.000 C
ATOM      4  C4  GAD B   1      24.030  32.165  40.2500  0.00  0.00     0.000 C
ATOM      5  C5  GAD B   1      23.681  32.427  38.9750  0.00  0.00     0.000 C
ATOM      6  O5  GAD B   1      23.638  33.809  38.5740  0.00  0.00     0.000 O
ATOM      7   O  GAD B   1      25.075  35.644  41.5160  0.00  0.00     0.000 O
ATOM      9  HD  GAD B   1      25.144  35.968  40.7150  0.00  0.00     0.000 HD
ATOM      9   O  GAD B   1      23.655  32.958  42.4620  0.00  0.00     0.000 O
ATOM     11  HD  GAD B   1      23.724  33.282  41.6620  0.00  0.00     0.000 HD
ENDROOT
BRANCH 5 11
ATOM     11   C  GAD B   1      23.399  31.395  37.9500  0.00  0.00     0.000 C
ATOM     12   O  GAD B   1      23.777  30.210  38.2070  0.00  0.00     0.000 OA
ATOM     13   O  GAD B   1      22.868  31.728  36.8270  0.00  0.00     0.000 OA
ENDBRANCH 5 11
BRANCH 1 14
ATOM     14  O3  ASG B   2      23.957  35.752  38.5050  0.00  0.00     0.000 O
BRANCH 14 17
ATOM     15  C1  ASG B   2      21.187  36.368  36.0090  0.00  0.00     0.000 C
ATOM     16  C2  ASG B   2      22.630  36.156  36.4890  0.00  0.00     0.000 C
ATOM     17  C3  ASG B   2      22.630  35.958  38.0080  0.00  0.00     0.000 C
ATOM     18  C4  ASG B   2      22.013  37.166  38.6870  0.00  0.00     0.000 C
ATOM     19  C5  ASG B   2      20.630  37.419  38.0940  0.00  0.00     0.000 C
ATOM     20  O5  ASG B   2      20.722  37.535  36.6610  0.00  0.00     0.000 O
ATOM     21   C  ASG B   2      20.013  38.689  38.5860  0.00  0.00     0.000 C
ATOM     22   O  ASG B   2      18.850  38.960  37.8430  0.00  0.00     0.000 O
ATOM     24  HD  ASG B   2      18.121  39.248  37.4740  0.00  0.00     0.000 HD
BRANCH 16 26
ATOM     24   N  ASG B   2      23.330  35.101  35.7910  0.00  0.00     0.000 N
ATOM     26  HD  ASG B   2      22.685  35.549  35.4260  0.00  0.00     0.000 HD
ATOM     26   C  ASG B   2      24.651  35.115  35.5370  0.00  0.00     0.000 C
ATOM     27   C  ASG B   2      25.252  33.815  35.1240  0.00  0.00     0.000 C
ATOM     28   O  ASG B   2      25.317  36.137  35.6410  0.00  0.00     0.000 OA
ENDBRANCH 16 26
BRANCH 18 29
ATOM     29   O  ASG B   2      22.940  38.285  38.4690  0.00  0.00     0.000 O
ATOM     30   O  ASG B   2      22.437  39.382  40.6110  0.00  0.00     0.000 OA
ATOM     31   O  ASG B   2      24.544  38.213  40.3140  0.00  0.00     0.000 OA
ATOM     32   O  ASG B   2      24.131  40.281  39.1310  0.00  0.00     0.000 OA
ATOM     33   S  ASG B   2      23.548  39.079  39.7280  0.00  0.00     0.000 S
ENDBRANCH 18 29
BRANCH 15 34
ATOM     34  O4  ASG B   3      21.076  36.554  34.6270  0.00  0.00     0.000 O
BRANCH 34 38
ATOM     35  C1  GCT B   3      17.905  39.012  34.1170  0.00  0.00     0.000 C
ATOM     36  C2  GCT B   3      17.531  37.563  34.3420  0.00  0.00     0.000 C
ATOM     37  C3  GCT B   3      18.694  36.791  34.9490  0.00  0.00     0.000 C
ATOM     38  C4  GCT B   3      19.896  36.864  34.0000  0.00  0.00     0.000 C
ATOM     39  C5  GCT B   3      19.962  38.213  33.2490  0.00  0.00     0.000 C
ATOM     40  O5  GCT B   3      19.319  39.167  34.0750  0.00  0.00     0.000 O
ATOM     41   O  GCT B   3      16.424  37.566  35.2320  0.00  0.00     0.000 O
ATOM     43  HD  GCT B   3      15.584  37.740  35.1140  0.00  0.00     0.000 HD
ATOM     43   O  GCT B   3      18.264  35.438  35.2070  0.00  0.00     0.000 O
ATOM     45  HD  GCT B   3      17.424  35.613  35.0880  0.00  0.00     0.000 HD
BRANCH 39 45
ATOM     45   C  GCT B   3      19.384  38.289  31.8530  0.00  0.00     0.000 C
ATOM     46   O  GCT B   3      19.412  39.392  31.2210  0.00  0.00     0.000 OA
ATOM     47   O  GCT B   3      18.909  37.249  31.3670  0.00  0.00     0.000 OA
ENDBRANCH 39 45
BRANCH 35 48
ATOM     48  O3  ASG B   4      16.992  39.584  33.3610  0.00  0.00     0.000 O
BRANCH 48 51
ATOM     49  C1  ASG B   4      14.329  42.111  33.8200  0.00  0.00     0.000 C
ATOM     50  C2  ASG B   4      15.105  40.919  33.2350  0.00  0.00     0.000 C
ATOM     51  C3  ASG B   4      16.264  40.516  34.1420  0.00  0.00     0.000 C
ATOM     52  C4  ASG B   4      17.113  41.719  34.5180  0.00  0.00     0.000 C
ATOM     53  C5  ASG B   4      16.195  42.779  35.1190  0.00  0.00     0.000 C
ATOM     54  O5  ASG B   4      15.218  43.170  34.1350  0.00  0.00     0.000 O
BRANCH 50 57
ATOM     55   N  ASG B   4      14.322  39.730  32.9920  0.00  0.00     0.000 N
ATOM     57  HD  ASG B   4      13.770  40.070  32.4180  0.00  0.00     0.000 HD
ATOM     57   O  ASG B   4      13.704  40.324  30.9230  0.00  0.00     0.000 OA
ATOM     58   C  ASG B   4      13.762  39.474  31.8050  0.00  0.00     0.000 C
ATOM     59   C  ASG B   4      13.169  38.107  31.6500  0.00  0.00     0.000 C
ENDBRANCH 50 57
BRANCH 52 60
ATOM     60   O  ASG B   4      17.750  42.110  33.2330  0.00  0.00     0.000 O
ATOM     61   O  ASG B   4      19.991  42.416  34.2890  0.00  0.00     0.000 OA
ATOM     62   O  ASG B   4      19.756  42.614  31.9280  0.00  0.00     0.000 OA
ATOM     63   O  ASG B   4      18.670  44.205  33.3450  0.00  0.00     0.000 OA
ATOM     64   S  ASG B   4      19.178  42.837  33.1980  0.00  0.00     0.000 S
ENDBRANCH 52 60
ATOM     65   O  ASG B   4      16.052  44.807  36.4420  0.00  0.00     0.000 O
ATOM     67  HD  ASG B   4      15.511  45.152  35.8600  0.00  0.00     0.000 HD
ATOM     67   O  ASG B   4      16.052  44.807  36.4420  0.00  0.00     0.000 O
ATOM     69  HD  ASG B   4      15.511  45.152  35.8600  0.00  0.00     0.000 HD
ENDBRANCH 48 51
ENDBRANCH 35 48
ENDBRANCH 34 38
ENDBRANCH 15 34
ENDBRANCH 14 17
ENDBRANCH 1 14
TORSDOF 12
ENDMDL
MODEL 44
REMARK VINA RESULT:      -7.2     22.333     27.432
ROOT
ATOM      1  C1  GAD B   1      25.558  31.867  54.1770  0.00  0.00     0.000 C
ATOM      2  C2  GAD B   1      26.372  33.007  54.7960  0.00  0.00     0.000 C
ATOM      3  C3  GAD B   1      27.584  33.327  53.9140  0.00  0.00     0.000 C
ATOM      4  C4  GAD B   1      28.162  32.122  53.1670  0.00  0.00     0.000 C
ATOM      5  C5  GAD B   1      27.589  30.903  53.1350  0.00  0.00     0.000 C
ATOM      6  O5  GAD B   1      26.380  30.724  53.8960  0.00  0.00     0.000 O
ATOM      7   O  GAD B   1      25.528  34.189  55.0600  0.00  0.00     0.000 O
ATOM      9  HD  GAD B   1      24.907  33.597  54.9390  0.00  0.00     0.000 HD
ATOM      9   O  GAD B   1      28.673  33.879  54.6880  0.00  0.00     0.000 O
ATOM     11  HD  GAD B   1      28.052  33.287  54.5680  0.00  0.00     0.000 HD
ENDROOT
BRANCH 5 11
ATOM     11   C  GAD B   1      28.082  29.760  52.3310  0.00  0.00     0.000 C
ATOM     12   O  GAD B   1      27.221  29.125  51.6460  0.00  0.00     0.000 OA
ATOM     13   O  GAD B   1      29.315  29.401  52.4060  0.00  0.00     0.000 OA
ENDBRANCH 5 11
BRANCH 1 14
ATOM     14  O3  ASG B   2      24.707  31.088  54.8710  0.00  0.00     0.000 O
BRANCH 14 17
ATOM     15  C1  ASG B   2      21.906  31.342  57.3940  0.00  0.00     0.000 C
ATOM     16  C2  ASG B   2      23.309  30.996  56.8770  0.00  0.00     0.000 C
ATOM     17  C3  ASG B   2      23.411  31.389  55.4010  0.00  0.00     0.000 C
ATOM     18  C4  ASG B   2      22.350  30.660  54.5970  0.00  0.00     0.000 C
ATOM     19  C5  ASG B   2      20.982  30.929  55.2170  0.00  0.00     0.000 C
ATOM     20  O5  ASG B   2      20.999  30.583  56.6160  0.00  0.00     0.000 O
ATOM     21   C  ASG B   2      19.893  30.119  54.5920  0.00  0.00     0.000 C
ATOM     22   O  ASG B   2      18.715  30.258  55.3480  0.00  0.00     0.000 O
ATOM     24  HD  ASG B   2      17.929  30.253  55.7100  0.00  0.00     0.000 HD
BRANCH 16 26
ATOM     24   N  ASG B   2      24.432  31.600  57.5570  0.00  0.00     0.000 N
ATOM     26  HD  ASG B   2      23.646  31.552  57.9160  0.00  0.00     0.000 HD
ATOM     26   C  ASG B   2      25.569  30.947  57.8600  0.00  0.00     0.000 C
ATOM     27   C  ASG B   2      26.732  31.797  58.2410  0.00  0.00     0.000 C
ATOM     28   O  ASG B   2      25.639  29.725  57.8230  0.00  0.00     0.000 OA
ENDBRANCH 16 26
BRANCH 18 29
ATOM     29   O  ASG B   2      22.715  29.237  54.6170  0.00  0.00     0.000 O
ATOM     30   O  ASG B   2      21.839  28.772  52.3680  0.00  0.00     0.000 OA
ATOM     31   O  ASG B   2      24.236  28.896  52.7330  0.00  0.00     0.000 OA
ATOM     32   O  ASG B   2      22.968  27.045  53.6350  0.00  0.00     0.000 OA
ATOM     33   S  ASG B   2      22.957  28.452  53.2360  0.00  0.00     0.000 S
ENDBRANCH 18 29
BRANCH 15 34
ATOM     34  O4  ASG B   3      21.710  31.026  58.7430  0.00  0.00     0.000 O
BRANCH 34 38
ATOM     35  C1  GCT B   3      20.329  28.443  61.5330  0.00  0.00     0.000 C
ATOM     36  C2  GCT B   3      21.782  28.234  61.1660  0.00  0.00     0.000 C
ATOM     37  C3  GCT B   3      22.348  29.465  60.4730  0.00  0.00     0.000 C
ATOM     38  C4  GCT B   3      21.539  29.744  59.2010  0.00  0.00     0.000 C
ATOM     39  C5  GCT B   3      20.048  29.371  59.3680  0.00  0.00     0.000 C
ATOM     40  O5  GCT B   3      19.756  29.484  60.7500  0.00  0.00     0.000 O
ATOM     41   O  GCT B   3      22.475  27.991  62.3820  0.00  0.00     0.000 O
ATOM     43  HD  GCT B   3      22.527  27.292  62.8910  0.00  0.00     0.000 HD
ATOM     43   O  GCT B   3      23.749  29.240  60.2080  0.00  0.00     0.000 O
ATOM     45  HD  GCT B   3      23.801  28.541  60.7170  0.00  0.00     0.000 HD
BRANCH 39 45
ATOM     45   C  GCT B   3      19.584  28.020  58.8680  0.00  0.00     0.000 C
ATOM     46   O  GCT B   3      18.350  27.722  58.9220  0.00  0.00     0.000 OA
ATOM     47   O  GCT B   3      20.441  27.250  58.4040  0.00  0.00     0.000 OA
ENDBRANCH 39 45
BRANCH 35 48
ATOM     48  O3  ASG B   4      19.799  27.291  61.8830  0.00  0.00     0.000 O
BRANCH 48 51
ATOM     49  C1  ASG B   4      17.354  27.475  64.6540  0.00  0.00     0.000 C
ATOM     50  C2  ASG B   4      18.701  27.482  63.9130  0.00  0.00     0.000 C
ATOM     51  C3  ASG B   4      18.499  27.519  62.4000  0.00  0.00     0.000 C
ATOM     52  C4  ASG B   4      17.519  26.449  61.9490  0.00  0.00     0.000 C
ATOM     53  C5  ASG B   4      16.231  26.618  62.7510  0.00  0.00     0.000 C
ATOM     54  O5  ASG B   4      16.521  26.443  64.1520  0.00  0.00     0.000 O
BRANCH 50 57
ATOM     55   N  ASG B   4      19.068  28.624  64.7180  0.00  0.00     0.000 N
ATOM     57  HD  ASG B   4      19.312  28.191  65.4270  0.00  0.00     0.000 HD
ATOM     57   O  ASG B   4      20.555  27.509  65.9680  0.00  0.00     0.000 OA
ATOM     58   C  ASG B   4      20.051  28.574  65.6220  0.00  0.00     0.000 C
ATOM     59   C  ASG B   4      20.453  29.888  66.2170  0.00  0.00     0.000 C
ENDBRANCH 50 57
BRANCH 52 60
ATOM     60   O  ASG B   4      18.246  25.180  62.2080  0.00  0.00     0.000 O
ATOM     61   O  ASG B   4      18.355  24.599  59.7830  0.00  0.00     0.000 OA
ATOM     62   O  ASG B   4      19.475  23.234  61.3800  0.00  0.00     0.000 OA
ATOM     63   O  ASG B   4      17.088  23.365  61.4280  0.00  0.00     0.000 OA
ATOM     64   S  ASG B   4      18.347  24.035  61.0910  0.00  0.00     0.000 S
ENDBRANCH 52 60
ATOM     65   O  ASG B   4      13.871  26.083  62.9100  0.00  0.00     0.000 O
ATOM     67  HD  ASG B   4      13.969  25.885  63.7470  0.00  0.00     0.000 HD
ATOM     67   O  ASG B   4      13.871  26.083  62.9100  0.00  0.00     0.000 O
ATOM     69  HD  ASG B   4      13.969  25.885  63.7470  0.00  0.00     0.000 HD
ENDBRANCH 48 51
ENDBRANCH 35 48
ENDBRANCH 34 38
ENDBRANCH 15 34
ENDBRANCH 14 17
ENDBRANCH 1 14
TORSDOF 12
ENDMDL
MODEL 45
REMARK VINA RESULT:      -7.2      2.778     10.287
ROOT
ATOM      1  C1  GAD B   1      20.737  36.937  38.9400  0.00  0.00     0.000 C
ATOM      2  C2  GAD B   1      19.308  36.910  39.4920  0.00  0.00     0.000 C
ATOM      3  C3  GAD B   1      19.080  35.629  40.3030  0.00  0.00     0.000 C
ATOM      4  C4  GAD B   1      19.866  34.414  39.8030  0.00  0.00     0.000 C
ATOM      5  C5  GAD B   1      20.806  34.462  38.8380  0.00  0.00     0.000 C
ATOM      6  O5  GAD B   1      21.044  35.737  38.2130  0.00  0.00     0.000 O
ATOM      7   O  GAD B   1      19.005  38.134  40.2590  0.00  0.00     0.000 O
ATOM      9  HD  GAD B   1      19.719  38.400  39.8480  0.00  0.00     0.000 HD
ATOM      9   O  GAD B   1      17.689  35.237  40.2960  0.00  0.00     0.000 O
ATOM     11  HD  GAD B   1      18.404  35.503  39.8850  0.00  0.00     0.000 HD
ENDROOT
BRANCH 5 11
ATOM     11   C  GAD B   1      21.646  33.314  38.4220  0.00  0.00     0.000 C
ATOM     12   O  GAD B   1      21.937  33.232  37.1880  0.00  0.00     0.000 OA
ATOM     13   O  GAD B   1      21.982  32.415  39.2780  0.00  0.00     0.000 OA
ENDBRANCH 5 11
BRANCH 1 14
ATOM     14  O3  ASG B   2      21.121  37.678  37.8840  0.00  0.00     0.000 O
BRANCH 14 17
ATOM     15  C1  ASG B   2      20.536  41.087  36.3620  0.00  0.00     0.000 C
ATOM     16  C2  ASG B   2      20.444  39.559  36.4720  0.00  0.00     0.000 C
ATOM     17  C3  ASG B   2      21.181  39.101  37.7340  0.00  0.00     0.000 C
ATOM     18  C4  ASG B   2      22.630  39.547  37.6780  0.00  0.00     0.000 C
ATOM     19  C5  ASG B   2      22.680  41.053  37.4430  0.00  0.00     0.000 C
ATOM     20  O5  ASG B   2      21.915  41.395  36.2700  0.00  0.00     0.000 O
ATOM     21   C  ASG B   2      24.067  41.557  37.2080  0.00  0.00     0.000 C
ATOM     22   O  ASG B   2      24.011  42.900  36.7910  0.00  0.00     0.000 O
ATOM     24  HD  ASG B   2      24.127  43.717  36.5320  0.00  0.00     0.000 HD
BRANCH 16 26
ATOM     24   N  ASG B   2      19.991  38.408  35.7250  0.00  0.00     0.000 N
ATOM     26  HD  ASG B   2      20.676  38.375  36.2540  0.00  0.00     0.000 HD
ATOM     26   C  ASG B   2      18.767  37.862  35.8530  0.00  0.00     0.000 C
ATOM     27   C  ASG B   2      18.357  36.915  34.7780  0.00  0.00     0.000 C
ATOM     28   O  ASG B   2      18.037  38.131  36.7990  0.00  0.00     0.000 OA
ENDBRANCH 16 26
BRANCH 18 29
ATOM     29   O  ASG B   2      23.260  38.780  36.5940  0.00  0.00     0.000 O
ATOM     30   O  ASG B   2      25.469  38.689  37.6700  0.00  0.00     0.000 OA
ATOM     31   O  ASG B   2      24.069  36.706  37.6060  0.00  0.00     0.000 OA
ATOM     32   O  ASG B   2      25.069  37.547  35.5720  0.00  0.00     0.000 OA
ATOM     33   S  ASG B   2      24.549  37.871  36.9010  0.00  0.00     0.000 S
ENDBRANCH 18 29
BRANCH 15 34
ATOM     34  O4  ASG B   3      19.886  41.610  35.2390  0.00  0.00     0.000 O
BRANCH 34 38
ATOM     35  C1  GCT B   3      16.562  43.237  33.6050  0.00  0.00     0.000 C
ATOM     36  C2  GCT B   3      16.529  43.156  35.1160  0.00  0.00     0.000 C
ATOM     37  C3  GCT B   3      17.930  42.958  35.6780  0.00  0.00     0.000 C
ATOM     38  C4  GCT B   3      18.521  41.660  35.1130  0.00  0.00     0.000 C
ATOM     39  C5  GCT B   3      18.050  41.391  33.6660  0.00  0.00     0.000 C
ATOM     40  O5  GCT B   3      17.756  42.653  33.0950  0.00  0.00     0.000 O
ATOM     41   O  GCT B   3      15.984  44.385  35.5740  0.00  0.00     0.000 O
ATOM     43  HD  GCT B   3      15.173  44.688  35.5950  0.00  0.00     0.000 HD
ATOM     43   O  GCT B   3      17.850  42.957  37.1190  0.00  0.00     0.000 O
ATOM     45  HD  GCT B   3      17.039  43.261  37.1410  0.00  0.00     0.000 HD
BRANCH 39 45
ATOM     45   C  GCT B   3      16.877  40.459  33.4530  0.00  0.00     0.000 C
ATOM     46   O  GCT B   3      16.296  39.941  34.4590  0.00  0.00     0.000 OA
ATOM     47   O  GCT B   3      16.513  40.246  32.2850  0.00  0.00     0.000 OA
ENDBRANCH 39 45
BRANCH 35 48
ATOM     48  O3  ASG B   4      15.336  43.142  33.1370  0.00  0.00     0.000 O
BRANCH 48 51
ATOM     49  C1  ASG B   4      12.662  45.505  32.1590  0.00  0.00     0.000 C
ATOM     50  C2  ASG B   4      13.359  44.187  32.5360  0.00  0.00     0.000 C
ATOM     51  C3  ASG B   4      14.771  44.439  33.0600  0.00  0.00     0.000 C
ATOM     52  C4  ASG B   4      15.555  45.339  32.1180  0.00  0.00     0.000 C
ATOM     53  C5  ASG B   4      14.741  46.610  31.8900  0.00  0.00     0.000 C
ATOM     54  O5  ASG B   4      13.482  46.262  31.2830  0.00  0.00     0.000 O
BRANCH 50 57
ATOM     55   N  ASG B   4      13.141  42.975  33.2910  0.00  0.00     0.000 N
ATOM     57  HD  ASG B   4      12.296  42.884  33.1210  0.00  0.00     0.000 HD
ATOM     57   O  ASG B   4      11.417  42.278  32.0420  0.00  0.00     0.000 OA
ATOM     58   C  ASG B   4      12.246  42.055  32.9200  0.00  0.00     0.000 C
ATOM     59   C  ASG B   4      12.289  40.765  33.6790  0.00  0.00     0.000 C
ENDBRANCH 50 57
BRANCH 52 60
ATOM     60   O  ASG B   4      15.739  44.498  30.9080  0.00  0.00     0.000 O
ATOM     61   O  ASG B   4      18.173  45.031  30.7510  0.00  0.00     0.000 OA
ATOM     62   O  ASG B   4      17.211  43.438  29.2660  0.00  0.00     0.000 OA
ATOM     63   O  ASG B   4      16.515  45.722  29.1340  0.00  0.00     0.000 OA
ATOM     64   S  ASG B   4      17.039  44.645  29.9800  0.00  0.00     0.000 S
ENDBRANCH 52 60
ATOM     65   O  ASG B   4      14.769  48.909  31.1200  0.00  0.00     0.000 O
ATOM     67  HD  ASG B   4      14.048  48.768  30.6620  0.00  0.00     0.000 HD
ATOM     67   O  ASG B   4      14.769  48.909  31.1200  0.00  0.00     0.000 O
ATOM     69  HD  ASG B   4      14.048  48.768  30.6620  0.00  0.00     0.000 HD
ENDBRANCH 48 51
ENDBRANCH 35 48
ENDBRANCH 34 38
ENDBRANCH 15 34
ENDBRANCH 14 17
ENDBRANCH 1 14
TORSDOF 12
ENDMDL
MODEL 46
REMARK VINA RESULT:      -7.2     18.265     22.962
ROOT
ATOM      1  C1  GAD B   1      18.857  52.637  57.3230  0.00  0.00     0.000 C
ATOM      2  C2  GAD B   1      17.587  53.201  57.9690  0.00  0.00     0.000 C
ATOM      3  C3  GAD B   1      17.209  52.370  59.2010  0.00  0.00     0.000 C
ATOM      4  C4  GAD B   1      17.577  50.887  59.1040  0.00  0.00     0.000 C
ATOM      5  C5  GAD B   1      18.311  50.350  58.1090  0.00  0.00     0.000 C
ATOM      6  O5  GAD B   1      18.730  51.233  57.0510  0.00  0.00     0.000 O
ATOM      7   O  GAD B   1      17.730  54.638  58.2700  0.00  0.00     0.000 O
ATOM      9  HD  GAD B   1      18.401  54.541  57.7320  0.00  0.00     0.000 HD
ATOM      9   O  GAD B   1      15.787  52.414  59.4550  0.00  0.00     0.000 O
ATOM     11  HD  GAD B   1      16.458  52.317  58.9160  0.00  0.00     0.000 HD
ENDROOT
BRANCH 5 11
ATOM     11   C  GAD B   1      18.762  48.940  58.0590  0.00  0.00     0.000 C
ATOM     12   O  GAD B   1      18.559  48.235  59.0960  0.00  0.00     0.000 OA
ATOM     13   O  GAD B   1      19.400  48.501  57.0330  0.00  0.00     0.000 OA
ENDBRANCH 5 11
BRANCH 1 14
ATOM     14  O3  ASG B   2      19.210  52.856  56.0430  0.00  0.00     0.000 O
BRANCH 14 17
ATOM     15  C1  ASG B   2      19.535  50.879  52.8400  0.00  0.00     0.000 C
ATOM     16  C2  ASG B   2      20.019  51.601  54.1050  0.00  0.00     0.000 C
ATOM     17  C3  ASG B   2      18.810  52.173  54.8500  0.00  0.00     0.000 C
ATOM     18  C4  ASG B   2      18.048  53.126  53.9480  0.00  0.00     0.000 C
ATOM     19  C5  ASG B   2      17.694  52.408  52.6500  0.00  0.00     0.000 C
ATOM     20  O5  ASG B   2      18.883  51.856  52.0510  0.00  0.00     0.000 O
ATOM     21   C  ASG B   2      17.087  53.318  51.6310  0.00  0.00     0.000 C
ATOM     22   O  ASG B   2      16.986  52.641  50.4020  0.00  0.00     0.000 O
ATOM     24  HD  ASG B   2      16.862  52.352  49.5950  0.00  0.00     0.000 HD
BRANCH 16 26
ATOM     24   N  ASG B   2      20.860  50.794  54.9580  0.00  0.00     0.000 N
ATOM     26  HD  ASG B   2      20.802  50.659  54.1050  0.00  0.00     0.000 HD
ATOM     26   C  ASG B   2      21.875  51.282  55.6950  0.00  0.00     0.000 C
ATOM     27   C  ASG B   2      22.403  50.384  56.7600  0.00  0.00     0.000 C
ATOM     28   O  ASG B   2      22.333  52.401  55.4990  0.00  0.00     0.000 OA
ENDBRANCH 16 26
BRANCH 18 29
ATOM     29   O  ASG B   2      18.923  54.287  53.7360  0.00  0.00     0.000 O
ATOM     30   O  ASG B   2      17.084  55.919  53.6910  0.00  0.00     0.000 OA
ATOM     31   O  ASG B   2      18.539  55.786  55.6290  0.00  0.00     0.000 OA
ATOM     32   O  ASG B   2      19.388  56.650  53.5370  0.00  0.00     0.000 OA
ATOM     33   S  ASG B   2      18.436  55.750  54.1890  0.00  0.00     0.000 S
ENDBRANCH 18 29
BRANCH 15 34
ATOM     34  O4  ASG B   3      20.568  50.312  52.0860  0.00  0.00     0.000 O
BRANCH 34 38
ATOM     35  C1  GCT B   3      23.430  50.443  49.2300  0.00  0.00     0.000 C
ATOM     36  C2  GCT B   3      23.600  51.478  50.3200  0.00  0.00     0.000 C
ATOM     37  C3  GCT B   3      22.785  51.108  51.5510  0.00  0.00     0.000 C
ATOM     38  C4  GCT B   3      21.304  51.015  51.1660  0.00  0.00     0.000 C
ATOM     39  C5  GCT B   3      21.111  50.488  49.7260  0.00  0.00     0.000 C
ATOM     40  O5  GCT B   3      22.241  49.686  49.4340  0.00  0.00     0.000 O
ATOM     41   O  GCT B   3      24.985  51.507  50.6360  0.00  0.00     0.000 O
ATOM     43  HD  GCT B   3      25.666  51.856  50.2300  0.00  0.00     0.000 HD
ATOM     43   O  GCT B   3      23.037  52.087  52.5810  0.00  0.00     0.000 O
ATOM     45  HD  GCT B   3      23.718  52.436  52.1750  0.00  0.00     0.000 HD
BRANCH 39 45
ATOM     45   C  GCT B   3      20.909  51.492  48.6130  0.00  0.00     0.000 C
ATOM     46   O  GCT B   3      20.872  52.733  48.8870  0.00  0.00     0.000 OA
ATOM     47   O  GCT B   3      20.799  51.057  47.4550  0.00  0.00     0.000 OA
ENDBRANCH 39 45
BRANCH 35 48
ATOM     48  O3  ASG B   4      23.921  50.912  48.1030  0.00  0.00     0.000 O
BRANCH 48 51
ATOM     49  C1  ASG B   4      26.659  49.192  46.3040  0.00  0.00     0.000 C
ATOM     50  C2  ASG B   4      25.943  50.130  47.2910  0.00  0.00     0.000 C
ATOM     51  C3  ASG B   4      24.447  49.836  47.3450  0.00  0.00     0.000 C
ATOM     52  C4  ASG B   4      23.845  49.784  45.9500  0.00  0.00     0.000 C
ATOM     53  C5  ASG B   4      24.645  48.780  45.1250  0.00  0.00     0.000 C
ATOM     54  O5  ASG B   4      26.014  49.222  45.0410  0.00  0.00     0.000 O
BRANCH 50 57
ATOM     55   N  ASG B   4      26.841  49.738  48.3530  0.00  0.00     0.000 N
ATOM     57  HD  ASG B   4      27.515  50.230  48.1210  0.00  0.00     0.000 HD
ATOM     57   O  ASG B   4      28.008  51.649  48.3330  0.00  0.00     0.000 OA
ATOM     58   C  ASG B   4      27.746  50.576  48.8670  0.00  0.00     0.000 C
ATOM     59   C  ASG B   4      28.449  50.095  50.0990  0.00  0.00     0.000 C
ENDBRANCH 50 57
BRANCH 52 60
ATOM     60   O  ASG B   4      23.943  51.190  45.4770  0.00  0.00     0.000 O
ATOM     61   O  ASG B   4      21.752  51.077  44.2860  0.00  0.00     0.000 OA
ATOM     62   O  ASG B   4      22.931  53.142  44.4070  0.00  0.00     0.000 OA
ATOM     63   O  ASG B   4      23.892  51.321  43.1910  0.00  0.00     0.000 OA
ATOM     64   S  ASG B   4      23.015  51.736  44.2900  0.00  0.00     0.000 S
ENDBRANCH 52 60
ATOM     65   O  ASG B   4      24.700  47.396  43.1340  0.00  0.00     0.000 O
ATOM     67  HD  ASG B   4      25.505  47.667  42.9650  0.00  0.00     0.000 HD
ATOM     67   O  ASG B   4      24.700  47.396  43.1340  0.00  0.00     0.000 O
ATOM     69  HD  ASG B   4      25.505  47.667  42.9650  0.00  0.00     0.000 HD
ENDBRANCH 48 51
ENDBRANCH 35 48
ENDBRANCH 34 38
ENDBRANCH 15 34
ENDBRANCH 14 17
ENDBRANCH 1 14
TORSDOF 12
ENDMDL
MODEL 47
REMARK VINA RESULT:      -7.2     42.837     47.109
ROOT
ATOM      1  C1  GAD B   1       7.036  53.482  75.1780  0.00  0.00     0.000 C
ATOM      2  C2  GAD B   1       5.729  54.167  74.7680  0.00  0.00     0.000 C
ATOM      3  C3  GAD B   1       5.513  55.434  75.6040  0.00  0.00     0.000 C
ATOM      4  C4  GAD B   1       6.072  55.357  77.0280  0.00  0.00     0.000 C
ATOM      5  C5  GAD B   1       6.831  54.345  77.4920  0.00  0.00     0.000 C
ATOM      6  O5  GAD B   1       7.088  53.249  76.5940  0.00  0.00     0.000 O
ATOM      7   O  GAD B   1       5.691  54.426  73.3160  0.00  0.00     0.000 O
ATOM      9  HD  GAD B   1       6.347  53.862  73.3400  0.00  0.00     0.000 HD
ATOM      9   O  GAD B   1       4.109  55.747  75.7410  0.00  0.00     0.000 O
ATOM     11  HD  GAD B   1       4.766  55.183  75.7650  0.00  0.00     0.000 HD
ENDROOT
BRANCH 5 11
ATOM     11   C  GAD B   1       7.464  54.311  78.8310  0.00  0.00     0.000 C
ATOM     12   O  GAD B   1       8.465  53.542  78.9750  0.00  0.00     0.000 OA
ATOM     13   O  GAD B   1       6.952  54.977  79.8050  0.00  0.00     0.000 OA
ENDBRANCH 5 11
BRANCH 1 14
ATOM     14  O3  ASG B   2       7.307  52.182  74.9520  0.00  0.00     0.000 O
BRANCH 14 17
ATOM     15  C1  ASG B   2       8.356  49.067  76.8150  0.00  0.00     0.000 C
ATOM     16  C2  ASG B   2       8.513  50.255  75.8560  0.00  0.00     0.000 C
ATOM     17  C3  ASG B   2       7.209  51.057  75.8330  0.00  0.00     0.000 C
ATOM     18  C4  ASG B   2       6.061  50.167  75.3970  0.00  0.00     0.000 C
ATOM     19  C5  ASG B   2       6.015  48.936  76.2970  0.00  0.00     0.000 C
ATOM     20  O5  ASG B   2       7.298  48.280  76.3000  0.00  0.00     0.000 O
ATOM     21   C  ASG B   2       5.018  47.921  75.8400  0.00  0.00     0.000 C
ATOM     22   O  ASG B   2       5.183  46.738  76.5830  0.00  0.00     0.000 O
ATOM     24  HD  ASG B   2       5.169  45.958  76.9580  0.00  0.00     0.000 HD
BRANCH 16 26
ATOM     24   N  ASG B   2       9.482  50.753  74.9060  0.00  0.00     0.000 N
ATOM     26  HD  ASG B   2       8.629  50.804  74.7660  0.00  0.00     0.000 HD
ATOM     26   C  ASG B   2      10.378  51.719  75.1810  0.00  0.00     0.000 C
ATOM     27   C  ASG B   2      11.504  51.862  74.2160  0.00  0.00     0.000 C
ATOM     28   O  ASG B   2      10.270  52.435  76.1690  0.00  0.00     0.000 OA
ENDBRANCH 16 26
BRANCH 18 29
ATOM     29   O  ASG B   2       6.303  49.834  73.9870  0.00  0.00     0.000 O
ATOM     30   O  ASG B   2       3.921  49.770  73.3830  0.00  0.00     0.000 OA
ATOM     31   O  ASG B   2       5.301  51.638  72.6770  0.00  0.00     0.000 OA
ATOM     32   O  ASG B   2       5.631  49.453  71.6980  0.00  0.00     0.000 OA
ATOM     33   S  ASG B   2       5.207  50.211  72.8750  0.00  0.00     0.000 S
ENDBRANCH 18 29
BRANCH 15 34
ATOM     34  O4  ASG B   3       9.500  48.268  76.9130  0.00  0.00     0.000 O
BRANCH 34 38
ATOM     35  C1  GCT B   3       9.997  48.997  80.8610  0.00  0.00     0.000 C
ATOM     36  C2  GCT B   3      11.255  49.174  80.0390  0.00  0.00     0.000 C
ATOM     37  C3  GCT B   3      10.921  49.318  78.5610  0.00  0.00     0.000 C
ATOM     38  C4  GCT B   3      10.178  48.062  78.0880  0.00  0.00     0.000 C
ATOM     39  C5  GCT B   3       9.277  47.470  79.1950  0.00  0.00     0.000 C
ATOM     40  O5  GCT B   3       8.921  48.546  80.0450  0.00  0.00     0.000 O
ATOM     41   O  GCT B   3      11.888  50.352  80.5170  0.00  0.00     0.000 O
ATOM     43  HD  GCT B   3      12.357  50.512  81.2280  0.00  0.00     0.000 HD
ATOM     43   O  GCT B   3      12.145  49.553  77.8330  0.00  0.00     0.000 O
ATOM     45  HD  GCT B   3      12.614  49.712  78.5430  0.00  0.00     0.000 HD
BRANCH 39 45
ATOM     45   C  GCT B   3       9.818  46.330  80.0300  0.00  0.00     0.000 C
ATOM     46   O  GCT B   3      10.998  45.905  79.8220  0.00  0.00     0.000 OA
ATOM     47   O  GCT B   3       9.079  45.856  80.9090  0.00  0.00     0.000 OA
ENDBRANCH 39 45
BRANCH 35 48
ATOM     48  O3  ASG B   4      10.323  48.615  82.0770  0.00  0.00     0.000 O
BRANCH 48 51
ATOM     49  C1  ASG B   4       9.000  50.714  84.8220  0.00  0.00     0.000 C
ATOM     50  C2  ASG B   4       9.871  50.266  83.6370  0.00  0.00     0.000 C
ATOM     51  C3  ASG B   4       9.301  49.014  82.9750  0.00  0.00     0.000 C
ATOM     52  C4  ASG B   4       9.003  47.935  84.0020  0.00  0.00     0.000 C
ATOM     53  C5  ASG B   4       8.098  48.537  85.0730  0.00  0.00     0.000 C
ATOM     54  O5  ASG B   4       8.785  49.631  85.7120  0.00  0.00     0.000 O
BRANCH 50 57
ATOM     55   N  ASG B   4       9.750  51.588  83.0660  0.00  0.00     0.000 N
ATOM     57  HD  ASG B   4      10.350  51.978  83.5530  0.00  0.00     0.000 HD
ATOM     57   O  ASG B   4      11.852  52.196  83.5400  0.00  0.00     0.000 OA
ATOM     58   C  ASG B   4      10.790  52.421  82.9680  0.00  0.00     0.000 C
ATOM     59   C  ASG B   4      10.553  53.661  82.1630  0.00  0.00     0.000 C
ENDBRANCH 50 57
BRANCH 52 60
ATOM     60   O  ASG B   4      10.349  47.534  84.4850  0.00  0.00     0.000 O
ATOM     61   O  ASG B   4       9.910  45.109  84.0880  0.00  0.00     0.000 OA
ATOM     62   O  ASG B   4      12.072  45.823  84.7840  0.00  0.00     0.000 OA
ATOM     63   O  ASG B   4      10.218  46.102  86.2680  0.00  0.00     0.000 OA
ATOM     64   S  ASG B   4      10.675  46.014  84.8780  0.00  0.00     0.000 S
ENDBRANCH 52 60
ATOM     65   O  ASG B   4       6.568  48.093  86.9020  0.00  0.00     0.000 O
ATOM     67  HD  ASG B   4       6.971  48.687  87.3870  0.00  0.00     0.000 HD
ATOM     67   O  ASG B   4       6.568  48.093  86.9020  0.00  0.00     0.000 O
ATOM     69  HD  ASG B   4       6.971  48.687  87.3870  0.00  0.00     0.000 HD
ENDBRANCH 48 51
ENDBRANCH 35 48
ENDBRANCH 34 38
ENDBRANCH 15 34
ENDBRANCH 14 17
ENDBRANCH 1 14
TORSDOF 12
ENDMDL
MODEL 48
REMARK VINA RESULT:      -7.2      4.092      8.294
ROOT
ATOM      1  C1  GAD B   1      18.231  38.696  34.6690  0.00  0.00     0.000 C
ATOM      2  C2  GAD B   1      16.919  38.106  35.1960  0.00  0.00     0.000 C
ATOM      3  C3  GAD B   1      15.725  38.815  34.5470  0.00  0.00     0.000 C
ATOM      4  C4  GAD B   1      15.967  40.288  34.2090  0.00  0.00     0.000 C
ATOM      5  C5  GAD B   1      17.162  40.903  34.3100  0.00  0.00     0.000 C
ATOM      6  O5  GAD B   1      18.263  40.124  34.8150  0.00  0.00     0.000 O
ATOM      7   O  GAD B   1      16.880  36.641  35.0210  0.00  0.00     0.000 O
ATOM      9  HD  GAD B   1      17.726  36.774  34.8970  0.00  0.00     0.000 HD
ATOM      9   O  GAD B   1      14.561  38.787  35.4040  0.00  0.00     0.000 O
ATOM     11  HD  GAD B   1      15.408  38.920  35.2790  0.00  0.00     0.000 HD
ENDROOT
BRANCH 5 11
ATOM     11   C  GAD B   1      17.432  42.297  33.8860  0.00  0.00     0.000 C
ATOM     12   O  GAD B   1      17.069  43.220  34.6800  0.00  0.00     0.000 OA
ATOM     13   O  GAD B   1      17.936  42.534  32.7270  0.00  0.00     0.000 OA
ENDBRANCH 5 11
BRANCH 1 14
ATOM     14  O3  ASG B   2      19.410  38.601  35.3120  0.00  0.00     0.000 O
BRANCH 14 17
ATOM     15  C1  ASG B   2      21.653  40.448  37.7270  0.00  0.00     0.000 C
ATOM     16  C2  ASG B   2      21.243  39.808  36.3930  0.00  0.00     0.000 C
ATOM     17  C3  ASG B   2      19.840  39.210  36.5350  0.00  0.00     0.000 C
ATOM     18  C4  ASG B   2      19.826  38.180  37.6490  0.00  0.00     0.000 C
ATOM     19  C5  ASG B   2      20.358  38.822  38.9270  0.00  0.00     0.000 C
ATOM     20  O5  ASG B   2      21.653  39.405  38.6840  0.00  0.00     0.000 O
ATOM     21   C  ASG B   2      20.536  37.838  40.0380  0.00  0.00     0.000 C
ATOM     22   O  ASG B   2      21.222  38.453  41.1000  0.00  0.00     0.000 O
ATOM     24  HD  ASG B   2      21.630  38.699  41.8240  0.00  0.00     0.000 HD
BRANCH 16 26
ATOM     24   N  ASG B   2      21.288  40.681  35.2430  0.00  0.00     0.000 N
ATOM     26  HD  ASG B   2      21.752  40.834  35.9580  0.00  0.00     0.000 HD
ATOM     26   C  ASG B   2      21.683  40.290  34.0170  0.00  0.00     0.000 C
ATOM     27   C  ASG B   2      21.343  41.210  32.8950  0.00  0.00     0.000 C
ATOM     28   O  ASG B   2      22.286  39.239  33.8390  0.00  0.00     0.000 OA
ENDBRANCH 16 26
BRANCH 18 29
ATOM     29   O  ASG B   2      20.653  37.056  37.1890  0.00  0.00     0.000 O
ATOM     30   O  ASG B   2      19.382  35.353  38.4250  0.00  0.00     0.000 OA
ATOM     31   O  ASG B   2      19.142  35.533  36.0160  0.00  0.00     0.000 OA
ATOM     32   O  ASG B   2      21.208  34.715  36.9680  0.00  0.00     0.000 OA
ATOM     33   S  ASG B   2      20.037  35.573  37.1490  0.00  0.00     0.000 S
ENDBRANCH 18 29
BRANCH 15 34
ATOM     34  O4  ASG B   3      22.924  41.032  37.7030  0.00  0.00     0.000 O
BRANCH 34 38
ATOM     35  C1  GCT B   3      26.896  40.754  38.4200  0.00  0.00     0.000 C
ATOM     36  C2  GCT B   3      26.487  40.304  37.0340  0.00  0.00     0.000 C
ATOM     37  C3  GCT B   3      25.103  40.830  36.6800  0.00  0.00     0.000 C
ATOM     38  C4  GCT B   3      24.088  40.306  37.7030  0.00  0.00     0.000 C
ATOM     39  C5  GCT B   3      24.703  40.175  39.1150  0.00  0.00     0.000 C
ATOM     40  O5  GCT B   3      25.755  41.121  39.1880  0.00  0.00     0.000 O
ATOM     41   O  GCT B   3      27.457  40.827  36.1380  0.00  0.00     0.000 O
ATOM     43  HD  GCT B   3      28.268  40.585  35.9530  0.00  0.00     0.000 HD
ATOM     43   O  GCT B   3      24.793  40.432  35.3280  0.00  0.00     0.000 O
ATOM     45  HD  GCT B   3      25.603  40.189  35.1420  0.00  0.00     0.000 HD
BRANCH 39 45
ATOM     45   C  GCT B   3      25.217  38.821  39.5530  0.00  0.00     0.000 C
ATOM     46   O  GCT B   3      25.618  38.659  40.7480  0.00  0.00     0.000 OA
ATOM     47   O  GCT B   3      25.214  37.903  38.7160  0.00  0.00     0.000 OA
ENDBRANCH 39 45
BRANCH 35 48
ATOM     48  O3  ASG B   4      27.960  40.080  38.8000  0.00  0.00     0.000 O
BRANCH 48 51
ATOM     49  C1  ASG B   4      30.318  42.012  40.8960  0.00  0.00     0.000 C
ATOM     50  C2  ASG B   4      29.542  41.537  39.6560  0.00  0.00     0.000 C
ATOM     51  C3  ASG B   4      28.409  40.590  40.0430  0.00  0.00     0.000 C
ATOM     52  C4  ASG B   4      28.906  39.483  40.9590  0.00  0.00     0.000 C
ATOM     53  C5  ASG B   4      29.607  40.131  42.1500  0.00  0.00     0.000 C
ATOM     54  O5  ASG B   4      30.729  40.900  41.6750  0.00  0.00     0.000 O
BRANCH 50 57
ATOM     55   N  ASG B   4      29.280  42.895  39.2400  0.00  0.00     0.000 N
ATOM     57  HD  ASG B   4      30.059  43.063  38.9000  0.00  0.00     0.000 HD
ATOM     57   O  ASG B   4      30.782  42.880  37.5780  0.00  0.00     0.000 OA
ATOM     58   C  ASG B   4      29.851  43.432  38.1570  0.00  0.00     0.000 C
ATOM     59   C  ASG B   4      29.317  44.767  37.7380  0.00  0.00     0.000 C
ENDBRANCH 50 57
BRANCH 52 60
ATOM     60   O  ASG B   4      29.795  38.679  40.0810  0.00  0.00     0.000 O
ATOM     61   O  ASG B   4      28.254  36.715  40.1040  0.00  0.00     0.000 OA
ATOM     62   O  ASG B   4      30.192  36.685  38.7210  0.00  0.00     0.000 OA
ATOM     63   O  ASG B   4      30.457  36.736  41.0970  0.00  0.00     0.000 OA
ATOM     64   S  ASG B   4      29.619  37.091  39.9480  0.00  0.00     0.000 S
ENDBRANCH 52 60
ATOM     65   O  ASG B   4      30.440  39.829  44.4070  0.00  0.00     0.000 O
ATOM     67  HD  ASG B   4      31.182  40.217  44.1880  0.00  0.00     0.000 HD
ATOM     67   O  ASG B   4      30.440  39.829  44.4070  0.00  0.00     0.000 O
ATOM     69  HD  ASG B   4      31.182  40.217  44.1880  0.00  0.00     0.000 HD
ENDBRANCH 48 51
ENDBRANCH 35 48
ENDBRANCH 34 38
ENDBRANCH 15 34
ENDBRANCH 14 17
ENDBRANCH 1 14
TORSDOF 12
ENDMDL
MODEL 49
REMARK VINA RESULT:      -7.2     29.365     35.639
ROOT
ATOM      1  C1  GAD B   1      19.005  30.835  64.5110  0.00  0.00     0.000 C
ATOM      2  C2  GAD B   1      19.697  31.239  65.8170  0.00  0.00     0.000 C
ATOM      3  C3  GAD B   1      19.972  32.747  65.8230  0.00  0.00     0.000 C
ATOM      4  C4  GAD B   1      20.254  33.347  64.4420  0.00  0.00     0.000 C
ATOM      5  C5  GAD B   1      20.124  32.674  63.2820  0.00  0.00     0.000 C
ATOM      6  O5  GAD B   1      19.740  31.288  63.3640  0.00  0.00     0.000 O
ATOM      7   O  GAD B   1      18.927  30.793  66.9940  0.00  0.00     0.000 O
ATOM      9  HD  GAD B   1      18.544  30.311  66.3850  0.00  0.00     0.000 HD
ATOM      9   O  GAD B   1      21.117  33.075  66.6430  0.00  0.00     0.000 O
ATOM     11  HD  GAD B   1      20.734  32.593  66.0340  0.00  0.00     0.000 HD
ENDROOT
BRANCH 5 11
ATOM     11   C  GAD B   1      20.290  33.272  61.9370  0.00  0.00     0.000 C
ATOM     12   O  GAD B   1      19.697  34.375  61.7200  0.00  0.00     0.000 OA
ATOM     13   O  GAD B   1      20.942  32.642  61.0250  0.00  0.00     0.000 OA
ENDBRANCH 5 11
BRANCH 1 14
ATOM     14  O3  ASG B   2      19.002  29.583  64.0190  0.00  0.00     0.000 O
BRANCH 14 17
ATOM     15  C1  ASG B   2      18.762  25.992  65.1700  0.00  0.00     0.000 C
ATOM     16  C2  ASG B   2      19.436  27.243  64.5900  0.00  0.00     0.000 C
ATOM     17  C3  ASG B   2      18.419  28.388  64.5510  0.00  0.00     0.000 C
ATOM     18  C4  ASG B   2      17.220  27.988  63.7120  0.00  0.00     0.000 C
ATOM     19  C5  ASG B   2      16.655  26.675  64.2450  0.00  0.00     0.000 C
ATOM     20  O5  ASG B   2      17.693  25.677  64.2980  0.00  0.00     0.000 O
ATOM     21   C  ASG B   2      15.571  26.117  63.3780  0.00  0.00     0.000 C
ATOM     22   O  ASG B   2      15.253  24.817  63.8100  0.00  0.00     0.000 O
ATOM     24  HD  ASG B   2      14.954  24.019  63.9640  0.00  0.00     0.000 HD
BRANCH 16 26
ATOM     24   N  ASG B   2      20.626  27.699  65.2700  0.00  0.00     0.000 N
ATOM     26  HD  ASG B   2      20.335  26.887  65.3410  0.00  0.00     0.000 HD
ATOM     26   C  ASG B   2      21.713  28.183  64.6420  0.00  0.00     0.000 C
ATOM     27   C  ASG B   2      22.691  28.915  65.4950  0.00  0.00     0.000 C
ATOM     28   O  ASG B   2      21.885  28.028  63.4390  0.00  0.00     0.000 OA
ENDBRANCH 16 26
BRANCH 18 29
ATOM     29   O  ASG B   2      17.697  27.883  62.3270  0.00  0.00     0.000 O
ATOM     30   O  ASG B   2      15.571  28.606  61.3270  0.00  0.00     0.000 OA
ATOM     31   O  ASG B   2      17.471  30.116  61.3560  0.00  0.00     0.000 OA
ATOM     32   O  ASG B   2      17.501  28.161  59.9340  0.00  0.00     0.000 OA
ATOM     33   S  ASG B   2      17.005  28.762  61.1730  0.00  0.00     0.000 S
ENDBRANCH 18 29
BRANCH 15 34
ATOM     34  O4  ASG B   3      19.611  24.884  65.2540  0.00  0.00     0.000 O
BRANCH 34 38
ATOM     35  C1  GCT B   3      18.715  24.153  69.1300  0.00  0.00     0.000 C
ATOM     36  C2  GCT B   3      20.197  24.280  68.8540  0.00  0.00     0.000 C
ATOM     37  C3  GCT B   3      20.443  24.970  67.5200  0.00  0.00     0.000 C
ATOM     38  C4  GCT B   3      19.787  24.152  66.4010  0.00  0.00     0.000 C
ATOM     39  C5  GCT B   3      18.483  23.468  66.8710  0.00  0.00     0.000 C
ATOM     40  O5  GCT B   3      17.966  24.262  67.9250  0.00  0.00     0.000 O
ATOM     41   O  GCT B   3      20.741  25.051  69.9160  0.00  0.00     0.000 O
ATOM     43  HD  GCT B   3      20.934  24.855  70.7370  0.00  0.00     0.000 HD
ATOM     43   O  GCT B   3      21.866  25.127  67.3390  0.00  0.00     0.000 O
ATOM     45  HD  GCT B   3      22.059  24.931  68.1600  0.00  0.00     0.000 HD
BRANCH 39 45
ATOM     45   C  GCT B   3      18.550  22.024  67.3200  0.00  0.00     0.000 C
ATOM     46   O  GCT B   3      19.669  21.422  67.3320  0.00  0.00     0.000 OA
ATOM     47   O  GCT B   3      17.492  21.481  67.6770  0.00  0.00     0.000 OA
ENDBRANCH 39 45
BRANCH 35 48
ATOM     48  O3  ASG B   4      18.529  23.332  70.1410  0.00  0.00     0.000 O
BRANCH 48 51
ATOM     49  C1  ASG B   4      16.350  25.269  72.4180  0.00  0.00     0.000 C
ATOM     50  C2  ASG B   4      17.532  24.920  71.5000  0.00  0.00     0.000 C
ATOM     51  C3  ASG B   4      17.279  23.618  70.7450  0.00  0.00     0.000 C
ATOM     52  C4  ASG B   4      16.844  22.509  71.6890  0.00  0.00     0.000 C
ATOM     53  C5  ASG B   4      15.641  23.009  72.4850  0.00  0.00     0.000 C
ATOM     54  O5  ASG B   4      16.030  24.166  73.2500  0.00  0.00     0.000 O
BRANCH 50 57
ATOM     55   N  ASG B   4      17.322  26.278  71.0540  0.00  0.00     0.000 N
ATOM     57  HD  ASG B   4      17.810  26.672  71.6520  0.00  0.00     0.000 HD
ATOM     57   O  ASG B   4      19.265  27.048  71.8590  0.00  0.00     0.000 OA
ATOM     58   C  ASG B   4      18.259  27.223  71.1780  0.00  0.00     0.000 C
ATOM     59   C  ASG B   4      17.973  28.515  70.4770  0.00  0.00     0.000 C
ENDBRANCH 50 57
BRANCH 52 60
ATOM     60   O  ASG B   4      18.059  22.250  72.5030  0.00  0.00     0.000 O
ATOM     61   O  ASG B   4      18.055  19.812  71.9650  0.00  0.00     0.000 OA
ATOM     62   O  ASG B   4      19.852  20.747  73.2180  0.00  0.00     0.000 OA
ATOM     63   O  ASG B   4      17.656  20.726  74.1650  0.00  0.00     0.000 OA
ATOM     64   S  ASG B   4      18.465  20.763  72.9440  0.00  0.00     0.000 S
ENDBRANCH 52 60
ATOM     65   O  ASG B   4      13.754  22.400  73.8810  0.00  0.00     0.000 O
ATOM     67  HD  ASG B   4      13.959  23.031  74.4380  0.00  0.00     0.000 HD
ATOM     67   O  ASG B   4      13.754  22.400  73.8810  0.00  0.00     0.000 O
ATOM     69  HD  ASG B   4      13.959  23.031  74.4380  0.00  0.00     0.000 HD
ENDBRANCH 48 51
ENDBRANCH 35 48
ENDBRANCH 34 38
ENDBRANCH 15 34
ENDBRANCH 14 17
ENDBRANCH 1 14
TORSDOF 12
ENDMDL
MODEL 50
REMARK VINA RESULT:      -7.2     18.586     23.328
ROOT
ATOM      1  C1  GAD B   1      18.164  51.217  57.6200  0.00  0.00     0.000 C
ATOM      2  C2  GAD B   1      18.552  50.010  58.4790  0.00  0.00     0.000 C
ATOM      3  C3  GAD B   1      17.853  50.087  59.8420  0.00  0.00     0.000 C
ATOM      4  C4  GAD B   1      17.620  51.510  60.3570  0.00  0.00     0.000 C
ATOM      5  C5  GAD B   1      17.850  52.625  59.6350  0.00  0.00     0.000 C
ATOM      6  O5  GAD B   1      18.394  52.453  58.3130  0.00  0.00     0.000 O
ATOM      7   O  GAD B   1      18.291  48.741  57.7730  0.00  0.00     0.000 O
ATOM      9  HD  GAD B   1      18.241  49.287  57.1030  0.00  0.00     0.000 HD
ATOM      9   O  GAD B   1      18.613  49.410  60.8670  0.00  0.00     0.000 O
ATOM     11  HD  GAD B   1      18.563  49.956  60.1970  0.00  0.00     0.000 HD
ENDROOT
BRANCH 5 11
ATOM     11   C  GAD B   1      17.528  54.000  60.0840  0.00  0.00     0.000 C
ATOM     12   O  GAD B   1      16.322  54.378  59.9610  0.00  0.00     0.000 OA
ATOM     13   O  GAD B   1      18.464  54.780  60.4970  0.00  0.00     0.000 OA
ENDBRANCH 5 11
BRANCH 1 14
ATOM     14  O3  ASG B   2      18.890  51.663  56.5780  0.00  0.00     0.000 O
BRANCH 14 17
ATOM     15  C1  ASG B   2      19.707  50.886  52.9720  0.00  0.00     0.000 C
ATOM     16  C2  ASG B   2      19.983  51.069  54.4710  0.00  0.00     0.000 C
ATOM     17  C3  ASG B   2      18.686  51.483  55.1720  0.00  0.00     0.000 C
ATOM     18  C4  ASG B   2      18.156  52.768  54.5650  0.00  0.00     0.000 C
ATOM     19  C5  ASG B   2      18.014  52.585  53.0570  0.00  0.00     0.000 C
ATOM     20  O5  ASG B   2      19.265  52.143  52.4940  0.00  0.00     0.000 O
ATOM     21   C  ASG B   2      17.655  53.854  52.3510  0.00  0.00     0.000 C
ATOM     22   O  ASG B   2      17.752  53.657  50.9620  0.00  0.00     0.000 O
ATOM     24  HD  ASG B   2      17.766  53.680  50.0970  0.00  0.00     0.000 HD
BRANCH 16 26
ATOM     24   N  ASG B   2      21.078  51.088  55.4130  0.00  0.00     0.000 N
ATOM     26  HD  ASG B   2      20.375  51.584  55.5110  0.00  0.00     0.000 HD
ATOM     26   C  ASG B   2      21.489  50.013  56.1110  0.00  0.00     0.000 C
ATOM     27   C  ASG B   2      22.825  50.127  56.7620  0.00  0.00     0.000 C
ATOM     28   O  ASG B   2      20.803  49.003  56.2020  0.00  0.00     0.000 OA
ENDBRANCH 16 26
BRANCH 18 29
ATOM     29   O  ASG B   2      19.112  53.824  54.9240  0.00  0.00     0.000 O
ATOM     30   O  ASG B   2      17.486  55.654  54.6980  0.00  0.00     0.000 OA
ATOM     31   O  ASG B   2      18.198  54.930  56.9040  0.00  0.00     0.000 OA
ATOM     32   O  ASG B   2      19.744  56.095  55.4550  0.00  0.00     0.000 OA
ATOM     33   S  ASG B   2      18.582  55.210  55.5400  0.00  0.00     0.000 S
ENDBRANCH 18 29
BRANCH 15 34
ATOM     34  O4  ASG B   3      20.833  50.500  52.2370  0.00  0.00     0.000 O
BRANCH 34 38
ATOM     35  C1  GCT B   3      22.700  50.673  48.6520  0.00  0.00     0.000 C
ATOM     36  C2  GCT B   3      23.308  51.572  49.7070  0.00  0.00     0.000 C
ATOM     37  C3  GCT B   3      22.863  51.150  51.1000  0.00  0.00     0.000 C
ATOM     38  C4  GCT B   3      21.334  51.227  51.1870  0.00  0.00     0.000 C
ATOM     39  C5  GCT B   3      20.659  50.869  49.8430  0.00  0.00     0.000 C
ATOM     40  O5  GCT B   3      21.550  50.006  49.1600  0.00  0.00     0.000 O
ATOM     41   O  GCT B   3      24.717  51.447  49.5800  0.00  0.00     0.000 O
ATOM     43  HD  GCT B   3      25.280  51.775  49.0090  0.00  0.00     0.000 HD
ATOM     43   O  GCT B   3      23.524  51.992  52.0680  0.00  0.00     0.000 O
ATOM     45  HD  GCT B   3      24.087  52.320  51.4980  0.00  0.00     0.000 HD
BRANCH 39 45
ATOM     45   C  GCT B   3      20.248  51.996  48.9220  0.00  0.00     0.000 C
ATOM     46   O  GCT B   3      19.742  51.726  47.7870  0.00  0.00     0.000 OA
ATOM     47   O  GCT B   3      20.413  53.160  49.3230  0.00  0.00     0.000 OA
ENDBRANCH 39 45
BRANCH 35 48
ATOM     48  O3  ASG B   4      22.881  51.211  47.4650  0.00  0.00     0.000 O
BRANCH 48 51
ATOM     49  C1  ASG B   4      24.386  48.974  44.9310  0.00  0.00     0.000 C
ATOM     50  C2  ASG B   4      24.265  49.893  46.1580  0.00  0.00     0.000 C
ATOM     51  C3  ASG B   4      22.804  50.194  46.4810  0.00  0.00     0.000 C
ATOM     52  C4  ASG B   4      22.053  50.663  45.2460  0.00  0.00     0.000 C
ATOM     53  C5  ASG B   4      22.244  49.618  44.1500  0.00  0.00     0.000 C
ATOM     54  O5  ASG B   4      23.647  49.506  43.8430  0.00  0.00     0.000 O
BRANCH 50 57
ATOM     55   N  ASG B   4      25.066  48.962  46.9200  0.00  0.00     0.000 N
ATOM     57  HD  ASG B   4      25.842  49.209  46.6240  0.00  0.00     0.000 HD
ATOM     57   O  ASG B   4      26.895  50.254  46.9420  0.00  0.00     0.000 OA
ATOM     58   C  ASG B   4      26.297  49.261  47.3460  0.00  0.00     0.000 C
ATOM     59   C  ASG B   4      26.908  48.282  48.3000  0.00  0.00     0.000 C
ENDBRANCH 50 57
BRANCH 52 60
ATOM     60   O  ASG B   4      22.661  51.986  44.9510  0.00  0.00     0.000 O
ATOM     61   O  ASG B   4      20.446  53.137  44.9020  0.00  0.00     0.000 OA
ATOM     62   O  ASG B   4      22.448  54.411  44.7070  0.00  0.00     0.000 OA
ATOM     63   O  ASG B   4      21.883  52.856  42.9800  0.00  0.00     0.000 OA
ATOM     64   S  ASG B   4      21.778  53.205  44.4000  0.00  0.00     0.000 S
ENDBRANCH 52 60
ATOM     65   O  ASG B   4      21.449  48.756  42.0270  0.00  0.00     0.000 O
ATOM     67  HD  ASG B   4      22.263  48.724  41.7320  0.00  0.00     0.000 HD
ATOM     67   O  ASG B   4      21.449  48.756  42.0270  0.00  0.00     0.000 O
ATOM     69  HD  ASG B   4      22.263  48.724  41.7320  0.00  0.00     0.000 HD
ENDBRANCH 48 51
ENDBRANCH 35 48
ENDBRANCH 34 38
ENDBRANCH 15 34
ENDBRANCH 14 17
ENDBRANCH 1 14
TORSDOF 12
ENDMDL
MODEL 51
REMARK VINA RESULT:      -7.2     19.208     23.421
ROOT
ATOM      1  C1  GAD B   1      20.807  52.055  46.5440  0.00  0.00     0.000 C
ATOM      2  C2  GAD B   1      20.849  50.547  46.2840  0.00  0.00     0.000 C
ATOM      3  C3  GAD B   1      20.611  50.262  44.7970  0.00  0.00     0.000 C
ATOM      4  C4  GAD B   1      19.684  51.261  44.0990  0.00  0.00     0.000 C
ATOM      5  C5  GAD B   1      19.225  52.394  44.6670  0.00  0.00     0.000 C
ATOM      6  O5  GAD B   1      19.601  52.645  46.0340  0.00  0.00     0.000 O
ATOM      7   O  GAD B   1      22.101  49.949  46.7880  0.00  0.00     0.000 O
ATOM      9  HD  GAD B   1      22.134  50.710  47.1990  0.00  0.00     0.000 HD
ATOM      9   O  GAD B   1      20.020  48.958  44.5930  0.00  0.00     0.000 O
ATOM     11  HD  GAD B   1      20.053  49.720  45.0050  0.00  0.00     0.000 HD
ENDROOT
BRANCH 5 11
ATOM     11   C  GAD B   1      18.415  53.419  43.9670  0.00  0.00     0.000 C
ATOM     12   O  GAD B   1      17.495  53.000  43.1990  0.00  0.00     0.000 OA
ATOM     13   O  GAD B   1      18.708  54.666  44.0870  0.00  0.00     0.000 OA
ENDBRANCH 5 11
BRANCH 1 14
ATOM     14  O3  ASG B   2      20.567  52.604  47.7500  0.00  0.00     0.000 O
BRANCH 14 17
ATOM     15  C1  ASG B   2      18.210  55.089  49.3460  0.00  0.00     0.000 C
ATOM     16  C2  ASG B   2      19.539  54.573  48.7770  0.00  0.00     0.000 C
ATOM     17  C3  ASG B   2      19.352  53.131  48.2940  0.00  0.00     0.000 C
ATOM     18  C4  ASG B   2      18.886  52.257  49.4430  0.00  0.00     0.000 C
ATOM     19  C5  ASG B   2      17.634  52.870  50.0610  0.00  0.00     0.000 C
ATOM     20  O5  ASG B   2      17.887  54.240  50.4320  0.00  0.00     0.000 O
ATOM     21   C  ASG B   2      17.197  52.166  51.3050  0.00  0.00     0.000 C
ATOM     22   O  ASG B   2      16.178  52.909  51.9280  0.00  0.00     0.000 O
ATOM     24  HD  ASG B   2      15.551  53.256  52.4130  0.00  0.00     0.000 HD
BRANCH 16 26
ATOM     24   N  ASG B   2      20.923  54.970  48.6570  0.00  0.00     0.000 N
ATOM     26  HD  ASG B   2      20.687  54.145  48.7690  0.00  0.00     0.000 HD
ATOM     26   C  ASG B   2      21.437  55.589  47.5780  0.00  0.00     0.000 C
ATOM     27   C  ASG B   2      22.773  56.224  47.7610  0.00  0.00     0.000 C
ATOM     28   O  ASG B   2      20.838  55.626  46.5100  0.00  0.00     0.000 OA
ENDBRANCH 16 26
BRANCH 18 29
ATOM     29   O  ASG B   2      20.008  52.177  50.3880  0.00  0.00     0.000 O
ATOM     30   O  ASG B   2      19.466  49.905  51.1540  0.00  0.00     0.000 OA
ATOM     31   O  ASG B   2      21.362  50.267  49.6830  0.00  0.00     0.000 OA
ATOM     32   O  ASG B   2      21.441  51.045  51.9700  0.00  0.00     0.000 OA
ATOM     33   S  ASG B   2      20.599  50.744  50.8120  0.00  0.00     0.000 S
ENDBRANCH 18 29
BRANCH 15 34
ATOM     34  O4  ASG B   3      18.272  56.406  49.8120  0.00  0.00     0.000 O
BRANCH 34 38
ATOM     35  C1  GCT B   3      14.910  57.785  48.0340  0.00  0.00     0.000 C
ATOM     36  C2  GCT B   3      16.185  58.149  47.3060  0.00  0.00     0.000 C
ATOM     37  C3  GCT B   3      17.338  57.262  47.7550  0.00  0.00     0.000 C
ATOM     38  C4  GCT B   3      17.548  57.435  49.2640  0.00  0.00     0.000 C
ATOM     39  C5  GCT B   3      16.218  57.685  50.0100  0.00  0.00     0.000 C
ATOM     40  O5  GCT B   3      15.199  57.078  49.2350  0.00  0.00     0.000 O
ATOM     41   O  GCT B   3      15.928  57.959  45.9220  0.00  0.00     0.000 O
ATOM     43  HD  GCT B   3      15.490  58.431  45.3420  0.00  0.00     0.000 HD
ATOM     43   O  GCT B   3      18.508  57.603  46.9830  0.00  0.00     0.000 O
ATOM     45  HD  GCT B   3      18.070  58.075  46.4030  0.00  0.00     0.000 HD
BRANCH 39 45
ATOM     45   C  GCT B   3      15.825  59.113  50.3220  0.00  0.00     0.000 C
ATOM     46   O  GCT B   3      14.775  59.340  51.0010  0.00  0.00     0.000 OA
ATOM     47   O  GCT B   3      16.565  60.020  49.9060  0.00  0.00     0.000 OA
ENDBRANCH 39 45
BRANCH 35 48
ATOM     48  O3  ASG B   4      14.009  58.721  47.8280  0.00  0.00     0.000 O
BRANCH 48 51
ATOM     49  C1  ASG B   4      10.505  57.996  46.8850  0.00  0.00     0.000 C
ATOM     50  C2  ASG B   4      12.005  58.309  46.7450  0.00  0.00     0.000 C
ATOM     51  C3  ASG B   4      12.722  58.188  48.0870  0.00  0.00     0.000 C
ATOM     52  C4  ASG B   4      11.997  58.969  49.1710  0.00  0.00     0.000 C
ATOM     53  C5  ASG B   4      10.544  58.503  49.2000  0.00  0.00     0.000 C
ATOM     54  O5  ASG B   4       9.935  58.777  47.9230  0.00  0.00     0.000 O
BRANCH 50 57
ATOM     55   N  ASG B   4      12.512  57.380  45.7610  0.00  0.00     0.000 N
ATOM     57  HD  ASG B   4      12.097  57.703  45.0730  0.00  0.00     0.000 HD
ATOM     57   O  ASG B   4      12.301  58.792  44.0360  0.00  0.00     0.000 OA
ATOM     58   C  ASG B   4      12.721  57.731  44.4890  0.00  0.00     0.000 C
ATOM     59   C  ASG B   4      13.448  56.726  43.6500  0.00  0.00     0.000 C
ENDBRANCH 50 57
BRANCH 52 60
ATOM     60   O  ASG B   4      12.184  60.385  48.7620  0.00  0.00     0.000 O
ATOM     61   O  ASG B   4      12.083  61.211  51.1160  0.00  0.00     0.000 OA
ATOM     62   O  ASG B   4      12.586  62.726  49.3490  0.00  0.00     0.000 OA
ATOM     63   O  ASG B   4      10.428  61.698  49.4250  0.00  0.00     0.000 OA
ATOM     64   S  ASG B   4      11.850  61.592  49.7630  0.00  0.00     0.000 S
ENDBRANCH 52 60
ATOM     65   O  ASG B   4       8.473  58.436  50.4610  0.00  0.00     0.000 O
ATOM     67  HD  ASG B   4       8.032  58.671  49.7540  0.00  0.00     0.000 HD
ATOM     67   O  ASG B   4       8.473  58.436  50.4610  0.00  0.00     0.000 O
ATOM     69  HD  ASG B   4       8.032  58.671  49.7540  0.00  0.00     0.000 HD
ENDBRANCH 48 51
ENDBRANCH 35 48
ENDBRANCH 34 38
ENDBRANCH 15 34
ENDBRANCH 14 17
ENDBRANCH 1 14
TORSDOF 12
ENDMDL
MODEL 52
REMARK VINA RESULT:      -7.1     44.294     47.146
ROOT
ATOM      1  C1  GAD B   1       6.979  46.527  77.8920  0.00  0.00     0.000 C
ATOM      2  C2  GAD B   1       6.122  45.474  78.6020  0.00  0.00     0.000 C
ATOM      3  C3  GAD B   1       4.746  45.376  77.9310  0.00  0.00     0.000 C
ATOM      4  C4  GAD B   1       4.233  46.692  77.3380  0.00  0.00     0.000 C
ATOM      5  C5  GAD B   1       4.964  47.821  77.2510  0.00  0.00     0.000 C
ATOM      6  O5  GAD B   1       6.297  47.786  77.7980  0.00  0.00     0.000 O
ATOM      7   O  GAD B   1       6.816  44.175  78.6740  0.00  0.00     0.000 O
ATOM      9  HD  GAD B   1       7.488  44.681  78.4690  0.00  0.00     0.000 HD
ATOM      9   O  GAD B   1       3.732  44.935  78.8620  0.00  0.00     0.000 O
ATOM     11  HD  GAD B   1       4.404  45.442  78.6570  0.00  0.00     0.000 HD
ENDROOT
BRANCH 5 11
ATOM     11   C  GAD B   1       4.517  49.066  76.5840  0.00  0.00     0.000 C
ATOM     12   O  GAD B   1       3.798  48.935  75.5450  0.00  0.00     0.000 OA
ATOM     13   O  GAD B   1       4.921  50.209  77.0120  0.00  0.00     0.000 OA
ENDBRANCH 5 11
BRANCH 1 14
ATOM     14  O3  ASG B   2       8.037  47.139  78.4550  0.00  0.00     0.000 O
BRANCH 14 17
ATOM     15  C1  ASG B   2      11.439  46.305  79.8730  0.00  0.00     0.000 C
ATOM     16  C2  ASG B   2       9.963  46.725  79.9070  0.00  0.00     0.000 C
ATOM     17  C3  ASG B   2       9.416  46.754  78.4770  0.00  0.00     0.000 C
ATOM     18  C4  ASG B   2      10.227  47.718  77.6320  0.00  0.00     0.000 C
ATOM     19  C5  ASG B   2      11.703  47.342  77.7240  0.00  0.00     0.000 C
ATOM     20  O5  ASG B   2      12.112  47.285  79.1050  0.00  0.00     0.000 O
ATOM     21   C  ASG B   2      12.597  48.337  77.0560  0.00  0.00     0.000 C
ATOM     22   O  ASG B   2      13.937  48.039  77.3640  0.00  0.00     0.000 O
ATOM     24  HD  ASG B   2      14.794  47.974  77.4660  0.00  0.00     0.000 HD
BRANCH 16 26
ATOM     24   N  ASG B   2       9.057  45.912  80.6860  0.00  0.00     0.000 N
ATOM     26  HD  ASG B   2       9.916  45.884  80.7970  0.00  0.00     0.000 HD
ATOM     26   C  ASG B   2       8.094  46.410  81.4830  0.00  0.00     0.000 C
ATOM     27   C  ASG B   2       7.051  45.446  81.9320  0.00  0.00     0.000 C
ATOM     28   O  ASG B   2       8.079  47.589  81.8160  0.00  0.00     0.000 OA
ENDBRANCH 16 26
BRANCH 18 29
ATOM     29   O  ASG B   2       9.949  49.064  78.1510  0.00  0.00     0.000 O
ATOM     30   O  ASG B   2      10.431  50.204  76.0270  0.00  0.00     0.000 OA
ATOM     31   O  ASG B   2       8.135  49.964  76.7800  0.00  0.00     0.000 OA
ATOM     32   O  ASG B   2       9.642  51.452  77.9460  0.00  0.00     0.000 OA
ATOM     33   S  ASG B   2       9.506  50.236  77.1450  0.00  0.00     0.000 S
ENDBRANCH 18 29
BRANCH 15 34
ATOM     34  O4  ASG B   3      12.034  46.242  81.1370  0.00  0.00     0.000 O
BRANCH 34 38
ATOM     35  C1  GCT B   3      10.986  42.523  82.3370  0.00  0.00     0.000 C
ATOM     36  C2  GCT B   3      11.555  43.389  83.4400  0.00  0.00     0.000 C
ATOM     37  C3  GCT B   3      11.516  44.859  83.0490  0.00  0.00     0.000 C
ATOM     38  C4  GCT B   3      12.337  45.063  81.7700  0.00  0.00     0.000 C
ATOM     39  C5  GCT B   3      12.249  43.844  80.8240  0.00  0.00     0.000 C
ATOM     40  O5  GCT B   3      11.008  43.213  81.0920  0.00  0.00     0.000 O
ATOM     41   O  GCT B   3      10.748  43.162  84.5870  0.00  0.00     0.000 O
ATOM     43  HD  GCT B   3      10.712  42.506  85.1510  0.00  0.00     0.000 HD
ATOM     43   O  GCT B   3      12.004  45.643  84.1590  0.00  0.00     0.000 O
ATOM     45  HD  GCT B   3      11.968  44.987  84.7240  0.00  0.00     0.000 HD
BRANCH 39 45
ATOM     45   C  GCT B   3      13.355  42.813  80.8740  0.00  0.00     0.000 C
ATOM     46   O  GCT B   3      13.306  41.802  80.1040  0.00  0.00     0.000 OA
ATOM     47   O  GCT B   3      14.290  43.005  81.6690  0.00  0.00     0.000 OA
ENDBRANCH 39 45
BRANCH 35 48
ATOM     48  O3  ASG B   4      11.270  41.262  82.5820  0.00  0.00     0.000 O
BRANCH 48 51
ATOM     49  C1  ASG B   4       9.065  38.424  83.4600  0.00  0.00     0.000 C
ATOM     50  C2  ASG B   4      10.141  39.514  83.5970  0.00  0.00     0.000 C
ATOM     51  C3  ASG B   4      10.096  40.485  82.4200  0.00  0.00     0.000 C
ATOM     52  C4  ASG B   4      10.092  39.743  81.0940  0.00  0.00     0.000 C
ATOM     53  C5  ASG B   4       8.942  38.740  81.1140  0.00  0.00     0.000 C
ATOM     54  O5  ASG B   4       9.153  37.802  82.1880  0.00  0.00     0.000 O
BRANCH 50 57
ATOM     55   N  ASG B   4       9.753  40.024  84.8920  0.00  0.00     0.000 N
ATOM     57  HD  ASG B   4      10.045  39.361  85.3680  0.00  0.00     0.000 HD
ATOM     57   O  ASG B   4      11.343  38.918  86.0180  0.00  0.00     0.000 OA
ATOM     58   C  ASG B   4      10.455  39.766  85.9990  0.00  0.00     0.000 C
ATOM     59   C  ASG B   4      10.051  40.538  87.2170  0.00  0.00     0.000 C
ENDBRANCH 50 57
BRANCH 52 60
ATOM     60   O  ASG B   4      11.445  39.131  81.0340  0.00  0.00     0.000 O
ATOM     61   O  ASG B   4      11.548  39.291  78.5450  0.00  0.00     0.000 OA
ATOM     62   O  ASG B   4      13.449  38.535  79.7640  0.00  0.00     0.000 OA
ATOM     63   O  ASG B   4      11.454  37.215  79.7790  0.00  0.00     0.000 OA
ATOM     64   S  ASG B   4      12.039  38.555  79.6610  0.00  0.00     0.000 S
ENDBRANCH 52 60
ATOM     65   O  ASG B   4       7.497  37.304  79.8000  0.00  0.00     0.000 O
ATOM     67  HD  ASG B   4       7.627  36.656  80.3590  0.00  0.00     0.000 HD
ATOM     67   O  ASG B   4       7.497  37.304  79.8000  0.00  0.00     0.000 O
ATOM     69  HD  ASG B   4       7.627  36.656  80.3590  0.00  0.00     0.000 HD
ENDBRANCH 48 51
ENDBRANCH 35 48
ENDBRANCH 34 38
ENDBRANCH 15 34
ENDBRANCH 14 17
ENDBRANCH 1 14
TORSDOF 12
ENDMDL
MODEL 53
REMARK VINA RESULT:      -7.1     30.237     36.361
ROOT
ATOM      1  C1  GAD B   1      17.603  26.955  62.8740  0.00  0.00     0.000 C
ATOM      2  C2  GAD B   1      17.708  28.024  61.7810  0.00  0.00     0.000 C
ATOM      3  C3  GAD B   1      16.592  29.062  61.9510  0.00  0.00     0.000 C
ATOM      4  C4  GAD B   1      15.289  28.505  62.5320  0.00  0.00     0.000 C
ATOM      5  C5  GAD B   1      15.147  27.254  63.0120  0.00  0.00     0.000 C
ATOM      6  O5  GAD B   1      16.288  26.380  62.9250  0.00  0.00     0.000 O
ATOM      7   O  GAD B   1      19.053  28.629  61.7480  0.00  0.00     0.000 O
ATOM      9  HD  GAD B   1      19.226  27.931  62.2300  0.00  0.00     0.000 HD
ATOM      9   O  GAD B   1      16.239  29.673  60.6900  0.00  0.00     0.000 O
ATOM     11  HD  GAD B   1      16.412  28.975  61.1720  0.00  0.00     0.000 HD
ENDROOT
BRANCH 5 11
ATOM     11   C  GAD B   1      13.924  26.738  63.6730  0.00  0.00     0.000 C
ATOM     12   O  GAD B   1      13.745  25.481  63.6510  0.00  0.00     0.000 OA
ATOM     13   O  GAD B   1      13.062  27.556  64.1640  0.00  0.00     0.000 OA
ENDBRANCH 5 11
BRANCH 1 14
ATOM     14  O3  ASG B   2      18.140  25.725  62.7760  0.00  0.00     0.000 O
BRANCH 14 17
ATOM     15  C1  ASG B   2      17.959  22.505  64.7450  0.00  0.00     0.000 C
ATOM     16  C2  ASG B   2      18.547  23.849  64.2940  0.00  0.00     0.000 C
ATOM     17  C3  ASG B   2      17.635  24.463  63.2280  0.00  0.00     0.000 C
ATOM     18  C4  ASG B   2      17.502  23.516  62.0510  0.00  0.00     0.000 C
ATOM     19  C5  ASG B   2      17.034  22.155  62.5570  0.00  0.00     0.000 C
ATOM     20  O5  ASG B   2      17.919  21.683  63.5930  0.00  0.00     0.000 O
ATOM     21   C  ASG B   2      17.034  21.108  61.4890  0.00  0.00     0.000 C
ATOM     22   O  ASG B   2      16.802  19.849  62.0710  0.00  0.00     0.000 O
ATOM     24  HD  ASG B   2      16.667  19.021  62.2880  0.00  0.00     0.000 HD
BRANCH 16 26
ATOM     24   N  ASG B   2      18.797  24.794  65.3580  0.00  0.00     0.000 N
ATOM     26  HD  ASG B   2      18.766  23.940  65.4960  0.00  0.00     0.000 HD
ATOM     26   C  ASG B   2      19.843  25.641  65.3820  0.00  0.00     0.000 C
ATOM     27   C  ASG B   2      19.757  26.761  66.3610  0.00  0.00     0.000 C
ATOM     28   O  ASG B   2      20.806  25.496  64.6390  0.00  0.00     0.000 OA
ENDBRANCH 16 26
BRANCH 18 29
ATOM     29   O  ASG B   2      18.822  23.462  61.4080  0.00  0.00     0.000 O
ATOM     30   O  ASG B   2      17.929  23.124  59.1430  0.00  0.00     0.000 OA
ATOM     31   O  ASG B   2      18.857  25.277  59.7700  0.00  0.00     0.000 OA
ATOM     32   O  ASG B   2      20.311  23.363  59.5080  0.00  0.00     0.000 OA
ATOM     33   S  ASG B   2      18.971  23.840  59.8530  0.00  0.00     0.000 S
ENDBRANCH 18 29
BRANCH 15 34
ATOM     34  O4  ASG B   3      18.719  21.861  65.7270  0.00  0.00     0.000 O
BRANCH 34 38
ATOM     35  C1  GCT B   3      18.047  22.654  69.6370  0.00  0.00     0.000 C
ATOM     36  C2  GCT B   3      18.709  21.316  69.3840  0.00  0.00     0.000 C
ATOM     37  C3  GCT B   3      19.319  21.268  67.9910  0.00  0.00     0.000 C
ATOM     38  C4  GCT B   3      18.216  21.493  66.9500  0.00  0.00     0.000 C
ATOM     39  C5  GCT B   3      17.128  22.465  67.4580  0.00  0.00     0.000 C
ATOM     40  O5  GCT B   3      17.753  23.310  68.4090  0.00  0.00     0.000 O
ATOM     41   O  GCT B   3      19.721  21.175  70.3710  0.00  0.00     0.000 O
ATOM     43  HD  GCT B   3      19.688  20.973  71.2120  0.00  0.00     0.000 HD
ATOM     43   O  GCT B   3      19.994  20.003  67.8280  0.00  0.00     0.000 O
ATOM     45  HD  GCT B   3      19.961  19.802  68.6700  0.00  0.00     0.000 HD
BRANCH 39 45
ATOM     45   C  GCT B   3      15.867  21.884  68.0590  0.00  0.00     0.000 C
ATOM     46   O  GCT B   3      15.658  20.631  67.9890  0.00  0.00     0.000 OA
ATOM     47   O  GCT B   3      15.079  22.664  68.6170  0.00  0.00     0.000 OA
ENDBRANCH 39 45
BRANCH 35 48
ATOM     48  O3  ASG B   4      17.310  22.576  70.7240  0.00  0.00     0.000 O
BRANCH 48 51
ATOM     49  C1  ASG B   4      18.466  25.299  72.9480  0.00  0.00     0.000 C
ATOM     50  C2  ASG B   4      18.504  24.044  72.0590  0.00  0.00     0.000 C
ATOM     51  C3  ASG B   4      17.194  23.868  71.2950  0.00  0.00     0.000 C
ATOM     52  C4  ASG B   4      15.997  23.965  72.2260  0.00  0.00     0.000 C
ATOM     53  C5  ASG B   4      16.096  25.282  72.9910  0.00  0.00     0.000 C
ATOM     54  O5  ASG B   4      17.309  25.285  73.7690  0.00  0.00     0.000 O
BRANCH 50 57
ATOM     55   N  ASG B   4      19.016  23.478  73.2870  0.00  0.00     0.000 N
ATOM     57  HD  ASG B   4      19.616  22.963  72.9340  0.00  0.00     0.000 HD
ATOM     57   O  ASG B   4      21.057  23.056  72.4670  0.00  0.00     0.000 OA
ATOM     58   C  ASG B   4      20.296  23.120  73.4280  0.00  0.00     0.000 C
ATOM     59   C  ASG B   4      20.716  22.755  74.8180  0.00  0.00     0.000 C
ENDBRANCH 50 57
BRANCH 52 60
ATOM     60   O  ASG B   4      16.114  22.749  73.0710  0.00  0.00     0.000 O
ATOM     61   O  ASG B   4      14.212  21.611  71.9220  0.00  0.00     0.000 OA
ATOM     62   O  ASG B   4      15.480  20.438  73.5600  0.00  0.00     0.000 OA
ATOM     63   O  ASG B   4      14.182  22.331  74.2280  0.00  0.00     0.000 OA
ATOM     64   S  ASG B   4      14.928  21.673  73.1520  0.00  0.00     0.000 S
ENDBRANCH 52 60
ATOM     65   O  ASG B   4      14.925  26.925  74.3370  0.00  0.00     0.000 O
ATOM     67  HD  ASG B   4      15.583  26.936  74.9010  0.00  0.00     0.000 HD
ATOM     67   O  ASG B   4      14.925  26.925  74.3370  0.00  0.00     0.000 O
ATOM     69  HD  ASG B   4      15.583  26.936  74.9010  0.00  0.00     0.000 HD
ENDBRANCH 48 51
ENDBRANCH 35 48
ENDBRANCH 34 38
ENDBRANCH 15 34
ENDBRANCH 14 17
ENDBRANCH 1 14
TORSDOF 12
ENDMDL
MODEL 54
REMARK VINA RESULT:      -7.1     28.668     31.985
ROOT
ATOM      1  C1  GAD B   1      16.582  26.782  63.4540  0.00  0.00     0.000 C
ATOM      2  C2  GAD B   1      15.097  26.704  63.0880  0.00  0.00     0.000 C
ATOM      3  C3  GAD B   1      14.266  26.356  64.3290  0.00  0.00     0.000 C
ATOM      4  C4  GAD B   1      14.983  25.460  65.3430  0.00  0.00     0.000 C
ATOM      5  C5  GAD B   1      16.284  25.115  65.2650  0.00  0.00     0.000 C
ATOM      6  O5  GAD B   1      17.023  25.591  64.1240  0.00  0.00     0.000 O
ATOM      7   O  GAD B   1      14.642  27.940  62.4230  0.00  0.00     0.000 O
ATOM      9  HD  GAD B   1      15.498  28.050  62.3530  0.00  0.00     0.000 HD
ATOM      9   O  GAD B   1      13.047  25.666  63.9760  0.00  0.00     0.000 O
ATOM     11  HD  GAD B   1      13.903  25.776  63.9060  0.00  0.00     0.000 HD
ENDROOT
BRANCH 5 11
ATOM     11   C  GAD B   1      17.013  24.338  66.2930  0.00  0.00     0.000 C
ATOM     12   O  GAD B   1      18.258  24.562  66.4090  0.00  0.00     0.000 OA
ATOM     13   O  GAD B   1      16.405  23.426  66.9660  0.00  0.00     0.000 OA
ENDBRANCH 5 11
BRANCH 1 14
ATOM     14  O3  ASG B   2      17.583  26.655  62.5640  0.00  0.00     0.000 O
BRANCH 14 17
ATOM     15  C1  ASG B   2      20.922  28.366  62.1110  0.00  0.00     0.000 C
ATOM     16  C2  ASG B   2      19.417  28.138  61.9110  0.00  0.00     0.000 C
ATOM     17  C3  ASG B   2      18.985  26.908  62.7150  0.00  0.00     0.000 C
ATOM     18  C4  ASG B   2      19.774  25.693  62.2670  0.00  0.00     0.000 C
ATOM     19  C5  ASG B   2      21.265  26.003  62.3630  0.00  0.00     0.000 C
ATOM     20  O5  ASG B   2      21.567  27.203  61.6240  0.00  0.00     0.000 O
ATOM     21   C  ASG B   2      22.120  24.921  61.7850  0.00  0.00     0.000 C
ATOM     22   O  ASG B   2      23.452  25.368  61.7150  0.00  0.00     0.000 O
ATOM     24  HD  ASG B   2      24.301  25.506  61.6160  0.00  0.00     0.000 HD
BRANCH 16 26
ATOM     24   N  ASG B   2      18.672  29.362  62.0920  0.00  0.00     0.000 N
ATOM     26  HD  ASG B   2      19.457  29.349  61.7280  0.00  0.00     0.000 HD
ATOM     26   C  ASG B   2      17.464  29.596  61.5460  0.00  0.00     0.000 C
ATOM     27   C  ASG B   2      16.702  30.746  62.1090  0.00  0.00     0.000 C
ATOM     28   O  ASG B   2      17.020  28.900  60.6410  0.00  0.00     0.000 OA
ENDBRANCH 16 26
BRANCH 18 29
ATOM     29   O  ASG B   2      19.341  25.396  60.8950  0.00  0.00     0.000 O
ATOM     30   O  ASG B   2      19.673  22.969  61.0990  0.00  0.00     0.000 OA
ATOM     31   O  ASG B   2      17.426  23.888  61.0950  0.00  0.00     0.000 OA
ATOM     32   O  ASG B   2      18.751  23.923  59.0730  0.00  0.00     0.000 OA
ATOM     33   S  ASG B   2      18.756  23.943  60.5360  0.00  0.00     0.000 S
ENDBRANCH 18 29
BRANCH 15 34
ATOM     34  O4  ASG B   3      21.419  29.475  61.4180  0.00  0.00     0.000 O
BRANCH 34 38
ATOM     35  C1  GCT B   3      21.495  32.142  64.4590  0.00  0.00     0.000 C
ATOM     36  C2  GCT B   3      21.526  32.774  63.0850  0.00  0.00     0.000 C
ATOM     37  C3  GCT B   3      21.062  31.786  62.0240  0.00  0.00     0.000 C
ATOM     38  C4  GCT B   3      21.984  30.561  62.0390  0.00  0.00     0.000 C
ATOM     39  C5  GCT B   3      22.488  30.232  63.4620  0.00  0.00     0.000 C
ATOM     40  O5  GCT B   3      21.509  30.722  64.3620  0.00  0.00     0.000 O
ATOM     41   O  GCT B   3      20.649  33.891  63.1350  0.00  0.00     0.000 O
ATOM     43  HD  GCT B   3      20.736  34.682  63.4750  0.00  0.00     0.000 HD
ATOM     43   O  GCT B   3      21.043  32.458  60.7470  0.00  0.00     0.000 O
ATOM     45  HD  GCT B   3      21.130  33.250  61.0870  0.00  0.00     0.000 HD
BRANCH 39 45
ATOM     45   C  GCT B   3      23.850  30.744  63.8790  0.00  0.00     0.000 C
ATOM     46   O  GCT B   3      24.294  30.473  65.0390  0.00  0.00     0.000 OA
ATOM     47   O  GCT B   3      24.496  31.407  63.0510  0.00  0.00     0.000 OA
ENDBRANCH 39 45
BRANCH 35 48
ATOM     48  O3  ASG B   4      22.141  32.914  65.3070  0.00  0.00     0.000 O
BRANCH 48 51
ATOM     49  C1  ASG B   4      21.302  34.831  68.3580  0.00  0.00     0.000 C
ATOM     50  C2  ASG B   4      22.019  34.420  67.0610  0.00  0.00     0.000 C
ATOM     51  C3  ASG B   4      21.248  33.327  66.3270  0.00  0.00     0.000 C
ATOM     52  C4  ASG B   4      20.892  32.181  67.2610  0.00  0.00     0.000 C
ATOM     53  C5  ASG B   4      20.153  32.761  68.4630  0.00  0.00     0.000 C
ATOM     54  O5  ASG B   4      21.019  33.688  69.1480  0.00  0.00     0.000 O
BRANCH 50 57
ATOM     55   N  ASG B   4      22.521  35.123  65.9030  0.00  0.00     0.000 N
ATOM     57  HD  ASG B   4      22.891  35.784  66.3210  0.00  0.00     0.000 HD
ATOM     57   O  ASG B   4      24.216  36.102  66.9900  0.00  0.00     0.000 OA
ATOM     58   C  ASG B   4      23.652  35.834  65.9340  0.00  0.00     0.000 C
ATOM     59   C  ASG B   4      24.147  36.321  64.6070  0.00  0.00     0.000 C
ENDBRANCH 50 57
BRANCH 52 60
ATOM     60   O  ASG B   4      22.209  31.572  67.5800  0.00  0.00     0.000 O
ATOM     61   O  ASG B   4      21.268  29.261  67.6510  0.00  0.00     0.000 OA
ATOM     62   O  ASG B   4      23.616  29.592  67.8690  0.00  0.00     0.000 OA
ATOM     63   O  ASG B   4      22.158  30.434  69.5670  0.00  0.00     0.000 OA
ATOM     64   S  ASG B   4      22.320  30.079  68.1540  0.00  0.00     0.000 S
ENDBRANCH 52 60
ATOM     65   O  ASG B   4      18.720  32.298  70.3640  0.00  0.00     0.000 O
ATOM     67  HD  ASG B   4      19.230  32.781  70.8700  0.00  0.00     0.000 HD
ATOM     67   O  ASG B   4      18.720  32.298  70.3640  0.00  0.00     0.000 O
ATOM     69  HD  ASG B   4      19.230  32.781  70.8700  0.00  0.00     0.000 HD
ENDBRANCH 48 51
ENDBRANCH 35 48
ENDBRANCH 34 38
ENDBRANCH 15 34
ENDBRANCH 14 17
ENDBRANCH 1 14
TORSDOF 12
ENDMDL
MODEL 55
REMARK VINA RESULT:      -7.1      9.186     12.147
ROOT
ATOM      1  C1  GAD B   1      17.641  26.947  33.6550  0.00  0.00     0.000 C
ATOM      2  C2  GAD B   1      16.826  27.483  34.8360  0.00  0.00     0.000 C
ATOM      3  C3  GAD B   1      15.365  27.689  34.4180  0.00  0.00     0.000 C
ATOM      4  C4  GAD B   1      15.174  28.082  32.9510  0.00  0.00     0.000 C
ATOM      5  C5  GAD B   1      16.162  28.102  32.0350  0.00  0.00     0.000 C
ATOM      6  O5  GAD B   1      17.489  27.774  32.4910  0.00  0.00     0.000 O
ATOM      7   O  GAD B   1      16.965  26.618  36.0230  0.00  0.00     0.000 O
ATOM      9  HD  GAD B   1      17.630  26.321  35.5540  0.00  0.00     0.000 HD
ATOM      9   O  GAD B   1      14.730  28.727  35.1980  0.00  0.00     0.000 O
ATOM     11  HD  GAD B   1      15.395  28.430  34.7290  0.00  0.00     0.000 HD
ENDROOT
BRANCH 5 11
ATOM     11   C  GAD B   1      15.970  28.377  30.5920  0.00  0.00     0.000 C
ATOM     12   O  GAD B   1      16.804  29.160  30.0400  0.00  0.00     0.000 OA
ATOM     13   O  GAD B   1      14.950  27.897  29.9730  0.00  0.00     0.000 OA
ENDBRANCH 5 11
BRANCH 1 14
ATOM     14  O3  ASG B   2      18.979  27.051  33.5570  0.00  0.00     0.000 O
BRANCH 14 17
ATOM     15  C1  ASG B   2      22.168  28.351  35.1120  0.00  0.00     0.000 C
ATOM     16  C2  ASG B   2      21.158  28.078  33.9890  0.00  0.00     0.000 C
ATOM     17  C3  ASG B   2      19.955  27.327  34.5680  0.00  0.00     0.000 C
ATOM     18  C4  ASG B   2      20.413  26.027  35.2030  0.00  0.00     0.000 C
ATOM     19  C5  ASG B   2      21.506  26.329  36.2240  0.00  0.00     0.000 C
ATOM     20  O5  ASG B   2      22.565  27.084  35.6040  0.00  0.00     0.000 O
ATOM     21   C  ASG B   2      22.135  25.092  36.7820  0.00  0.00     0.000 C
ATOM     22   O  ASG B   2      23.263  25.446  37.5430  0.00  0.00     0.000 O
ATOM     24  HD  ASG B   2      23.970  25.516  38.0380  0.00  0.00     0.000 HD
BRANCH 16 26
ATOM     24   N  ASG B   2      20.734  29.250  33.2580  0.00  0.00     0.000 N
ATOM     26  HD  ASG B   2      21.492  29.214  33.6740  0.00  0.00     0.000 HD
ATOM     26   C  ASG B   2      20.466  29.257  31.9390  0.00  0.00     0.000 C
ATOM     27   C  ASG B   2      19.723  30.444  31.4280  0.00  0.00     0.000 C
ATOM     28   O  ASG B   2      20.813  28.340  31.2050  0.00  0.00     0.000 OA
ENDBRANCH 16 26
BRANCH 18 29
ATOM     29   O  ASG B   2      20.880  25.169  34.1050  0.00  0.00     0.000 O
ATOM     30   O  ASG B   2      20.225  23.068  35.2000  0.00  0.00     0.000 OA
ATOM     31   O  ASG B   2      18.924  23.919  33.3360  0.00  0.00     0.000 OA
ATOM     32   O  ASG B   2      21.151  23.057  32.9630  0.00  0.00     0.000 OA
ATOM     33   S  ASG B   2      20.237  23.711  33.9000  0.00  0.00     0.000 S
ENDBRANCH 18 29
BRANCH 15 34
ATOM     34  O4  ASG B   3      23.308  29.042  34.6870  0.00  0.00     0.000 O
BRANCH 34 38
ATOM     35  C1  GCT B   3      23.954  30.964  38.1870  0.00  0.00     0.000 C
ATOM     36  C2  GCT B   3      23.454  31.861  37.0750  0.00  0.00     0.000 C
ATOM     37  C3  GCT B   3      22.827  31.039  35.9570  0.00  0.00     0.000 C
ATOM     38  C4  GCT B   3      23.875  30.070  35.3950  0.00  0.00     0.000 C
ATOM     39  C5  GCT B   3      24.847  29.571  36.4880  0.00  0.00     0.000 C
ATOM     40  O5  GCT B   3      24.143  29.634  37.7160  0.00  0.00     0.000 O
ATOM     41   O  GCT B   3      22.485  32.722  37.6560  0.00  0.00     0.000 O
ATOM     43  HD  GCT B   3      22.559  33.424  38.1580  0.00  0.00     0.000 HD
ATOM     43   O  GCT B   3      22.307  31.943  34.9590  0.00  0.00     0.000 O
ATOM     45  HD  GCT B   3      22.380  32.645  35.4610  0.00  0.00     0.000 HD
BRANCH 39 45
ATOM     45   C  GCT B   3      26.181  30.270  36.6390  0.00  0.00     0.000 C
ATOM     46   O  GCT B   3      26.428  31.305  35.9440  0.00  0.00     0.000 OA
ATOM     47   O  GCT B   3      26.988  29.803  37.4590  0.00  0.00     0.000 OA
ENDBRANCH 39 45
BRANCH 35 48
ATOM     48  O3  ASG B   4      24.715  31.664  39.0010  0.00  0.00     0.000 O
BRANCH 48 51
ATOM     49  C1  ASG B   4      24.311  32.500  42.5820  0.00  0.00     0.000 C
ATOM     50  C2  ASG B   4      24.415  32.681  41.0580  0.00  0.00     0.000 C
ATOM     51  C3  ASG B   4      24.383  31.336  40.3390  0.00  0.00     0.000 C
ATOM     52  C4  ASG B   4      25.383  30.364  40.9440  0.00  0.00     0.000 C
ATOM     53  C5  ASG B   4      25.108  30.273  42.4420  0.00  0.00     0.000 C
ATOM     54  O5  ASG B   4      25.285  31.574  43.0350  0.00  0.00     0.000 O
BRANCH 50 57
ATOM     55   N  ASG B   4      23.297  33.541  40.7420  0.00  0.00     0.000 N
ATOM     57  HD  ASG B   4      23.599  34.263  41.1130  0.00  0.00     0.000 HD
ATOM     57   O  ASG B   4      24.498  35.431  40.7510  0.00  0.00     0.000 OA
ATOM     58   C  ASG B   4      23.446  34.848  40.5080  0.00  0.00     0.000 C
ATOM     59   C  ASG B   4      22.233  35.555  39.9850  0.00  0.00     0.000 C
ENDBRANCH 50 57
BRANCH 52 60
ATOM     60   O  ASG B   4      26.699  30.956  40.5920  0.00  0.00     0.000 O
ATOM     61   O  ASG B   4      27.855  28.745  40.6560  0.00  0.00     0.000 OA
ATOM     62   O  ASG B   4      29.043  30.683  39.9480  0.00  0.00     0.000 OA
ATOM     63   O  ASG B   4      28.271  30.549  42.2070  0.00  0.00     0.000 OA
ATOM     64   S  ASG B   4      28.064  30.145  40.8140  0.00  0.00     0.000 S
ENDBRANCH 52 60
ATOM     65   O  ASG B   4      25.463  29.012  44.4830  0.00  0.00     0.000 O
ATOM     67  HD  ASG B   4      25.656  29.743  44.9050  0.00  0.00     0.000 HD
ATOM     67   O  ASG B   4      25.463  29.012  44.4830  0.00  0.00     0.000 O
ATOM     69  HD  ASG B   4      25.656  29.743  44.9050  0.00  0.00     0.000 HD
ENDBRANCH 48 51
ENDBRANCH 35 48
ENDBRANCH 34 38
ENDBRANCH 15 34
ENDBRANCH 14 17
ENDBRANCH 1 14
TORSDOF 12
ENDMDL
MODEL 56
REMARK VINA RESULT:      -7.1     28.688     32.463
ROOT
ATOM      1  C1  GAD B   1      19.732  30.304  63.7000  0.00  0.00     0.000 C
ATOM      2  C2  GAD B   1      18.806  31.439  64.1480  0.00  0.00     0.000 C
ATOM      3  C3  GAD B   1      19.518  32.326  65.1760  0.00  0.00     0.000 C
ATOM      4  C4  GAD B   1      20.517  31.585  66.0700  0.00  0.00     0.000 C
ATOM      5  C5  GAD B   1      20.884  30.300  65.8950  0.00  0.00     0.000 C
ATOM      6  O5  GAD B   1      20.253  29.575  64.8220  0.00  0.00     0.000 O
ATOM      7   O  GAD B   1      18.292  32.201  62.9940  0.00  0.00     0.000 O
ATOM      9  HD  GAD B   1      18.588  31.501  62.5790  0.00  0.00     0.000 HD
ATOM      9   O  GAD B   1      18.578  32.963  66.0700  0.00  0.00     0.000 O
ATOM     11  HD  GAD B   1      18.874  32.263  65.6550  0.00  0.00     0.000 HD
ENDROOT
BRANCH 5 11
ATOM     11   C  GAD B   1      21.927  29.606  66.6860  0.00  0.00     0.000 C
ATOM     12   O  GAD B   1      23.022  30.225  66.8630  0.00  0.00     0.000 OA
ATOM     13   O  GAD B   1      21.736  28.401  67.0910  0.00  0.00     0.000 OA
ENDBRANCH 5 11
BRANCH 1 14
ATOM     14  O3  ASG B   2      19.300  29.154  63.1500  0.00  0.00     0.000 O
BRANCH 14 17
ATOM     15  C1  ASG B   2      19.222  25.415  63.6920  0.00  0.00     0.000 C
ATOM     16  C2  ASG B   2      19.584  26.729  62.9860  0.00  0.00     0.000 C
ATOM     17  C3  ASG B   2      18.986  27.901  63.7700  0.00  0.00     0.000 C
ATOM     18  C4  ASG B   2      17.480  27.744  63.8680  0.00  0.00     0.000 C
ATOM     19  C5  ASG B   2      17.160  26.375  64.4600  0.00  0.00     0.000 C
ATOM     20  O5  ASG B   2      17.808  25.342  63.6920  0.00  0.00     0.000 O
ATOM     21   C  ASG B   2      15.697  26.065  64.4410  0.00  0.00     0.000 C
ATOM     22   O  ASG B   2      15.502  24.719  64.7990  0.00  0.00     0.000 O
ATOM     24  HD  ASG B   2      15.235  23.920  65.0020  0.00  0.00     0.000 HD
BRANCH 16 26
ATOM     24   N  ASG B   2      20.995  26.957  62.7740  0.00  0.00     0.000 N
ATOM     26  HD  ASG B   2      20.667  26.164  62.8920  0.00  0.00     0.000 HD
ATOM     26   C  ASG B   2      21.507  27.531  61.6700  0.00  0.00     0.000 C
ATOM     27   C  ASG B   2      22.920  27.993  61.7670  0.00  0.00     0.000 C
ATOM     28   O  ASG B   2      20.846  27.664  60.6470  0.00  0.00     0.000 OA
ENDBRANCH 16 26
BRANCH 18 29
ATOM     29   O  ASG B   2      16.954  27.915  62.5070  0.00  0.00     0.000 O
ATOM     30   O  ASG B   2      14.776  28.786  63.2420  0.00  0.00     0.000 OA
ATOM     31   O  ASG B   2      16.418  30.289  62.2740  0.00  0.00     0.000 OA
ATOM     32   O  ASG B   2      15.318  28.644  60.8860  0.00  0.00     0.000 OA
ATOM     33   S  ASG B   2      15.792  28.989  62.2260  0.00  0.00     0.000 S
ENDBRANCH 18 29
BRANCH 15 34
ATOM     34  O4  ASG B   3      19.728  24.277  63.0560  0.00  0.00     0.000 O
BRANCH 34 38
ATOM     35  C1  GCT B   3      19.417  21.192  60.4570  0.00  0.00     0.000 C
ATOM     36  C2  GCT B   3      19.494  22.550  59.7940  0.00  0.00     0.000 C
ATOM     37  C3  GCT B   3      20.039  23.594  60.7600  0.00  0.00     0.000 C
ATOM     38  C4  GCT B   3      19.117  23.678  61.9830  0.00  0.00     0.000 C
ATOM     39  C5  GCT B   3      18.503  22.306  62.3420  0.00  0.00     0.000 C
ATOM     40  O5  GCT B   3      19.410  21.322  61.8750  0.00  0.00     0.000 O
ATOM     41   O  GCT B   3      20.365  22.407  58.6810  0.00  0.00     0.000 O
ATOM     43  HD  GCT B   3      20.253  22.056  57.8970  0.00  0.00     0.000 HD
ATOM     43   O  GCT B   3      20.157  24.850  60.0590  0.00  0.00     0.000 O
ATOM     45  HD  GCT B   3      20.045  24.500  59.2750  0.00  0.00     0.000 HD
BRANCH 39 45
ATOM     45   C  GCT B   3      17.113  21.986  61.8360  0.00  0.00     0.000 C
ATOM     46   O  GCT B   3      16.573  20.878  62.1470  0.00  0.00     0.000 OA
ATOM     47   O  GCT B   3      16.541  22.839  61.1380  0.00  0.00     0.000 OA
ENDBRANCH 39 45
BRANCH 35 48
ATOM     48  O3  ASG B   4      18.707  20.380  59.7030  0.00  0.00     0.000 O
BRANCH 48 51
ATOM     49  C1  ASG B   4      19.634  17.444  57.6510  0.00  0.00     0.000 C
ATOM     50  C2  ASG B   4      19.095  18.836  58.0220  0.00  0.00     0.000 C
ATOM     51  C3  ASG B   4      19.459  19.204  59.4570  0.00  0.00     0.000 C
ATOM     52  C4  ASG B   4      19.091  18.089  60.4220  0.00  0.00     0.000 C
ATOM     53  C5  ASG B   4      19.741  16.800  59.9290  0.00  0.00     0.000 C
ATOM     54  O5  ASG B   4      19.232  16.487  58.6170  0.00  0.00     0.000 O
BRANCH 50 57
ATOM     55   N  ASG B   4      19.669  19.733  57.0460  0.00  0.00     0.000 N
ATOM     57  HD  ASG B   4      19.231  19.448  56.3560  0.00  0.00     0.000 HD
ATOM     57   O  ASG B   4      17.894  19.696  55.6820  0.00  0.00     0.000 OA
ATOM     58   C  ASG B   4      18.977  20.180  55.9930  0.00  0.00     0.000 C
ATOM     59   C  ASG B   4      19.636  21.265  55.1980  0.00  0.00     0.000 C
ENDBRANCH 50 57
BRANCH 52 60
ATOM     60   O  ASG B   4      17.605  18.082  60.3940  0.00  0.00     0.000 O
ATOM     61   O  ASG B   4      17.435  17.291  62.7550  0.00  0.00     0.000 OA
ATOM     62   O  ASG B   4      15.463  17.873  61.5560  0.00  0.00     0.000 OA
ATOM     63   O  ASG B   4      16.758  15.999  60.8290  0.00  0.00     0.000 OA
ATOM     64   S  ASG B   4      16.754  17.300  61.5040  0.00  0.00     0.000 S
ENDBRANCH 52 60
ATOM     65   O  ASG B   4      20.412  14.538  60.4890  0.00  0.00     0.000 O
ATOM     67  HD  ASG B   4      20.065  14.249  59.7510  0.00  0.00     0.000 HD
ATOM     67   O  ASG B   4      20.412  14.538  60.4890  0.00  0.00     0.000 O
ATOM     69  HD  ASG B   4      20.065  14.249  59.7510  0.00  0.00     0.000 HD
ENDBRANCH 48 51
ENDBRANCH 35 48
ENDBRANCH 34 38
ENDBRANCH 15 34
ENDBRANCH 14 17
ENDBRANCH 1 14
TORSDOF 12
ENDMDL
MODEL 57
REMARK VINA RESULT:      -7.1      5.110      8.695
ROOT
ATOM      1  C1  GAD B   1      20.831  41.710  35.7750  0.00  0.00     0.000 C
ATOM      2  C2  GAD B   1      19.355  42.015  36.0480  0.00  0.00     0.000 C
ATOM      3  C3  GAD B   1      18.975  43.369  35.4360  0.00  0.00     0.000 C
ATOM      4  C4  GAD B   1      20.109  44.397  35.4160  0.00  0.00     0.000 C
ATOM      5  C5  GAD B   1      21.387  44.125  35.7500  0.00  0.00     0.000 C
ATOM      6  O5  GAD B   1      21.679  42.788  36.1980  0.00  0.00     0.000 O
ATOM      7   O  GAD B   1      18.484  40.916  35.5890  0.00  0.00     0.000 O
ATOM      9  HD  GAD B   1      19.247  40.505  35.5750  0.00  0.00     0.000 HD
ATOM      9   O  GAD B   1      17.885  43.989  36.1550  0.00  0.00     0.000 O
ATOM     11  HD  GAD B   1      18.648  43.579  36.1410  0.00  0.00     0.000 HD
ENDROOT
BRANCH 5 11
ATOM     11   C  GAD B   1      22.511  45.082  35.6320  0.00  0.00     0.000 C
ATOM     12   O  GAD B   1      23.134  45.105  34.5260  0.00  0.00     0.000 OA
ATOM     13   O  GAD B   1      22.869  45.786  36.6480  0.00  0.00     0.000 OA
ENDBRANCH 5 11
BRANCH 1 14
ATOM     14  O3  ASG B   2      21.566  40.844  36.4980  0.00  0.00     0.000 O
BRANCH 14 17
ATOM     15  C1  ASG B   2      22.553  39.719  39.9670  0.00  0.00     0.000 C
ATOM     16  C2  ASG B   2      22.773  40.161  38.5140  0.00  0.00     0.000 C
ATOM     17  C3  ASG B   2      21.414  40.424  37.8590  0.00  0.00     0.000 C
ATOM     18  C4  ASG B   2      20.561  39.171  37.9130  0.00  0.00     0.000 C
ATOM     19  C5  ASG B   2      20.470  38.692  39.3590  0.00  0.00     0.000 C
ATOM     20  O5  ASG B   2      21.793  38.527  39.9080  0.00  0.00     0.000 O
ATOM     21   C  ASG B   2      19.787  37.369  39.4890  0.00  0.00     0.000 C
ATOM     22   O  ASG B   2      19.930  36.899  40.8070  0.00  0.00     0.000 O
ATOM     24  HD  ASG B   2      19.936  36.491  41.5710  0.00  0.00     0.000 HD
BRANCH 16 26
ATOM     24   N  ASG B   2      23.646  41.300  38.3450  0.00  0.00     0.000 N
ATOM     26  HD  ASG B   2      23.683  40.788  39.0420  0.00  0.00     0.000 HD
ATOM     26   C  ASG B   2      24.509  41.442  37.3220  0.00  0.00     0.000 C
ATOM     27   C  ASG B   2      25.068  42.809  37.1210  0.00  0.00     0.000 C
ATOM     28   O  ASG B   2      24.813  40.501  36.6000  0.00  0.00     0.000 OA
ENDBRANCH 16 26
BRANCH 18 29
ATOM     29   O  ASG B   2      21.204  38.190  37.0280  0.00  0.00     0.000 O
ATOM     30   O  ASG B   2      19.096  37.133  36.3340  0.00  0.00     0.000 OA
ATOM     31   O  ASG B   2      20.289  38.583  34.7950  0.00  0.00     0.000 OA
ATOM     32   O  ASG B   2      21.206  36.424  35.3790  0.00  0.00     0.000 OA
ATOM     33   S  ASG B   2      20.380  37.554  35.8040  0.00  0.00     0.000 S
ENDBRANCH 18 29
BRANCH 15 34
ATOM     34  O4  ASG B   3      23.740  39.457  40.6600  0.00  0.00     0.000 O
BRANCH 34 38
ATOM     35  C1  GCT B   3      25.368  35.759  40.8430  0.00  0.00     0.000 C
ATOM     36  C2  GCT B   3      26.373  36.881  40.9840  0.00  0.00     0.000 C
ATOM     37  C3  GCT B   3      25.679  38.188  41.3430  0.00  0.00     0.000 C
ATOM     38  C4  GCT B   3      24.673  38.543  40.2410  0.00  0.00     0.000 C
ATOM     39  C5  GCT B   3      24.028  37.285  39.6170  0.00  0.00     0.000 C
ATOM     40  O5  GCT B   3      24.063  36.276  40.6120  0.00  0.00     0.000 O
ATOM     41   O  GCT B   3      27.264  36.496  42.0210  0.00  0.00     0.000 O
ATOM     43  HD  GCT B   3      27.923  35.935  42.0420  0.00  0.00     0.000 HD
ATOM     43   O  GCT B   3      26.684  39.205  41.5340  0.00  0.00     0.000 O
ATOM     45  HD  GCT B   3      27.343  38.644  41.5550  0.00  0.00     0.000 HD
BRANCH 39 45
ATOM     45   C  GCT B   3      24.612  36.739  38.3320  0.00  0.00     0.000 C
ATOM     46   O  GCT B   3      25.654  37.276  37.8390  0.00  0.00     0.000 OA
ATOM     47   O  GCT B   3      24.049  35.764  37.8090  0.00  0.00     0.000 OA
ENDBRANCH 39 45
BRANCH 35 48
ATOM     48  O3  ASG B   4      25.952  34.721  40.2820  0.00  0.00     0.000 O
BRANCH 48 51
ATOM     49  C1  ASG B   4      26.841  31.300  41.3770  0.00  0.00     0.000 C
ATOM     50  C2  ASG B   4      26.965  32.686  40.7220  0.00  0.00     0.000 C
ATOM     51  C3  ASG B   4      25.812  33.597  41.1340  0.00  0.00     0.000 C
ATOM     52  C4  ASG B   4      24.471  32.909  40.9410  0.00  0.00     0.000 C
ATOM     53  C5  ASG B   4      24.508  31.579  41.6880  0.00  0.00     0.000 C
ATOM     54  O5  ASG B   4      25.553  30.756  41.1350  0.00  0.00     0.000 O
BRANCH 50 57
ATOM     55   N  ASG B   4      28.177  33.429  40.9800  0.00  0.00     0.000 N
ATOM     57  HD  ASG B   4      28.736  32.856  40.6490  0.00  0.00     0.000 HD
ATOM     57   O  ASG B   4      29.332  32.505  39.2980  0.00  0.00     0.000 OA
ATOM     58   C  ASG B   4      29.243  33.357  40.1770  0.00  0.00     0.000 C
ATOM     59   C  ASG B   4      30.334  34.345  40.4570  0.00  0.00     0.000 C
ENDBRANCH 50 57
BRANCH 52 60
ATOM     60   O  ASG B   4      24.353  32.785  39.4650  0.00  0.00     0.000 O
ATOM     61   O  ASG B   4      21.858  32.750  39.5380  0.00  0.00     0.000 OA
ATOM     62   O  ASG B   4      22.982  32.789  37.4390  0.00  0.00     0.000 OA
ATOM     63   O  ASG B   4      23.232  30.882  38.8600  0.00  0.00     0.000 OA
ATOM     64   S  ASG B   4      22.982  32.324  38.7740  0.00  0.00     0.000 S
ENDBRANCH 52 60
ATOM     65   O  ASG B   4      23.212  29.754  42.6200  0.00  0.00     0.000 O
ATOM     67  HD  ASG B   4      23.752  29.182  42.2600  0.00  0.00     0.000 HD
ATOM     67   O  ASG B   4      23.212  29.754  42.6200  0.00  0.00     0.000 O
ATOM     69  HD  ASG B   4      23.752  29.182  42.2600  0.00  0.00     0.000 HD
ENDBRANCH 48 51
ENDBRANCH 35 48
ENDBRANCH 34 38
ENDBRANCH 15 34
ENDBRANCH 14 17
ENDBRANCH 1 14
TORSDOF 12
ENDMDL
MODEL 58
REMARK VINA RESULT:      -7.0     24.235     31.097
ROOT
ATOM      1  C1  GAD B   1      16.583  26.529  67.5210  0.00  0.00     0.000 C
ATOM      2  C2  GAD B   1      15.383  25.736  68.0480  0.00  0.00     0.000 C
ATOM      3  C3  GAD B   1      15.661  25.250  69.4760  0.00  0.00     0.000 C
ATOM      4  C4  GAD B   1      17.132  24.942  69.7670  0.00  0.00     0.000 C
ATOM      5  C5  GAD B   1      18.146  25.212  68.9210  0.00  0.00     0.000 C
ATOM      6  O5  GAD B   1      17.804  25.784  67.6450  0.00  0.00     0.000 O
ATOM      7   O  GAD B   1      14.135  26.515  67.9420  0.00  0.00     0.000 O
ATOM      9  HD  GAD B   1      14.639  26.986  67.4180  0.00  0.00     0.000 HD
ATOM      9   O  GAD B   1      14.931  24.039  69.7760  0.00  0.00     0.000 O
ATOM     11  HD  GAD B   1      15.435  24.511  69.2530  0.00  0.00     0.000 HD
ENDROOT
BRANCH 5 11
ATOM     11   C  GAD B   1      19.581  25.016  69.2350  0.00  0.00     0.000 C
ATOM     12   O  GAD B   1      19.882  24.825  70.4540  0.00  0.00     0.000 OA
ATOM     13   O  GAD B   1      20.465  25.121  68.3070  0.00  0.00     0.000 OA
ENDBRANCH 5 11
BRANCH 1 14
ATOM     14  O3  ASG B   2      16.835  26.730  66.2140  0.00  0.00     0.000 O
BRANCH 14 17
ATOM     15  C1  ASG B   2      19.287  25.831  63.4820  0.00  0.00     0.000 C
ATOM     16  C2  ASG B   2      18.540  26.751  64.4590  0.00  0.00     0.000 C
ATOM     17  C3  ASG B   2      17.556  25.915  65.2820  0.00  0.00     0.000 C
ATOM     18  C4  ASG B   2      16.580  25.207  64.3620  0.00  0.00     0.000 C
ATOM     19  C5  ASG B   2      17.363  24.403  63.3290  0.00  0.00     0.000 C
ATOM     20  O5  ASG B   2      18.300  25.258  62.6440  0.00  0.00     0.000 O
ATOM     21   C  ASG B   2      16.487  23.804  62.2760  0.00  0.00     0.000 C
ATOM     22   O  ASG B   2      17.289  23.265  61.2530  0.00  0.00     0.000 O
ATOM     24  HD  ASG B   2      17.651  22.893  60.5600  0.00  0.00     0.000 HD
BRANCH 16 26
ATOM     24   N  ASG B   2      19.354  27.519  65.3720  0.00  0.00     0.000 N
ATOM     26  HD  ASG B   2      19.672  27.183  64.6400  0.00  0.00     0.000 HD
ATOM     26   C  ASG B   2      19.106  28.799  65.7060  0.00  0.00     0.000 C
ATOM     27   C  ASG B   2      19.829  29.316  66.9020  0.00  0.00     0.000 C
ATOM     28   O  ASG B   2      18.330  29.495  65.0620  0.00  0.00     0.000 OA
ENDBRANCH 16 26
BRANCH 18 29
ATOM     29   O  ASG B   2      15.745  26.253  63.7560  0.00  0.00     0.000 O
ATOM     30   O  ASG B   2      13.754  24.827  63.5480  0.00  0.00     0.000 OA
ATOM     31   O  ASG B   2      13.835  26.554  65.2520  0.00  0.00     0.000 OA
ATOM     32   O  ASG B   2      13.669  27.163  62.9190  0.00  0.00     0.000 OA
ATOM     33   S  ASG B   2      14.146  26.181  63.8920  0.00  0.00     0.000 S
ENDBRANCH 18 29
BRANCH 15 34
ATOM     34  O4  ASG B   3      20.219  26.499  62.6820  0.00  0.00     0.000 O
BRANCH 34 38
ATOM     35  C1  GCT B   3      21.125  28.255  59.1520  0.00  0.00     0.000 C
ATOM     36  C2  GCT B   3      20.578  29.209  60.1920  0.00  0.00     0.000 C
ATOM     37  C3  GCT B   3      20.672  28.604  61.5850  0.00  0.00     0.000 C
ATOM     38  C4  GCT B   3      19.869  27.297  61.6220  0.00  0.00     0.000 C
ATOM     39  C5  GCT B   3      19.922  26.546  60.2730  0.00  0.00     0.000 C
ATOM     40  O5  GCT B   3      21.137  26.921  59.6480  0.00  0.00     0.000 O
ATOM     41   O  GCT B   3      21.366  30.388  60.1120  0.00  0.00     0.000 O
ATOM     43  HD  GCT B   3      21.374  31.044  59.5480  0.00  0.00     0.000 HD
ATOM     43   O  GCT B   3      20.204  29.577  62.5420  0.00  0.00     0.000 O
ATOM     45  HD  GCT B   3      20.212  30.234  61.9770  0.00  0.00     0.000 HD
BRANCH 39 45
ATOM     45   C  GCT B   3      18.780  26.734  59.2990  0.00  0.00     0.000 C
ATOM     46   O  GCT B   3      17.918  27.644  59.5110  0.00  0.00     0.000 OA
ATOM     47   O  GCT B   3      18.737  25.987  58.3070  0.00  0.00     0.000 OA
ENDBRANCH 39 45
BRANCH 35 48
ATOM     48  O3  ASG B   4      20.794  28.683  57.9520  0.00  0.00     0.000 O
BRANCH 48 51
ATOM     49  C1  ASG B   4      22.907  30.065  55.2480  0.00  0.00     0.000 C
ATOM     50  C2  ASG B   4      21.864  29.999  56.3760  0.00  0.00     0.000 C
ATOM     51  C3  ASG B   4      21.945  28.671  57.1250  0.00  0.00     0.000 C
ATOM     52  C4  ASG B   4      21.933  27.495  56.1630  0.00  0.00     0.000 C
ATOM     53  C5  ASG B   4      23.052  27.702  55.1460  0.00  0.00     0.000 C
ATOM     54  O5  ASG B   4      22.807  28.921  54.4170  0.00  0.00     0.000 O
BRANCH 50 57
ATOM     55   N  ASG B   4      20.704  30.336  55.5840  0.00  0.00     0.000 N
ATOM     57  HD  ASG B   4      20.410  30.982  56.0810  0.00  0.00     0.000 HD
ATOM     57   O  ASG B   4      20.633  32.474  56.2480  0.00  0.00     0.000 OA
ATOM     58   C  ASG B   4      20.236  31.586  55.5000  0.00  0.00     0.000 C
ATOM     59   C  ASG B   4      19.167  31.809  54.4760  0.00  0.00     0.000 C
ENDBRANCH 50 57
BRANCH 52 60
ATOM     60   O  ASG B   4      20.563  27.529  55.5890  0.00  0.00     0.000 O
ATOM     61   O  ASG B   4      20.391  25.040  55.5190  0.00  0.00     0.000 OA
ATOM     62   O  ASG B   4      18.507  26.374  54.9380  0.00  0.00     0.000 OA
ATOM     63   O  ASG B   4      20.463  26.460  53.5660  0.00  0.00     0.000 OA
ATOM     64   S  ASG B   4      19.912  26.233  54.9050  0.00  0.00     0.000 S
ENDBRANCH 52 60
ATOM     65   O  ASG B   4      24.460  26.674  53.4600  0.00  0.00     0.000 O
ATOM     67  HD  ASG B   4      24.307  27.336  52.9240  0.00  0.00     0.000 HD
ATOM     67   O  ASG B   4      24.460  26.674  53.4600  0.00  0.00     0.000 O
ATOM     69  HD  ASG B   4      24.307  27.336  52.9240  0.00  0.00     0.000 HD
ENDBRANCH 48 51
ENDBRANCH 35 48
ENDBRANCH 34 38
ENDBRANCH 15 34
ENDBRANCH 14 17
ENDBRANCH 1 14
TORSDOF 12
ENDMDL
MODEL 59
REMARK VINA RESULT:      -7.0     19.718     24.331
ROOT
ATOM      1  C1  GAD B   1      17.958  52.280  58.5560  0.00  0.00     0.000 C
ATOM      2  C2  GAD B   1      18.011  50.801  58.9510  0.00  0.00     0.000 C
ATOM      3  C3  GAD B   1      17.652  50.639  60.4330  0.00  0.00     0.000 C
ATOM      4  C4  GAD B   1      18.070  51.815  61.3200  0.00  0.00     0.000 C
ATOM      5  C5  GAD B   1      18.569  52.977  60.8550  0.00  0.00     0.000 C
ATOM      6  O5  GAD B   1      18.758  53.089  59.4310  0.00  0.00     0.000 O
ATOM      7   O  GAD B   1      17.167  49.977  58.0650  0.00  0.00     0.000 O
ATOM      9  HD  GAD B   1      17.206  50.700  57.5890  0.00  0.00     0.000 HD
ATOM      9   O  GAD B   1      18.272  49.466  61.0050  0.00  0.00     0.000 O
ATOM     11  HD  GAD B   1      18.311  50.188  60.5290  0.00  0.00     0.000 HD
ENDROOT
BRANCH 5 11
ATOM     11   C  GAD B   1      18.877  54.159  61.6940  0.00  0.00     0.000 C
ATOM     12   O  GAD B   1      18.257  55.235  61.4220  0.00  0.00     0.000 OA
ATOM     13   O  GAD B   1      19.793  54.092  62.5930  0.00  0.00     0.000 OA
ENDBRANCH 5 11
BRANCH 1 14
ATOM     14  O3  ASG B   2      18.597  52.797  57.4900  0.00  0.00     0.000 O
BRANCH 14 17
ATOM     15  C1  ASG B   2      18.562  52.472  53.7250  0.00  0.00     0.000 C
ATOM     16  C2  ASG B   2      19.092  52.270  55.1520  0.00  0.00     0.000 C
ATOM     17  C3  ASG B   2      18.147  52.960  56.1400  0.00  0.00     0.000 C
ATOM     18  C4  ASG B   2      18.045  54.438  55.8120  0.00  0.00     0.000 C
ATOM     19  C5  ASG B   2      17.637  54.597  54.3510  0.00  0.00     0.000 C
ATOM     20  O5  ASG B   2      18.548  53.870  53.5030  0.00  0.00     0.000 O
ATOM     21   C  ASG B   2      17.672  56.020  53.8920  0.00  0.00     0.000 C
ATOM     22   O  ASG B   2      17.496  56.064  52.4970  0.00  0.00     0.000 O
ATOM     24  HD  ASG B   2      17.397  56.240  51.6550  0.00  0.00     0.000 HD
BRANCH 16 26
ATOM     24   N  ASG B   2      19.398  50.885  55.4280  0.00  0.00     0.000 N
ATOM     26  HD  ASG B   2      19.496  51.232  54.6400  0.00  0.00     0.000 HD
ATOM     26   C  ASG B   2      20.321  50.482  56.3210  0.00  0.00     0.000 C
ATOM     27   C  ASG B   2      20.263  49.047  56.7210  0.00  0.00     0.000 C
ATOM     28   O  ASG B   2      21.157  51.252  56.7760  0.00  0.00     0.000 OA
ENDBRANCH 16 26
BRANCH 18 29
ATOM     29   O  ASG B   2      19.361  55.022  56.1040  0.00  0.00     0.000 O
ATOM     30   O  ASG B   2      18.482  57.264  56.5970  0.00  0.00     0.000 OA
ATOM     31   O  ASG B   2      19.250  55.839  58.4060  0.00  0.00     0.000 OA
ATOM     32   O  ASG B   2      20.841  56.780  56.8480  0.00  0.00     0.000 OA
ATOM     33   S  ASG B   2      19.472  56.310  57.0590  0.00  0.00     0.000 S
ENDBRANCH 18 29
BRANCH 15 34
ATOM     34  O4  ASG B   3      19.355  51.872  52.7410  0.00  0.00     0.000 O
BRANCH 34 38
ATOM     35  C1  GCT B   3      21.221  51.822  49.1530  0.00  0.00     0.000 C
ATOM     36  C2  GCT B   3      21.452  53.088  49.9490  0.00  0.00     0.000 C
ATOM     37  C3  GCT B   3      21.109  52.874  51.4170  0.00  0.00     0.000 C
ATOM     38  C4  GCT B   3      19.637  52.462  51.5350  0.00  0.00     0.000 C
ATOM     39  C5  GCT B   3      19.177  51.603  50.3350  0.00  0.00     0.000 C
ATOM     40  O5  GCT B   3      20.332  50.949  49.8400  0.00  0.00     0.000 O
ATOM     41   O  GCT B   3      22.829  53.408  49.8070  0.00  0.00     0.000 O
ATOM     43  HD  GCT B   3      23.278  53.763  49.1570  0.00  0.00     0.000 HD
ATOM     43   O  GCT B   3      21.413  54.085  52.1410  0.00  0.00     0.000 O
ATOM     45  HD  GCT B   3      21.862  54.440  51.4910  0.00  0.00     0.000 HD
BRANCH 39 45
ATOM     45   C  GCT B   3      18.461  52.290  49.1920  0.00  0.00     0.000 C
ATOM     46   O  GCT B   3      18.008  51.595  48.2290  0.00  0.00     0.000 OA
ATOM     47   O  GCT B   3      18.332  53.523  49.2490  0.00  0.00     0.000 OA
ENDBRANCH 39 45
BRANCH 35 48
ATOM     48  O3  ASG B   4      21.269  52.102  47.8680  0.00  0.00     0.000 O
BRANCH 48 51
ATOM     49  C1  ASG B   4      23.342  50.070  45.5740  0.00  0.00     0.000 C
ATOM     50  C2  ASG B   4      22.952  51.157  46.5890  0.00  0.00     0.000 C
ATOM     51  C3  ASG B   4      21.552  50.915  47.1470  0.00  0.00     0.000 C
ATOM     52  C4  ASG B   4      20.548  50.682  46.0310  0.00  0.00     0.000 C
ATOM     53  C5  ASG B   4      21.069  49.549  45.1520  0.00  0.00     0.000 C
ATOM     54  O5  ASG B   4      22.336  49.937  44.5840  0.00  0.00     0.000 O
BRANCH 50 57
ATOM     55   N  ASG B   4      24.072  50.988  47.4860  0.00  0.00     0.000 N
ATOM     57  HD  ASG B   4      24.675  51.361  46.9880  0.00  0.00     0.000 HD
ATOM     57   O  ASG B   4      25.210  52.753  46.7090  0.00  0.00     0.000 OA
ATOM     58   C  ASG B   4      25.076  51.868  47.5480  0.00  0.00     0.000 C
ATOM     59   C  ASG B   4      26.046  51.666  48.6710  0.00  0.00     0.000 C
ENDBRANCH 50 57
BRANCH 52 60
ATOM     60   O  ASG B   4      20.467  52.002  45.3540  0.00  0.00     0.000 O
ATOM     61   O  ASG B   4      17.983  51.886  45.1400  0.00  0.00     0.000 OA
ATOM     62   O  ASG B   4      19.138  53.862  44.4840  0.00  0.00     0.000 OA
ATOM     63   O  ASG B   4      19.519  51.834  43.2760  0.00  0.00     0.000 OA
ATOM     64   S  ASG B   4      19.152  52.451  44.5550  0.00  0.00     0.000 S
ENDBRANCH 52 60
ATOM     65   O  ASG B   4      20.528  47.895  43.4630  0.00  0.00     0.000 O
ATOM     67  HD  ASG B   4      21.235  48.117  43.0150  0.00  0.00     0.000 HD
ATOM     67   O  ASG B   4      20.528  47.895  43.4630  0.00  0.00     0.000 O
ATOM     69  HD  ASG B   4      21.235  48.117  43.0150  0.00  0.00     0.000 HD
ENDBRANCH 48 51
ENDBRANCH 35 48
ENDBRANCH 34 38
ENDBRANCH 15 34
ENDBRANCH 14 17
ENDBRANCH 1 14
TORSDOF 12
ENDMDL
MODEL 60
REMARK VINA RESULT:      -6.9     22.763     29.558
ROOT
ATOM      1  C1  GAD B   1      16.041  26.276  64.5840  0.00  0.00     0.000 C
ATOM      2  C2  GAD B   1      15.126  25.305  65.3360  0.00  0.00     0.000 C
ATOM      3  C3  GAD B   1      14.906  25.795  66.7720  0.00  0.00     0.000 C
ATOM      4  C4  GAD B   1      16.094  26.550  67.3750  0.00  0.00     0.000 C
ATOM      5  C5  GAD B   1      17.193  26.911  66.6840  0.00  0.00     0.000 C
ATOM      6  O5  GAD B   1      17.261  26.514  65.3010  0.00  0.00     0.000 O
ATOM      7   O  GAD B   1      13.863  25.082  64.6080  0.00  0.00     0.000 O
ATOM      9  HD  GAD B   1      14.328  25.443  63.9730  0.00  0.00     0.000 HD
ATOM      9   O  GAD B   1      14.631  24.698  67.6720  0.00  0.00     0.000 O
ATOM     11  HD  GAD B   1      15.096  25.059  67.0370  0.00  0.00     0.000 HD
ENDROOT
BRANCH 5 11
ATOM     11   C  GAD B   1      18.300  27.733  67.2280  0.00  0.00     0.000 C
ATOM     12   O  GAD B   1      19.420  27.655  66.6340  0.00  0.00     0.000 OA
ATOM     13   O  GAD B   1      18.127  28.419  68.3020  0.00  0.00     0.000 OA
ENDBRANCH 5 11
BRANCH 1 14
ATOM     14  O3  ASG B   2      16.747  25.945  63.4860  0.00  0.00     0.000 O
BRANCH 14 17
ATOM     15  C1  ASG B   2      20.092  26.960  62.0490  0.00  0.00     0.000 C
ATOM     16  C2  ASG B   2      18.569  27.001  62.2390  0.00  0.00     0.000 C
ATOM     17  C3  ASG B   2      18.163  25.945  63.2710  0.00  0.00     0.000 C
ATOM     18  C4  ASG B   2      18.608  24.570  62.8090  0.00  0.00     0.000 C
ATOM     19  C5  ASG B   2      20.104  24.605  62.5130  0.00  0.00     0.000 C
ATOM     20  O5  ASG B   2      20.398  25.661  61.5770  0.00  0.00     0.000 O
ATOM     21   C  ASG B   2      20.601  23.338  61.8930  0.00  0.00     0.000 C
ATOM     22   O  ASG B   2      21.925  23.521  61.4560  0.00  0.00     0.000 O
ATOM     24  HD  ASG B   2      22.732  23.489  61.1430  0.00  0.00     0.000 HD
BRANCH 16 26
ATOM     24   N  ASG B   2      18.050  28.310  62.5590  0.00  0.00     0.000 N
ATOM     26  HD  ASG B   2      18.783  28.200  62.1110  0.00  0.00     0.000 HD
ATOM     26   C  ASG B   2      16.846  28.761  62.1600  0.00  0.00     0.000 C
ATOM     27   C  ASG B   2      16.337  29.976  62.8570  0.00  0.00     0.000 C
ATOM     28   O  ASG B   2      16.209  28.202  61.2760  0.00  0.00     0.000 OA
ENDBRANCH 16 26
BRANCH 18 29
ATOM     29   O  ASG B   2      17.800  24.246  61.6260  0.00  0.00     0.000 O
ATOM     30   O  ASG B   2      17.509  21.879  62.2240  0.00  0.00     0.000 OA
ATOM     31   O  ASG B   2      15.655  23.427  62.4680  0.00  0.00     0.000 OA
ATOM     32   O  ASG B   2      16.425  22.800  60.2640  0.00  0.00     0.000 OA
ATOM     33   S  ASG B   2      16.781  23.004  61.6680  0.00  0.00     0.000 S
ENDBRANCH 18 29
BRANCH 15 34
ATOM     34  O4  ASG B   3      20.568  27.895  61.1250  0.00  0.00     0.000 O
BRANCH 34 38
ATOM     35  C1  GCT B   3      21.570  29.041  57.3770  0.00  0.00     0.000 C
ATOM     36  C2  GCT B   3      20.089  28.796  57.5700  0.00  0.00     0.000 C
ATOM     37  C3  GCT B   3      19.728  28.802  59.0490  0.00  0.00     0.000 C
ATOM     38  C4  GCT B   3      20.523  27.704  59.7670  0.00  0.00     0.000 C
ATOM     39  C5  GCT B   3      21.926  27.507  59.1500  0.00  0.00     0.000 C
ATOM     40  O5  GCT B   3      22.290  28.746  58.5680  0.00  0.00     0.000 O
ATOM     41   O  GCT B   3      19.414  29.846  56.8940  0.00  0.00     0.000 O
ATOM     43  HD  GCT B   3      19.257  29.990  56.0540  0.00  0.00     0.000 HD
ATOM     43   O  GCT B   3      18.300  28.634  59.1740  0.00  0.00     0.000 O
ATOM     45  HD  GCT B   3      18.143  28.778  58.3350  0.00  0.00     0.000 HD
BRANCH 39 45
ATOM     45   C  GCT B   3      22.117  26.402  58.1340  0.00  0.00     0.000 C
ATOM     46   O  GCT B   3      23.257  26.233  57.5980  0.00  0.00     0.000 OA
ATOM     47   O  GCT B   3      21.138  25.684  57.8710  0.00  0.00     0.000 OA
ENDBRANCH 39 45
BRANCH 35 48
ATOM     48  O3  ASG B   4      21.896  28.770  56.1310  0.00  0.00     0.000 O
BRANCH 48 51
ATOM     49  C1  ASG B   4      23.102  30.680  53.2000  0.00  0.00     0.000 C
ATOM     50  C2  ASG B   4      22.463  29.551  54.0260  0.00  0.00     0.000 C
ATOM     51  C3  ASG B   4      22.267  29.973  55.4800  0.00  0.00     0.000 C
ATOM     52  C4  ASG B   4      23.544  30.556  56.0610  0.00  0.00     0.000 C
ATOM     53  C5  ASG B   4      24.011  31.685  55.1450  0.00  0.00     0.000 C
ATOM     54  O5  ASG B   4      24.281  31.148  53.8350  0.00  0.00     0.000 O
BRANCH 50 57
ATOM     55   N  ASG B   4      21.734  28.321  54.2360  0.00  0.00     0.000 N
ATOM     57  HD  ASG B   4      21.493  28.189  53.4140  0.00  0.00     0.000 HD
ATOM     57   O  ASG B   4      22.055  27.551  52.1570  0.00  0.00     0.000 OA
ATOM     58   C  ASG B   4      21.675  27.360  53.3080  0.00  0.00     0.000 C
ATOM     59   C  ASG B   4      21.067  26.066  53.7550  0.00  0.00     0.000 C
ENDBRANCH 50 57
BRANCH 52 60
ATOM     60   O  ASG B   4      24.463  29.390  56.1210  0.00  0.00     0.000 O
ATOM     61   O  ASG B   4      25.352  30.043  58.3600  0.00  0.00     0.000 OA
ATOM     62   O  ASG B   4      26.027  27.985  57.3710  0.00  0.00     0.000 OA
ATOM     63   O  ASG B   4      26.649  30.042  56.3220  0.00  0.00     0.000 OA
ATOM     64   S  ASG B   4      25.678  29.339  57.1660  0.00  0.00     0.000 S
ENDBRANCH 52 60
ATOM     65   O  ASG B   4      25.425  33.641  54.9160  0.00  0.00     0.000 O
ATOM     67  HD  ASG B   4      25.700  33.356  54.1460  0.00  0.00     0.000 HD
ATOM     67   O  ASG B   4      25.425  33.641  54.9160  0.00  0.00     0.000 O
ATOM     69  HD  ASG B   4      25.700  33.356  54.1460  0.00  0.00     0.000 HD
ENDBRANCH 48 51
ENDBRANCH 35 48
ENDBRANCH 34 38
ENDBRANCH 15 34
ENDBRANCH 14 17
ENDBRANCH 1 14
TORSDOF 12
ENDMDL
MODEL 61
REMARK VINA RESULT:      -6.9      3.218     11.177
ROOT
ATOM      1  C1  GAD B   1      23.235  35.265  40.0210  0.00  0.00     0.000 C
ATOM      2  C2  GAD B   1      23.094  33.742  39.9380  0.00  0.00     0.000 C
ATOM      3  C3  GAD B   1      23.954  33.074  41.0170  0.00  0.00     0.000 C
ATOM      4  C4  GAD B   1      25.236  33.833  41.3680  0.00  0.00     0.000 C
ATOM      5  C5  GAD B   1      25.541  35.062  40.9070  0.00  0.00     0.000 C
ATOM      6  O5  GAD B   1      24.612  35.670  39.9890  0.00  0.00     0.000 O
ATOM      7   O  GAD B   1      21.679  33.329  39.9960  0.00  0.00     0.000 O
ATOM      9  HD  GAD B   1      21.572  34.172  39.8280  0.00  0.00     0.000 HD
ATOM      9   O  GAD B   1      24.369  31.748  40.6200  0.00  0.00     0.000 O
ATOM     11  HD  GAD B   1      24.262  32.591  40.4520  0.00  0.00     0.000 HD
ENDROOT
BRANCH 5 11
ATOM     11   C  GAD B   1      26.726  35.849  41.3230  0.00  0.00     0.000 C
ATOM     12   O  GAD B   1      27.469  36.301  40.3980  0.00  0.00     0.000 OA
ATOM     13   O  GAD B   1      27.009  35.981  42.5710  0.00  0.00     0.000 OA
ENDBRANCH 5 11
BRANCH 1 14
ATOM     14  O3  ASG B   2      22.963  36.102  39.0030  0.00  0.00     0.000 O
BRANCH 14 17
ATOM     15  C1  ASG B   2      20.068  36.971  36.7350  0.00  0.00     0.000 C
ATOM     16  C2  ASG B   2      21.415  36.344  37.1240  0.00  0.00     0.000 C
ATOM     17  C3  ASG B   2      21.714  36.670  38.5900  0.00  0.00     0.000 C
ATOM     18  C4  ASG B   2      21.746  38.173  38.7910  0.00  0.00     0.000 C
ATOM     19  C5  ASG B   2      20.441  38.772  38.2770  0.00  0.00     0.000 C
ATOM     20  O5  ASG B   2      20.215  38.367  36.9120  0.00  0.00     0.000 O
ATOM     21   C  ASG B   2      20.449  40.267  38.2820  0.00  0.00     0.000 C
ATOM     22   O  ASG B   2      19.311  40.741  37.6030  0.00  0.00     0.000 O
ATOM     24  HD  ASG B   2      18.664  41.170  37.2200  0.00  0.00     0.000 HD
BRANCH 16 26
ATOM     24   N  ASG B   2      21.496  34.945  36.7720  0.00  0.00     0.000 N
ATOM     26  HD  ASG B   2      21.035  35.512  36.3080  0.00  0.00     0.000 HD
ATOM     26   C  ASG B   2      22.644  34.308  36.4770  0.00  0.00     0.000 C
ATOM     27   C  ASG B   2      22.587  32.819  36.4780  0.00  0.00     0.000 C
ATOM     28   O  ASG B   2      23.674  34.921  36.2250  0.00  0.00     0.000 OA
ENDBRANCH 16 26
BRANCH 18 29
ATOM     29   O  ASG B   2      22.924  38.666  38.0640  0.00  0.00     0.000 O
ATOM     30   O  ASG B   2      23.320  40.559  39.5810  0.00  0.00     0.000 OA
ATOM     31   O  ASG B   2      24.778  38.620  39.6580  0.00  0.00     0.000 OA
ATOM     32   O  ASG B   2      24.839  40.105  37.7510  0.00  0.00     0.000 OA
ATOM     33   S  ASG B   2      24.032  39.540  38.8320  0.00  0.00     0.000 S
ENDBRANCH 18 29
BRANCH 15 34
ATOM     34  O4  ASG B   3      19.697  36.726  35.4080  0.00  0.00     0.000 O
BRANCH 34 38
ATOM     35  C1  GCT B   3      17.017  37.753  32.5570  0.00  0.00     0.000 C
ATOM     36  C2  GCT B   3      18.430  38.211  32.2680  0.00  0.00     0.000 C
ATOM     37  C3  GCT B   3      19.433  37.443  33.1160  0.00  0.00     0.000 C
ATOM     38  C4  GCT B   3      19.119  37.672  34.6000  0.00  0.00     0.000 C
ATOM     39  C5  GCT B   3      17.602  37.821  34.8550  0.00  0.00     0.000 C
ATOM     40  O5  GCT B   3      16.946  37.105  33.8220  0.00  0.00     0.000 O
ATOM     41   O  GCT B   3      18.660  37.964  30.8880  0.00  0.00     0.000 O
ATOM     43  HD  GCT B   3      18.404  38.380  30.1730  0.00  0.00     0.000 HD
ATOM     43   O  GCT B   3      20.764  37.867  32.7530  0.00  0.00     0.000 O
ATOM     45  HD  GCT B   3      20.507  38.283  32.0380  0.00  0.00     0.000 HD
BRANCH 39 45
ATOM     45   C  GCT B   3      17.021  39.215  34.9440  0.00  0.00     0.000 C
ATOM     46   O  GCT B   3      15.762  39.365  35.0420  0.00  0.00     0.000 OA
ATOM     47   O  GCT B   3      17.811  40.173  34.9320  0.00  0.00     0.000 OA
ENDBRANCH 39 45
BRANCH 35 48
ATOM     48  O3  ASG B   4      16.167  38.600  32.0180  0.00  0.00     0.000 O
BRANCH 48 51
ATOM     49  C1  ASG B   4      13.469  36.905  30.1360  0.00  0.00     0.000 C
ATOM     50  C2  ASG B   4      14.872  37.414  30.5090  0.00  0.00     0.000 C
ATOM     51  C3  ASG B   4      14.895  37.980  31.9260  0.00  0.00     0.000 C
ATOM     52  C4  ASG B   4      13.768  38.977  32.1390  0.00  0.00     0.000 C
ATOM     53  C5  ASG B   4      12.455  38.295  31.7650  0.00  0.00     0.000 C
ATOM     54  O5  ASG B   4      12.500  37.912  30.3770  0.00  0.00     0.000 O
BRANCH 50 57
ATOM     55   N  ASG B   4      15.394  38.362  29.5520  0.00  0.00     0.000 N
ATOM     57  HD  ASG B   4      16.074  37.896  29.2880  0.00  0.00     0.000 HD
ATOM     57   O  ASG B   4      16.380  36.816  28.2660  0.00  0.00     0.000 OA
ATOM     58   C  ASG B   4      16.025  37.978  28.4380  0.00  0.00     0.000 C
ATOM     59   C  ASG B   4      16.313  39.065  27.4490  0.00  0.00     0.000 C
ENDBRANCH 50 57
BRANCH 52 60
ATOM     60   O  ASG B   4      14.142  40.118  31.2640  0.00  0.00     0.000 O
ATOM     61   O  ASG B   4      14.387  41.684  33.1920  0.00  0.00     0.000 OA
ATOM     62   O  ASG B   4      14.965  42.406  30.9980  0.00  0.00     0.000 OA
ATOM     63   O  ASG B   4      12.686  41.871  31.4870  0.00  0.00     0.000 OA
ATOM     64   S  ASG B   4      14.098  41.628  31.7980  0.00  0.00     0.000 S
ENDBRANCH 52 60
ATOM     65   O  ASG B   4      10.036  38.347  31.9370  0.00  0.00     0.000 O
ATOM     67  HD  ASG B   4       9.969  38.190  31.0880  0.00  0.00     0.000 HD
ATOM     67   O  ASG B   4      10.036  38.347  31.9370  0.00  0.00     0.000 O
ATOM     69  HD  ASG B   4       9.969  38.190  31.0880  0.00  0.00     0.000 HD
ENDBRANCH 48 51
ENDBRANCH 35 48
ENDBRANCH 34 38
ENDBRANCH 15 34
ENDBRANCH 14 17
ENDBRANCH 1 14
TORSDOF 12
ENDMDL
MODEL 62
REMARK VINA RESULT:      -6.9     19.180     23.395
ROOT
ATOM      1  C1  GAD B   1      20.264  50.973  46.5820  0.00  0.00     0.000 C
ATOM      2  C2  GAD B   1      19.608  51.329  45.2450  0.00  0.00     0.000 C
ATOM      3  C3  GAD B   1      20.227  50.496  44.1160  0.00  0.00     0.000 C
ATOM      4  C4  GAD B   1      21.705  50.149  44.3200  0.00  0.00     0.000 C
ATOM      5  C5  GAD B   1      22.393  50.397  45.4520  0.00  0.00     0.000 C
ATOM      6  O5  GAD B   1      21.694  51.077  46.5120  0.00  0.00     0.000 O
ATOM      7   O  GAD B   1      18.140  51.197  45.3130  0.00  0.00     0.000 O
ATOM      9  HD  GAD B   1      18.321  51.189  46.1600  0.00  0.00     0.000 HD
ATOM      9   O  GAD B   1      20.149  51.181  42.8460  0.00  0.00     0.000 O
ATOM     11  HD  GAD B   1      20.330  51.173  43.6930  0.00  0.00     0.000 HD
ENDROOT
BRANCH 5 11
ATOM     11   C  GAD B   1      23.791  49.971  45.7000  0.00  0.00     0.000 C
ATOM     12   O  GAD B   1      23.970  49.073  46.5790  0.00  0.00     0.000 OA
ATOM     13   O  GAD B   1      24.762  50.559  45.0960  0.00  0.00     0.000 OA
ENDBRANCH 5 11
BRANCH 1 14
ATOM     14  O3  ASG B   2      20.256  51.778  47.6610  0.00  0.00     0.000 O
BRANCH 14 17
ATOM     15  C1  ASG B   2      18.435  54.849  48.8970  0.00  0.00     0.000 C
ATOM     16  C2  ASG B   2      19.605  54.045  48.3130  0.00  0.00     0.000 C
ATOM     17  C3  ASG B   2      19.196  52.572  48.2060  0.00  0.00     0.000 C
ATOM     18  C4  ASG B   2      18.810  52.040  49.5730  0.00  0.00     0.000 C
ATOM     19  C5  ASG B   2      17.734  52.940  50.1720  0.00  0.00     0.000 C
ATOM     20  O5  ASG B   2      18.185  54.309  50.1810  0.00  0.00     0.000 O
ATOM     21   C  ASG B   2      17.410  52.590  51.5890  0.00  0.00     0.000 C
ATOM     22   O  ASG B   2      16.577  53.583  52.1360  0.00  0.00     0.000 O
ATOM     24  HD  ASG B   2      16.068  54.110  52.5970  0.00  0.00     0.000 HD
BRANCH 16 26
ATOM     24   N  ASG B   2      20.111  54.547  47.0570  0.00  0.00     0.000 N
ATOM     26  HD  ASG B   2      19.704  55.055  47.6280  0.00  0.00     0.000 HD
ATOM     26   C  ASG B   2      21.407  54.506  46.6970  0.00  0.00     0.000 C
ATOM     27   C  ASG B   2      21.694  54.746  45.2540  0.00  0.00     0.000 C
ATOM     28   O  ASG B   2      22.295  54.282  47.5100  0.00  0.00     0.000 OA
ENDBRANCH 16 26
BRANCH 18 29
ATOM     29   O  ASG B   2      20.042  52.015  50.3730  0.00  0.00     0.000 O
ATOM     30   O  ASG B   2      19.478  49.928  51.5440  0.00  0.00     0.000 OA
ATOM     31   O  ASG B   2      21.178  49.923  49.8110  0.00  0.00     0.000 OA
ATOM     32   O  ASG B   2      21.606  51.019  51.9220  0.00  0.00     0.000 OA
ATOM     33   S  ASG B   2      20.601  50.618  50.9380  0.00  0.00     0.000 S
ENDBRANCH 18 29
BRANCH 15 34
ATOM     34  O4  ASG B   3      18.705  56.215  49.0320  0.00  0.00     0.000 O
BRANCH 34 38
ATOM     35  C1  GCT B   3      14.927  57.576  48.5480  0.00  0.00     0.000 C
ATOM     36  C2  GCT B   3      15.788  57.696  47.3100  0.00  0.00     0.000 C
ATOM     37  C3  GCT B   3      17.011  56.796  47.4110  0.00  0.00     0.000 C
ATOM     38  C4  GCT B   3      17.833  57.199  48.6420  0.00  0.00     0.000 C
ATOM     39  C5  GCT B   3      16.937  57.691  49.8010  0.00  0.00     0.000 C
ATOM     40  O5  GCT B   3      15.681  57.057  49.6380  0.00  0.00     0.000 O
ATOM     41   O  GCT B   3      14.976  57.301  46.2130  0.00  0.00     0.000 O
ATOM     43  HD  GCT B   3      14.342  57.707  45.7840  0.00  0.00     0.000 HD
ATOM     43   O  GCT B   3      17.759  56.895  46.1800  0.00  0.00     0.000 O
ATOM     45  HD  GCT B   3      17.125  57.301  45.7510  0.00  0.00     0.000 HD
BRANCH 39 45
ATOM     45   C  GCT B   3      16.729  59.180  49.9690  0.00  0.00     0.000 C
ATOM     46   O  GCT B   3      16.038  59.611  50.9450  0.00  0.00     0.000 OA
ATOM     47   O  GCT B   3      17.262  59.935  49.1390  0.00  0.00     0.000 OA
ENDBRANCH 39 45
BRANCH 35 48
ATOM     48  O3  ASG B   4      14.034  58.543  48.5530  0.00  0.00     0.000 O
BRANCH 48 51
ATOM     49  C1  ASG B   4      10.341  58.379  48.3980  0.00  0.00     0.000 C
ATOM     50  C2  ASG B   4      11.795  58.651  47.9750  0.00  0.00     0.000 C
ATOM     51  C3  ASG B   4      12.782  58.012  48.9490  0.00  0.00     0.000 C
ATOM     52  C4  ASG B   4      12.448  58.374  50.3870  0.00  0.00     0.000 C
ATOM     53  C5  ASG B   4      10.991  57.999  50.6450  0.00  0.00     0.000 C
ATOM     54  O5  ASG B   4      10.145  58.750  49.7530  0.00  0.00     0.000 O
BRANCH 50 57
ATOM     55   N  ASG B   4      11.848  58.111  46.6360  0.00  0.00     0.000 N
ATOM     57  HD  ASG B   4      11.352  58.709  46.2520  0.00  0.00     0.000 HD
ATOM     57   O  ASG B   4      11.514  60.080  45.6220  0.00  0.00     0.000 OA
ATOM     58   C  ASG B   4      11.807  58.890  45.5510  0.00  0.00     0.000 C
ATOM     59   C  ASG B   4      12.087  58.203  44.2500  0.00  0.00     0.000 C
ENDBRANCH 50 57
BRANCH 52 60
ATOM     60   O  ASG B   4      12.732  59.831  50.4540  0.00  0.00     0.000 O
ATOM     61   O  ASG B   4      13.264  59.746  52.8910  0.00  0.00     0.000 OA
ATOM     62   O  ASG B   4      13.567  61.775  51.6820  0.00  0.00     0.000 OA
ATOM     63   O  ASG B   4      11.360  60.895  51.9480  0.00  0.00     0.000 OA
ATOM     64   S  ASG B   4      12.794  60.605  51.8560  0.00  0.00     0.000 S
ENDBRANCH 52 60
ATOM     65   O  ASG B   4       9.286  57.570  52.3140  0.00  0.00     0.000 O
ATOM     67  HD  ASG B   4       8.728  58.068  51.8780  0.00  0.00     0.000 HD
ATOM     67   O  ASG B   4       9.286  57.570  52.3140  0.00  0.00     0.000 O
ATOM     69  HD  ASG B   4       8.728  58.068  51.8780  0.00  0.00     0.000 HD
ENDBRANCH 48 51
ENDBRANCH 35 48
ENDBRANCH 34 38
ENDBRANCH 15 34
ENDBRANCH 14 17
ENDBRANCH 1 14
TORSDOF 12
ENDMDL
MODEL 63
REMARK VINA RESULT:      -6.9     28.774     33.566
ROOT
ATOM      1  C1  GAD B   1      18.817  30.752  64.7230  0.00  0.00     0.000 C
ATOM      2  C2  GAD B   1      19.537  31.169  66.0100  0.00  0.00     0.000 C
ATOM      3  C3  GAD B   1      19.861  32.668  65.9690  0.00  0.00     0.000 C
ATOM      4  C4  GAD B   1      20.146  33.218  64.5690  0.00  0.00     0.000 C
ATOM      5  C5  GAD B   1      19.981  32.516  63.4300  0.00  0.00     0.000 C
ATOM      6  O5  GAD B   1      19.553  31.147  63.5560  0.00  0.00     0.000 O
ATOM      7   O  GAD B   1      18.765  30.783  67.2070  0.00  0.00     0.000 O
ATOM      9  HD  GAD B   1      18.360  30.297  66.6160  0.00  0.00     0.000 HD
ATOM      9   O  GAD B   1      21.024  32.981  66.7670  0.00  0.00     0.000 O
ATOM     11  HD  GAD B   1      20.619  32.494  66.1760  0.00  0.00     0.000 HD
ENDROOT
BRANCH 5 11
ATOM     11   C  GAD B   1      20.151  33.070  62.0660  0.00  0.00     0.000 C
ATOM     12   O  GAD B   1      20.856  32.394  61.2540  0.00  0.00     0.000 OA
ATOM     13   O  GAD B   1      19.665  34.224  61.7720  0.00  0.00     0.000 OA
ENDBRANCH 5 11
BRANCH 1 14
ATOM     14  O3  ASG B   2      18.768  29.486  64.2670  0.00  0.00     0.000 O
BRANCH 14 17
ATOM     15  C1  ASG B   2      17.866  25.984  65.3630  0.00  0.00     0.000 C
ATOM     16  C2  ASG B   2      18.788  27.125  64.9090  0.00  0.00     0.000 C
ATOM     17  C3  ASG B   2      17.951  28.389  64.6900  0.00  0.00     0.000 C
ATOM     18  C4  ASG B   2      16.875  28.125  63.6540  0.00  0.00     0.000 C
ATOM     19  C5  ASG B   2      16.059  26.908  64.0810  0.00  0.00     0.000 C
ATOM     20  O5  ASG B   2      16.934  25.787  64.3170  0.00  0.00     0.000 O
ATOM     21   C  ASG B   2      15.081  26.472  63.0380  0.00  0.00     0.000 C
ATOM     22   O  ASG B   2      14.526  25.234  63.4080  0.00  0.00     0.000 O
ATOM     24  HD  ASG B   2      14.104  24.485  63.5090  0.00  0.00     0.000 HD
BRANCH 16 26
ATOM     24   N  ASG B   2      19.870  27.516  65.7810  0.00  0.00     0.000 N
ATOM     26  HD  ASG B   2      19.451  26.764  65.8740  0.00  0.00     0.000 HD
ATOM     26   C  ASG B   2      21.124  27.767  65.3600  0.00  0.00     0.000 C
ATOM     27   C  ASG B   2      22.009  28.480  66.3230  0.00  0.00     0.000 C
ATOM     28   O  ASG B   2      21.510  27.428  64.2480  0.00  0.00     0.000 OA
ENDBRANCH 16 26
BRANCH 18 29
ATOM     29   O  ASG B   2      17.568  27.927  62.3740  0.00  0.00     0.000 O
ATOM     30   O  ASG B   2      15.690  28.724  61.0020  0.00  0.00     0.000 OA
ATOM     31   O  ASG B   2      17.654  30.120  61.2970  0.00  0.00     0.000 OA
ATOM     32   O  ASG B   2      17.793  28.101  59.9750  0.00  0.00     0.000 OA
ATOM     33   S  ASG B   2      17.137  28.788  61.0880  0.00  0.00     0.000 S
ENDBRANCH 18 29
BRANCH 15 34
ATOM     34  O4  ASG B   3      18.537  24.779  65.5970  0.00  0.00     0.000 O
BRANCH 34 38
ATOM     35  C1  GCT B   3      19.420  21.042  64.3240  0.00  0.00     0.000 C
ATOM     36  C2  GCT B   3      20.466  22.077  63.9680  0.00  0.00     0.000 C
ATOM     37  C3  GCT B   3      20.305  23.325  64.8240  0.00  0.00     0.000 C
ATOM     38  C4  GCT B   3      18.908  23.916  64.5970  0.00  0.00     0.000 C
ATOM     39  C5  GCT B   3      17.850  22.820  64.3380  0.00  0.00     0.000 C
ATOM     40  O5  GCT B   3      18.315  21.648  64.9850  0.00  0.00     0.000 O
ATOM     41   O  GCT B   3      21.729  21.474  64.2090  0.00  0.00     0.000 O
ATOM     43  HD  GCT B   3      22.188  20.890  63.7630  0.00  0.00     0.000 HD
ATOM     43   O  GCT B   3      21.365  24.248  64.4950  0.00  0.00     0.000 O
ATOM     45  HD  GCT B   3      21.824  23.665  64.0490  0.00  0.00     0.000 HD
BRANCH 39 45
ATOM     45   C  GCT B   3      17.490  22.491  62.9060  0.00  0.00     0.000 C
ATOM     46   O  GCT B   3      18.106  23.069  61.9560  0.00  0.00     0.000 OA
ATOM     47   O  GCT B   3      16.601  21.646  62.7130  0.00  0.00     0.000 OA
ENDBRANCH 39 45
BRANCH 35 48
ATOM     48  O3  ASG B   4      19.413  20.099  63.4060  0.00  0.00     0.000 O
BRANCH 48 51
ATOM     49  C1  ASG B   4      18.873  16.697  64.7570  0.00  0.00     0.000 C
ATOM     50  C2  ASG B   4      19.566  18.033  64.4390  0.00  0.00     0.000 C
ATOM     51  C3  ASG B   4      18.583  19.037  63.8440  0.00  0.00     0.000 C
ATOM     52  C4  ASG B   4      17.800  18.425  62.6940  0.00  0.00     0.000 C
ATOM     53  C5  ASG B   4      17.147  17.140  63.1950  0.00  0.00     0.000 C
ATOM     54  O5  ASG B   4      18.174  16.222  63.6180  0.00  0.00     0.000 O
BRANCH 50 57
ATOM     55   N  ASG B   4      20.735  17.903  63.6000  0.00  0.00     0.000 N
ATOM     57  HD  ASG B   4      21.320  18.185  64.1740  0.00  0.00     0.000 HD
ATOM     57   O  ASG B   4      22.163  17.621  65.3020  0.00  0.00     0.000 OA
ATOM     58   C  ASG B   4      21.939  17.600  64.0960  0.00  0.00     0.000 C
ATOM     59   C  ASG B   4      22.997  17.290  63.0830  0.00  0.00     0.000 C
ENDBRANCH 50 57
BRANCH 52 60
ATOM     60   O  ASG B   4      18.829  18.225  61.6410  0.00  0.00     0.000 O
ATOM     61   O  ASG B   4      17.841  19.977  60.1630  0.00  0.00     0.000 OA
ATOM     62   O  ASG B   4      19.889  18.927  59.5510  0.00  0.00     0.000 OA
ATOM     63   O  ASG B   4      17.889  17.619  59.6420  0.00  0.00     0.000 OA
ATOM     64   S  ASG B   4      18.618  18.783  60.1530  0.00  0.00     0.000 S
ENDBRANCH 52 60
ATOM     65   O  ASG B   4      15.446  15.456  62.8010  0.00  0.00     0.000 O
ATOM     67  HD  ASG B   4      16.021  14.831  62.9700  0.00  0.00     0.000 HD
ATOM     67   O  ASG B   4      15.446  15.456  62.8010  0.00  0.00     0.000 O
ATOM     69  HD  ASG B   4      16.021  14.831  62.9700  0.00  0.00     0.000 HD
ENDBRANCH 48 51
ENDBRANCH 35 48
ENDBRANCH 34 38
ENDBRANCH 15 34
ENDBRANCH 14 17
ENDBRANCH 1 14
TORSDOF 12
ENDMDL
MODEL 64
REMARK VINA RESULT:      -6.9     23.835     27.542
ROOT
ATOM      1  C1  GAD B   1      19.222  52.436  50.7490  0.00  0.00     0.000 C
ATOM      2  C2  GAD B   1      17.789  52.278  50.2310  0.00  0.00     0.000 C
ATOM      3  C3  GAD B   1      17.730  52.604  48.7340  0.00  0.00     0.000 C
ATOM      4  C4  GAD B   1      18.731  53.668  48.2760  0.00  0.00     0.000 C
ATOM      5  C5  GAD B   1      19.703  54.182  49.0570  0.00  0.00     0.000 C
ATOM      6  O5  GAD B   1      19.761  53.726  50.4220  0.00  0.00     0.000 O
ATOM      7   O  GAD B   1      17.247  50.943  50.5480  0.00  0.00     0.000 O
ATOM      9  HD  GAD B   1      17.929  50.947  51.0810  0.00  0.00     0.000 HD
ATOM      9   O  GAD B   1      16.425  53.089  48.3470  0.00  0.00     0.000 O
ATOM     11  HD  GAD B   1      17.108  53.093  48.8800  0.00  0.00     0.000 HD
ENDROOT
BRANCH 5 11
ATOM     11   C  GAD B   1      20.741  55.132  48.5940  0.00  0.00     0.000 C
ATOM     12   O  GAD B   1      21.807  55.200  49.2830  0.00  0.00     0.000 OA
ATOM     13   O  GAD B   1      20.514  55.899  47.5870  0.00  0.00     0.000 OA
ENDBRANCH 5 11
BRANCH 1 14
ATOM     14  O3  ASG B   2      19.536  52.630  52.0430  0.00  0.00     0.000 O
BRANCH 14 17
ATOM     15  C1  ASG B   2      18.090  52.048  55.4850  0.00  0.00     0.000 C
ATOM     16  C2  ASG B   2      18.533  52.864  54.2630  0.00  0.00     0.000 C
ATOM     17  C3  ASG B   2      19.110  51.915  53.2090  0.00  0.00     0.000 C
ATOM     18  C4  ASG B   2      20.280  51.145  53.7900  0.00  0.00     0.000 C
ATOM     19  C5  ASG B   2      19.832  50.449  55.0710  0.00  0.00     0.000 C
ATOM     20  O5  ASG B   2      19.253  51.409  55.9770  0.00  0.00     0.000 O
ATOM     21   C  ASG B   2      20.962  49.800  55.8040  0.00  0.00     0.000 C
ATOM     22   O  ASG B   2      20.513  49.370  57.0660  0.00  0.00     0.000 O
ATOM     24  HD  ASG B   2      20.378  49.055  57.8610  0.00  0.00     0.000 HD
BRANCH 16 26
ATOM     24   N  ASG B   2      17.535  53.664  53.5900  0.00  0.00     0.000 N
ATOM     26  HD  ASG B   2      17.420  53.360  54.3930  0.00  0.00     0.000 HD
ATOM     26   C  ASG B   2      17.744  54.921  53.1570  0.00  0.00     0.000 C
ATOM     27   C  ASG B   2      16.739  55.458  52.1970  0.00  0.00     0.000 C
ATOM     28   O  ASG B   2      18.706  55.580  53.5320  0.00  0.00     0.000 OA
ENDBRANCH 16 26
BRANCH 18 29
ATOM     29   O  ASG B   2      21.352  52.124  54.0180  0.00  0.00     0.000 O
ATOM     30   O  ASG B   2      23.171  50.563  53.4710  0.00  0.00     0.000 OA
ATOM     31   O  ASG B   2      22.565  52.314  51.9040  0.00  0.00     0.000 OA
ATOM     32   O  ASG B   2      23.647  52.880  53.9900  0.00  0.00     0.000 OA
ATOM     33   S  ASG B   2      22.770  51.945  53.2840  0.00  0.00     0.000 S
ENDBRANCH 18 29
BRANCH 15 34
ATOM     34  O4  ASG B   3      17.540  52.826  56.5100  0.00  0.00     0.000 O
BRANCH 34 38
ATOM     35  C1  GCT B   3      17.120  53.306  60.5050  0.00  0.00     0.000 C
ATOM     36  C2  GCT B   3      18.133  54.238  59.8760  0.00  0.00     0.000 C
ATOM     37  C3  GCT B   3      17.933  54.318  58.3690  0.00  0.00     0.000 C
ATOM     38  C4  GCT B   3      18.088  52.917  57.7650  0.00  0.00     0.000 C
ATOM     39  C5  GCT B   3      17.572  51.815  58.7170  0.00  0.00     0.000 C
ATOM     40  O5  GCT B   3      16.583  52.416  59.5340  0.00  0.00     0.000 O
ATOM     41   O  GCT B   3      17.931  55.513  60.4680  0.00  0.00     0.000 O
ATOM     43  HD  GCT B   3      18.149  55.836  61.2420  0.00  0.00     0.000 HD
ATOM     43   O  GCT B   3      18.875  55.269  57.8300  0.00  0.00     0.000 O
ATOM     45  HD  GCT B   3      19.094  55.591  58.6030  0.00  0.00     0.000 HD
BRANCH 39 45
ATOM     45   C  GCT B   3      18.574  51.094  59.5930  0.00  0.00     0.000 C
ATOM     46   O  GCT B   3      18.164  50.253  60.4540  0.00  0.00     0.000 OA
ATOM     47   O  GCT B   3      19.778  51.348  59.4240  0.00  0.00     0.000 OA
ENDBRANCH 39 45
BRANCH 35 48
ATOM     48  O3  ASG B   4      17.476  53.052  61.7460  0.00  0.00     0.000 O
BRANCH 48 51
ATOM     49  C1  ASG B   4      14.168  54.138  62.9990  0.00  0.00     0.000 C
ATOM     50  C2  ASG B   4      15.398  54.016  62.0840  0.00  0.00     0.000 C
ATOM     51  C3  ASG B   4      16.310  52.878  62.5330  0.00  0.00     0.000 C
ATOM     52  C4  ASG B   4      16.616  52.972  64.0190  0.00  0.00     0.000 C
ATOM     53  C5  ASG B   4      15.291  53.039  64.7730  0.00  0.00     0.000 C
ATOM     54  O5  ASG B   4      14.571  54.216  64.3570  0.00  0.00     0.000 O
BRANCH 50 57
ATOM     55   N  ASG B   4      14.152  54.294  61.4070  0.00  0.00     0.000 N
ATOM     57  HD  ASG B   4      14.295  55.132  61.2430  0.00  0.00     0.000 HD
ATOM     57   O  ASG B   4      14.970  55.980  60.1810  0.00  0.00     0.000 OA
ATOM     58   C  ASG B   4      14.059  55.194  60.4230  0.00  0.00     0.000 C
ATOM     59   C  ASG B   4      12.759  55.211  59.6810  0.00  0.00     0.000 C
ENDBRANCH 50 57
BRANCH 52 60
ATOM     60   O  ASG B   4      17.451  54.196  64.1250  0.00  0.00     0.000 O
ATOM     61   O  ASG B   4      18.908  53.205  65.8940  0.00  0.00     0.000 OA
ATOM     62   O  ASG B   4      19.429  55.346  64.9900  0.00  0.00     0.000 OA
ATOM     63   O  ASG B   4      17.410  55.069  66.2420  0.00  0.00     0.000 OA
ATOM     64   S  ASG B   4      18.417  54.440  65.3810  0.00  0.00     0.000 S
ENDBRANCH 52 60
ATOM     65   O  ASG B   4      14.175  52.800  66.9130  0.00  0.00     0.000 O
ATOM     67  HD  ASG B   4      13.750  53.542  66.7770  0.00  0.00     0.000 HD
ATOM     67   O  ASG B   4      14.175  52.800  66.9130  0.00  0.00     0.000 O
ATOM     69  HD  ASG B   4      13.750  53.542  66.7770  0.00  0.00     0.000 HD
ENDBRANCH 48 51
ENDBRANCH 35 48
ENDBRANCH 34 38
ENDBRANCH 15 34
ENDBRANCH 14 17
ENDBRANCH 1 14
TORSDOF 12
ENDMDL
MODEL 65
REMARK VINA RESULT:      -6.8     23.230     26.520
ROOT
ATOM      1  C1  GAD B   1      17.169  55.988  51.2390  0.00  0.00     0.000 C
ATOM      2  C2  GAD B   1      15.760  55.553  50.8250  0.00  0.00     0.000 C
ATOM      3  C3  GAD B   1      14.747  56.651  51.1700  0.00  0.00     0.000 C
ATOM      4  C4  GAD B   1      15.098  57.470  52.4150  0.00  0.00     0.000 C
ATOM      5  C5  GAD B   1      16.264  57.372  53.0850  0.00  0.00     0.000 C
ATOM      6  O5  GAD B   1      17.212  56.396  52.6150  0.00  0.00     0.000 O
ATOM      7   O  GAD B   1      15.715  55.158  49.4040  0.00  0.00     0.000 O
ATOM      9  HD  GAD B   1      16.573  55.150  49.5240  0.00  0.00     0.000 HD
ATOM      9   O  GAD B   1      13.431  56.104  51.4080  0.00  0.00     0.000 O
ATOM     11  HD  GAD B   1      14.289  56.096  51.5280  0.00  0.00     0.000 HD
ENDROOT
BRANCH 5 11
ATOM     11   C  GAD B   1      16.656  58.233  54.2250  0.00  0.00     0.000 C
ATOM     12   O  GAD B   1      17.069  59.402  53.9480  0.00  0.00     0.000 OA
ATOM     13   O  GAD B   1      16.648  57.763  55.4220  0.00  0.00     0.000 OA
ENDBRANCH 5 11
BRANCH 1 14
ATOM     14  O3  ASG B   2      18.186  55.133  51.4580  0.00  0.00     0.000 O
BRANCH 14 17
ATOM     15  C1  ASG B   2      19.569  52.675  53.9720  0.00  0.00     0.000 C
ATOM     16  C2  ASG B   2      19.558  53.930  53.0890  0.00  0.00     0.000 C
ATOM     17  C3  ASG B   2      18.247  53.975  52.2980  0.00  0.00     0.000 C
ATOM     18  C4  ASG B   2      18.110  52.723  51.4510  0.00  0.00     0.000 C
ATOM     19  C5  ASG B   2      18.252  51.497  52.3470  0.00  0.00     0.000 C
ATOM     20  O5  ASG B   2      19.484  51.570  53.0920  0.00  0.00     0.000 O
ATOM     21   C  ASG B   2      18.297  50.218  51.5750  0.00  0.00     0.000 C
ATOM     22   O  ASG B   2      18.640  49.163  52.4400  0.00  0.00     0.000 O
ATOM     24  HD  ASG B   2      18.838  48.427  52.8510  0.00  0.00     0.000 HD
BRANCH 16 26
ATOM     24   N  ASG B   2      19.821  55.153  53.8120  0.00  0.00     0.000 N
ATOM     26  HD  ASG B   2      20.128  54.386  54.0730  0.00  0.00     0.000 HD
ATOM     26   C  ASG B   2      20.461  56.215  53.2890  0.00  0.00     0.000 C
ATOM     27   C  ASG B   2      20.341  57.492  54.0470  0.00  0.00     0.000 C
ATOM     28   O  ASG B   2      21.103  56.131  52.2490  0.00  0.00     0.000 OA
ENDBRANCH 16 26
BRANCH 18 29
ATOM     29   O  ASG B   2      19.156  52.801  50.4210  0.00  0.00     0.000 O
ATOM     30   O  ASG B   2      17.835  51.638  48.7050  0.00  0.00     0.000 OA
ATOM     31   O  ASG B   2      18.180  54.035  48.5490  0.00  0.00     0.000 OA
ATOM     32   O  ASG B   2      20.029  52.520  48.1860  0.00  0.00     0.000 OA
ATOM     33   S  ASG B   2      18.754  52.748  48.8660  0.00  0.00     0.000 S
ENDBRANCH 18 29
BRANCH 15 34
ATOM     34  O4  ASG B   3      20.728  52.542  54.7450  0.00  0.00     0.000 O
BRANCH 34 38
ATOM     35  C1  GCT B   3      19.483  53.933  58.3340  0.00  0.00     0.000 C
ATOM     36  C2  GCT B   3      20.983  53.758  58.2270  0.00  0.00     0.000 C
ATOM     37  C3  GCT B   3      21.415  53.664  56.7710  0.00  0.00     0.000 C
ATOM     38  C4  GCT B   3      20.717  52.467  56.1150  0.00  0.00     0.000 C
ATOM     39  C5  GCT B   3      19.298  52.240  56.6830  0.00  0.00     0.000 C
ATOM     40  O5  GCT B   3      18.839  53.499  57.1410  0.00  0.00     0.000 O
ATOM     41   O  GCT B   3      21.566  54.899  58.8420  0.00  0.00     0.000 O
ATOM     43  HD  GCT B   3      21.674  55.120  59.6720  0.00  0.00     0.000 HD
ATOM     43   O  GCT B   3      22.854  53.570  56.7240  0.00  0.00     0.000 O
ATOM     45  HD  GCT B   3      22.962  53.791  57.5540  0.00  0.00     0.000 HD
BRANCH 39 45
ATOM     45   C  GCT B   3      19.118  51.213  57.7800  0.00  0.00     0.000 C
ATOM     46   O  GCT B   3      20.137  50.628  58.2650  0.00  0.00     0.000 OA
ATOM     47   O  GCT B   3      17.963  50.989  58.1790  0.00  0.00     0.000 OA
ENDBRANCH 39 45
BRANCH 35 48
ATOM     48  O3  ASG B   4      19.111  53.747  59.5820  0.00  0.00     0.000 O
BRANCH 48 51
ATOM     49  C1  ASG B   4      16.877  56.231  61.1720  0.00  0.00     0.000 C
ATOM     50  C2  ASG B   4      18.163  55.570  60.6490  0.00  0.00     0.000 C
ATOM     51  C3  ASG B   4      17.847  54.355  59.7820  0.00  0.00     0.000 C
ATOM     52  C4  ASG B   4      16.877  53.417  60.4830  0.00  0.00     0.000 C
ATOM     53  C5  ASG B   4      15.648  54.224  60.8920  0.00  0.00     0.000 C
ATOM     54  O5  ASG B   4      16.050  55.266  61.8020  0.00  0.00     0.000 O
BRANCH 50 57
ATOM     55   N  ASG B   4      18.682  56.766  60.0240  0.00  0.00     0.000 N
ATOM     57  HD  ASG B   4      18.943  57.168  60.7450  0.00  0.00     0.000 HD
ATOM     57   O  ASG B   4      20.165  57.202  61.6440  0.00  0.00     0.000 OA
ATOM     58   C  ASG B   4      19.723  57.438  60.5240  0.00  0.00     0.000 C
ATOM     59   C  ASG B   4      20.273  58.523  59.6500  0.00  0.00     0.000 C
ENDBRANCH 50 57
BRANCH 52 60
ATOM     60   O  ASG B   4      17.671  52.881  61.6190  0.00  0.00     0.000 O
ATOM     61   O  ASG B   4      17.024  50.521  61.1260  0.00  0.00     0.000 OA
ATOM     62   O  ASG B   4      18.612  50.982  62.8390  0.00  0.00     0.000 OA
ATOM     63   O  ASG B   4      16.358  51.736  63.1050  0.00  0.00     0.000 OA
ATOM     64   S  ASG B   4      17.436  51.395  62.1720  0.00  0.00     0.000 S
ENDBRANCH 52 60
ATOM     65   O  ASG B   4      13.329  54.147  61.5970  0.00  0.00     0.000 O
ATOM     67  HD  ASG B   4      13.498  54.721  62.2240  0.00  0.00     0.000 HD
ATOM     67   O  ASG B   4      13.329  54.147  61.5970  0.00  0.00     0.000 O
ATOM     69  HD  ASG B   4      13.498  54.721  62.2240  0.00  0.00     0.000 HD
ENDBRANCH 48 51
ENDBRANCH 35 48
ENDBRANCH 34 38
ENDBRANCH 15 34
ENDBRANCH 14 17
ENDBRANCH 1 14
TORSDOF 12
ENDMDL
MODEL 66
REMARK VINA RESULT:      -6.8      4.005      7.589
ROOT
ATOM      1  C1  GAD B   1      18.577  40.977  34.7510  0.00  0.00     0.000 C
ATOM      2  C2  GAD B   1      17.200  40.372  34.4620  0.00  0.00     0.000 C
ATOM      3  C3  GAD B   1      16.194  41.482  34.1370  0.00  0.00     0.000 C
ATOM      4  C4  GAD B   1      16.452  42.805  34.8640  0.00  0.00     0.000 C
ATOM      5  C5  GAD B   1      17.546  43.061  35.6090  0.00  0.00     0.000 C
ATOM      6  O5  GAD B   1      18.504  41.996  35.7590  0.00  0.00     0.000 O
ATOM      7   O  GAD B   1      17.276  39.342  33.4070  0.00  0.00     0.000 O
ATOM      9  HD  GAD B   1      18.118  39.408  33.5990  0.00  0.00     0.000 HD
ATOM      9   O  GAD B   1      14.845  41.094  34.4800  0.00  0.00     0.000 O
ATOM     11  HD  GAD B   1      15.687  41.159  34.6720  0.00  0.00     0.000 HD
ENDROOT
BRANCH 5 11
ATOM     11   C  GAD B   1      17.857  44.371  36.2280  0.00  0.00     0.000 C
ATOM     12   O  GAD B   1      18.971  44.901  35.9250  0.00  0.00     0.000 OA
ATOM     13   O  GAD B   1      17.054  44.883  37.0930  0.00  0.00     0.000 OA
ENDBRANCH 5 11
BRANCH 1 14
ATOM     14  O3  ASG B   2      19.542  40.350  35.4500  0.00  0.00     0.000 O
BRANCH 14 17
ATOM     15  C1  ASG B   2      21.050  40.085  38.9050  0.00  0.00     0.000 C
ATOM     16  C2  ASG B   2      21.017  40.399  37.4020  0.00  0.00     0.000 C
ATOM     17  C3  ASG B   2      19.625  40.071  36.8520  0.00  0.00     0.000 C
ATOM     18  C4  ASG B   2      19.300  38.611  37.1010  0.00  0.00     0.000 C
ATOM     19  C5  ASG B   2      19.466  38.310  38.5880  0.00  0.00     0.000 C
ATOM     20  O5  ASG B   2      20.782  38.701  39.0270  0.00  0.00     0.000 O
ATOM     21   C  ASG B   2      19.327  36.855  38.9030  0.00  0.00     0.000 C
ATOM     22   O  ASG B   2      19.701  36.630  40.2400  0.00  0.00     0.000 O
ATOM     24  HD  ASG B   2      19.896  36.348  41.0350  0.00  0.00     0.000 HD
BRANCH 16 26
ATOM     24   N  ASG B   2      21.398  41.747  37.0490  0.00  0.00     0.000 N
ATOM     26  HD  ASG B   2      21.658  41.370  37.7850  0.00  0.00     0.000 HD
ATOM     26   C  ASG B   2      22.093  42.067  35.9430  0.00  0.00     0.000 C
ATOM     27   C  ASG B   2      22.098  43.509  35.5660  0.00  0.00     0.000 C
ATOM     28   O  ASG B   2      22.685  41.220  35.2860  0.00  0.00     0.000 OA
ENDBRANCH 16 26
BRANCH 18 29
ATOM     29   O  ASG B   2      20.214  37.830  36.2570  0.00  0.00     0.000 O
ATOM     30   O  ASG B   2      18.675  35.932  35.9950  0.00  0.00     0.000 OA
ATOM     31   O  ASG B   2      19.042  37.458  34.1430  0.00  0.00     0.000 OA
ATOM     32   O  ASG B   2      20.806  35.961  34.8440  0.00  0.00     0.000 OA
ATOM     33   S  ASG B   2      19.627  36.729  35.2440  0.00  0.00     0.000 S
ENDBRANCH 18 29
BRANCH 15 34
ATOM     34  O4  ASG B   3      22.283  40.356  39.5080  0.00  0.00     0.000 O
BRANCH 34 38
ATOM     35  C1  GCT B   3      26.004  38.956  40.2560  0.00  0.00     0.000 C
ATOM     36  C2  GCT B   3      25.951  40.023  39.1840  0.00  0.00     0.000 C
ATOM     37  C3  GCT B   3      24.644  40.800  39.2570  0.00  0.00     0.000 C
ATOM     38  C4  GCT B   3      23.471  39.831  39.0660  0.00  0.00     0.000 C
ATOM     39  C5  GCT B   3      23.764  38.440  39.6710  0.00  0.00     0.000 C
ATOM     40  O5  GCT B   3      24.695  38.642  40.7200  0.00  0.00     0.000 O
ATOM     41   O  GCT B   3      27.052  40.888  39.4220  0.00  0.00     0.000 O
ATOM     43  HD  GCT B   3      27.900  40.806  39.2660  0.00  0.00     0.000 HD
ATOM     43   O  GCT B   3      24.675  41.846  38.2630  0.00  0.00     0.000 O
ATOM     45  HD  GCT B   3      25.523  41.763  38.1060  0.00  0.00     0.000 HD
BRANCH 39 45
ATOM     45   C  GCT B   3      24.272  37.349  38.7540  0.00  0.00     0.000 C
ATOM     46   O  GCT B   3      24.480  36.184  39.2200  0.00  0.00     0.000 OA
ATOM     47   O  GCT B   3      24.456  37.637  37.5600  0.00  0.00     0.000 OA
ENDBRANCH 39 45
BRANCH 35 48
ATOM     48  O3  ASG B   4      27.005  38.140  40.0080  0.00  0.00     0.000 O
BRANCH 48 51
ATOM     49  C1  ASG B   4      29.839  37.309  42.2380  0.00  0.00     0.000 C
ATOM     50  C2  ASG B   4      29.044  37.954  41.0900  0.00  0.00     0.000 C
ATOM     51  C3  ASG B   4      27.548  37.690  41.2380  0.00  0.00     0.000 C
ATOM     52  C4  ASG B   4      27.270  36.213  41.4670  0.00  0.00     0.000 C
ATOM     53  C5  ASG B   4      28.102  35.754  42.6620  0.00  0.00     0.000 C
ATOM     54  O5  ASG B   4      29.499  35.938  42.3620  0.00  0.00     0.000 O
BRANCH 50 57
ATOM     55   N  ASG B   4      29.452  39.333  41.2230  0.00  0.00     0.000 N
ATOM     57  HD  ASG B   4      30.263  39.241  40.9340  0.00  0.00     0.000 HD
ATOM     57   O  ASG B   4      30.999  39.233  39.6060  0.00  0.00     0.000 OA
ATOM     58   C  ASG B   4      30.333  39.900  40.3930  0.00  0.00     0.000 C
ATOM     59   C  ASG B   4      30.488  41.384  40.5270  0.00  0.00     0.000 C
ENDBRANCH 50 57
BRANCH 52 60
ATOM     60   O  ASG B   4      27.645  35.584  40.1750  0.00  0.00     0.000 O
ATOM     61   O  ASG B   4      26.108  33.648  40.5240  0.00  0.00     0.000 OA
ATOM     62   O  ASG B   4      27.280  33.873  38.4640  0.00  0.00     0.000 OA
ATOM     63   O  ASG B   4      28.518  33.487  40.4740  0.00  0.00     0.000 OA
ATOM     64   S  ASG B   4      27.306  34.047  39.8670  0.00  0.00     0.000 S
ENDBRANCH 52 60
ATOM     65   O  ASG B   4      28.425  34.050  44.3570  0.00  0.00     0.000 O
ATOM     67  HD  ASG B   4      29.275  34.041  44.1900  0.00  0.00     0.000 HD
ATOM     67   O  ASG B   4      28.425  34.050  44.3570  0.00  0.00     0.000 O
ATOM     69  HD  ASG B   4      29.275  34.041  44.1900  0.00  0.00     0.000 HD
ENDBRANCH 48 51
ENDBRANCH 35 48
ENDBRANCH 34 38
ENDBRANCH 15 34
ENDBRANCH 14 17
ENDBRANCH 1 14
TORSDOF 12
ENDMDL
MODEL 67
REMARK VINA RESULT:      -6.8      8.538     11.228
ROOT
ATOM      1  C1  GAD B   1      18.030  27.177  33.5170  0.00  0.00     0.000 C
ATOM      2  C2  GAD B   1      17.193  27.532  34.7500  0.00  0.00     0.000 C
ATOM      3  C3  GAD B   1      15.703  27.557  34.3850  0.00  0.00     0.000 C
ATOM      4  C4  GAD B   1      15.409  27.999  32.9490  0.00  0.00     0.000 C
ATOM      5  C5  GAD B   1      16.353  28.202  32.0080  0.00  0.00     0.000 C
ATOM      6  O5  GAD B   1      17.726  28.036  32.4080  0.00  0.00     0.000 O
ATOM      7   O  GAD B   1      17.490  26.632  35.8800  0.00  0.00     0.000 O
ATOM      9  HD  GAD B   1      18.172  26.454  35.3770  0.00  0.00     0.000 HD
ATOM      9   O  GAD B   1      14.962  28.456  35.2400  0.00  0.00     0.000 O
ATOM     11  HD  GAD B   1      15.644  28.279  34.7370  0.00  0.00     0.000 HD
ENDROOT
BRANCH 5 11
ATOM     11   C  GAD B   1      16.074  28.525  30.5890  0.00  0.00     0.000 C
ATOM     12   O  GAD B   1      16.860  29.345  30.0210  0.00  0.00     0.000 OA
ATOM     13   O  GAD B   1      15.029  28.047  30.0110  0.00  0.00     0.000 OA
ENDBRANCH 5 11
BRANCH 1 14
ATOM     14  O3  ASG B   2      19.338  27.468  33.3880  0.00  0.00     0.000 O
BRANCH 14 17
ATOM     15  C1  ASG B   2      22.302  29.327  34.8150  0.00  0.00     0.000 C
ATOM     16  C2  ASG B   2      21.329  28.849  33.7280  0.00  0.00     0.000 C
ATOM     17  C3  ASG B   2      20.275  27.939  34.3640  0.00  0.00     0.000 C
ATOM     18  C4  ASG B   2      20.948  26.757  35.0360  0.00  0.00     0.000 C
ATOM     19  C5  ASG B   2      21.995  27.272  36.0180  0.00  0.00     0.000 C
ATOM     20  O5  ASG B   2      22.907  28.162  35.3440  0.00  0.00     0.000 O
ATOM     21   C  ASG B   2      22.826  26.177  36.6060  0.00  0.00     0.000 C
ATOM     22   O  ASG B   2      23.895  26.739  37.3260  0.00  0.00     0.000 O
ATOM     24  HD  ASG B   2      24.591  26.942  37.8010  0.00  0.00     0.000 HD
BRANCH 16 26
ATOM     24   N  ASG B   2      21.094  28.852  32.3030  0.00  0.00     0.000 N
ATOM     26  HD  ASG B   2      20.807  28.217  32.8170  0.00  0.00     0.000 HD
ATOM     26   C  ASG B   2      20.418  29.817  31.6520  0.00  0.00     0.000 C
ATOM     27   C  ASG B   2      20.568  29.837  30.1700  0.00  0.00     0.000 C
ATOM     28   O  ASG B   2      19.723  30.630  32.2490  0.00  0.00     0.000 OA
ENDBRANCH 16 26
BRANCH 18 29
ATOM     29   O  ASG B   2      21.528  25.941  33.9600  0.00  0.00     0.000 O
ATOM     30   O  ASG B   2      21.205  23.804  35.1320  0.00  0.00     0.000 OA
ATOM     31   O  ASG B   2      19.774  24.387  33.2600  0.00  0.00     0.000 OA
ATOM     32   O  ASG B   2      22.102  23.855  32.8830  0.00  0.00     0.000 OA
ATOM     33   S  ASG B   2      21.108  24.397  33.8110  0.00  0.00     0.000 S
ENDBRANCH 18 29
BRANCH 15 34
ATOM     34  O4  ASG B   3      23.307  30.174  34.3370  0.00  0.00     0.000 O
BRANCH 34 38
ATOM     35  C1  GCT B   3      23.726  33.205  36.9840  0.00  0.00     0.000 C
ATOM     36  C2  GCT B   3      22.502  33.322  36.1010  0.00  0.00     0.000 C
ATOM     37  C3  GCT B   3      22.166  31.983  35.4590  0.00  0.00     0.000 C
ATOM     38  C4  GCT B   3      23.358  31.517  34.6140  0.00  0.00     0.000 C
ATOM     39  C5  GCT B   3      24.709  31.942  35.2330  0.00  0.00     0.000 C
ATOM     40  O5  GCT B   3      24.496  32.061  36.6280  0.00  0.00     0.000 O
ATOM     41   O  GCT B   3      21.438  33.746  36.9420  0.00  0.00     0.000 O
ATOM     43  HD  GCT B   3      21.238  34.517  37.2820  0.00  0.00     0.000 HD
ATOM     43   O  GCT B   3      20.956  32.134  34.6880  0.00  0.00     0.000 O
ATOM     45  HD  GCT B   3      20.756  32.905  35.0280  0.00  0.00     0.000 HD
BRANCH 39 45
ATOM     45   C  GCT B   3      25.370  33.202  34.7180  0.00  0.00     0.000 C
ATOM     46   O  GCT B   3      26.476  33.579  35.2190  0.00  0.00     0.000 OA
ATOM     47   O  GCT B   3      24.803  33.820  33.8020  0.00  0.00     0.000 OA
ENDBRANCH 39 45
BRANCH 35 48
ATOM     48  O3  ASG B   4      24.144  34.409  37.3090  0.00  0.00     0.000 O
BRANCH 48 51
ATOM     49  C1  ASG B   4      24.301  33.749  40.9460  0.00  0.00     0.000 C
ATOM     50  C2  ASG B   4      23.819  33.693  39.4870  0.00  0.00     0.000 C
ATOM     51  C3  ASG B   4      24.833  34.339  38.5460  0.00  0.00     0.000 C
ATOM     52  C4  ASG B   4      25.242  35.717  39.0400  0.00  0.00     0.000 C
ATOM     53  C5  ASG B   4      25.732  35.579  40.4790  0.00  0.00     0.000 C
ATOM     54  O5  ASG B   4      24.657  35.076  41.2970  0.00  0.00     0.000 O
BRANCH 50 57
ATOM     55   N  ASG B   4      23.612  32.402  40.1020  0.00  0.00     0.000 N
ATOM     57  HD  ASG B   4      22.778  32.507  40.3110  0.00  0.00     0.000 HD
ATOM     57   O  ASG B   4      21.417  32.330  39.6640  0.00  0.00     0.000 OA
ATOM     58   C  ASG B   4      22.437  31.768  40.0510  0.00  0.00     0.000 C
ATOM     59   C  ASG B   4      22.442  30.354  40.5450  0.00  0.00     0.000 C
ENDBRANCH 50 57
BRANCH 52 60
ATOM     60   O  ASG B   4      24.005  36.524  38.8830  0.00  0.00     0.000 O
ATOM     61   O  ASG B   4      25.232  38.443  37.8610  0.00  0.00     0.000 OA
ATOM     62   O  ASG B   4      22.855  38.493  37.9970  0.00  0.00     0.000 OA
ATOM     63   O  ASG B   4      24.139  38.511  40.0140  0.00  0.00     0.000 OA
ATOM     64   S  ASG B   4      24.068  38.102  38.6080  0.00  0.00     0.000 S
ENDBRANCH 52 60
ATOM     65   O  ASG B   4      26.976  36.603  42.2910  0.00  0.00     0.000 O
ATOM     67  HD  ASG B   4      26.340  36.404  42.8440  0.00  0.00     0.000 HD
ATOM     67   O  ASG B   4      26.976  36.603  42.2910  0.00  0.00     0.000 O
ATOM     69  HD  ASG B   4      26.340  36.404  42.8440  0.00  0.00     0.000 HD
ENDBRANCH 48 51
ENDBRANCH 35 48
ENDBRANCH 34 38
ENDBRANCH 15 34
ENDBRANCH 14 17
ENDBRANCH 1 14
TORSDOF 12
ENDMDL
MODEL 68
REMARK VINA RESULT:      -6.8     22.169     28.127
ROOT
ATOM      1  C1  GAD B   1      26.411  29.907  54.7110  0.00  0.00     0.000 C
ATOM      2  C2  GAD B   1      26.776  30.174  53.2480  0.00  0.00     0.000 C
ATOM      3  C3  GAD B   1      27.755  31.351  53.1560  0.00  0.00     0.000 C
ATOM      4  C4  GAD B   1      27.567  32.419  54.2370  0.00  0.00     0.000 C
ATOM      5  C5  GAD B   1      26.733  32.295  55.2890  0.00  0.00     0.000 C
ATOM      6  O5  GAD B   1      25.939  31.096  55.3620  0.00  0.00     0.000 O
ATOM      7   O  GAD B   1      27.284  28.955  52.5890  0.00  0.00     0.000 O
ATOM      9  HD  GAD B   1      26.927  28.596  53.2910  0.00  0.00     0.000 HD
ATOM      9   O  GAD B   1      27.640  32.039  51.8900  0.00  0.00     0.000 O
ATOM     11  HD  GAD B   1      27.283  31.680  52.5930  0.00  0.00     0.000 HD
ENDROOT
BRANCH 5 11
ATOM     11   C  GAD B   1      26.622  33.273  56.3970  0.00  0.00     0.000 C
ATOM     12   O  GAD B   1      26.327  34.468  56.0820  0.00  0.00     0.000 OA
ATOM     13   O  GAD B   1      26.898  32.919  57.6020  0.00  0.00     0.000 OA
ENDBRANCH 5 11
BRANCH 1 14
ATOM     14  O3  ASG B   2      25.302  29.250  55.1010  0.00  0.00     0.000 O
BRANCH 14 17
ATOM     15  C1  ASG B   2      22.288  29.612  57.3500  0.00  0.00     0.000 C
ATOM     16  C2  ASG B   2      23.620  29.025  56.8640  0.00  0.00     0.000 C
ATOM     17  C3  ASG B   2      24.058  29.761  55.5940  0.00  0.00     0.000 C
ATOM     18  C4  ASG B   2      22.992  29.626  54.5230  0.00  0.00     0.000 C
ATOM     19  C5  ASG B   2      21.657  30.104  55.0870  0.00  0.00     0.000 C
ATOM     20  O5  ASG B   2      21.356  29.398  56.3070  0.00  0.00     0.000 O
ATOM     21   C  ASG B   2      20.513  29.853  54.1570  0.00  0.00     0.000 C
ATOM     22   O  ASG B   2      19.304  30.119  54.8240  0.00  0.00     0.000 O
ATOM     24  HD  ASG B   2      18.494  30.246  55.1030  0.00  0.00     0.000 HD
BRANCH 16 26
ATOM     24   N  ASG B   2      24.686  29.028  57.8390  0.00  0.00     0.000 N
ATOM     26  HD  ASG B   2      23.850  29.045  58.0670  0.00  0.00     0.000 HD
ATOM     26   C  ASG B   2      25.600  28.047  57.9580  0.00  0.00     0.000 C
ATOM     27   C  ASG B   2      26.808  28.371  58.7680  0.00  0.00     0.000 C
ATOM     28   O  ASG B   2      25.445  26.954  57.4280  0.00  0.00     0.000 OA
ENDBRANCH 16 26
BRANCH 18 29
ATOM     29   O  ASG B   2      22.971  28.210  54.1310  0.00  0.00     0.000 O
ATOM     30   O  ASG B   2      22.343  28.657  51.7970  0.00  0.00     0.000 OA
ATOM     31   O  ASG B   2      24.611  27.976  52.3320  0.00  0.00     0.000 OA
ATOM     32   O  ASG B   2      22.792  26.398  52.5430  0.00  0.00     0.000 OA
ATOM     33   S  ASG B   2      23.202  27.802  52.5940  0.00  0.00     0.000 S
ENDBRANCH 18 29
BRANCH 15 34
ATOM     34  O4  ASG B   3      21.800  29.010  58.5150  0.00  0.00     0.000 O
BRANCH 34 38
ATOM     35  C1  GCT B   3      19.274  28.823  61.6690  0.00  0.00     0.000 C
ATOM     36  C2  GCT B   3      18.637  29.348  60.4000  0.00  0.00     0.000 C
ATOM     37  C3  GCT B   3      19.479  28.990  59.1830  0.00  0.00     0.000 C
ATOM     38  C4  GCT B   3      20.877  29.600  59.3400  0.00  0.00     0.000 C
ATOM     39  C5  GCT B   3      21.335  29.629  60.8160  0.00  0.00     0.000 C
ATOM     40  O5  GCT B   3      20.660  28.568  61.4700  0.00  0.00     0.000 O
ATOM     41   O  GCT B   3      17.357  28.739  60.3090  0.00  0.00     0.000 O
ATOM     43  HD  GCT B   3      16.610  28.894  60.7200  0.00  0.00     0.000 HD
ATOM     43   O  GCT B   3      18.795  29.451  57.9990  0.00  0.00     0.000 O
ATOM     45  HD  GCT B   3      18.048  29.605  58.4100  0.00  0.00     0.000 HD
BRANCH 39 45
ATOM     45   C  GCT B   3      21.143  30.906  61.6050  0.00  0.00     0.000 C
ATOM     46   O  GCT B   3      20.589  31.907  61.0510  0.00  0.00     0.000 OA
ATOM     47   O  GCT B   3      21.528  30.920  62.7850  0.00  0.00     0.000 OA
ENDBRANCH 39 45
BRANCH 35 48
ATOM     48  O3  ASG B   4      18.679  29.364  62.7100  0.00  0.00     0.000 O
BRANCH 48 51
ATOM     49  C1  ASG B   4      17.635  27.278  65.5820  0.00  0.00     0.000 C
ATOM     50  C2  ASG B   4      17.591  27.980  64.2140  0.00  0.00     0.000 C
ATOM     51  C3  ASG B   4      18.950  28.577  63.8570  0.00  0.00     0.000 C
ATOM     52  C4  ASG B   4      19.499  29.417  64.9980  0.00  0.00     0.000 C
ATOM     53  C5  ASG B   4      19.512  28.556  66.2580  0.00  0.00     0.000 C
ATOM     54  O5  ASG B   4      18.164  28.151  66.5660  0.00  0.00     0.000 O
BRANCH 50 57
ATOM     55   N  ASG B   4      16.982  26.695  63.9580  0.00  0.00     0.000 N
ATOM     57  HD  ASG B   4      16.161  26.924  64.1110  0.00  0.00     0.000 HD
ATOM     57   O  ASG B   4      14.997  27.539  63.3570  0.00  0.00     0.000 OA
ATOM     58   C  ASG B   4      15.754  26.577  63.4450  0.00  0.00     0.000 C
ATOM     59   C  ASG B   4      15.352  25.193  63.0380  0.00  0.00     0.000 C
ENDBRANCH 50 57
BRANCH 52 60
ATOM     60   O  ASG B   4      18.573  30.578  65.0520  0.00  0.00     0.000 O
ATOM     61   O  ASG B   4      20.353  32.125  65.8680  0.00  0.00     0.000 OA
ATOM     62   O  ASG B   4      18.194  32.977  65.3400  0.00  0.00     0.000 OA
ATOM     63   O  ASG B   4      18.430  31.450  67.1650  0.00  0.00     0.000 OA
ATOM     64   S  ASG B   4      18.946  31.905  65.8700  0.00  0.00     0.000 S
ENDBRANCH 52 60
ATOM     65   O  ASG B   4      20.382  28.286  68.5050  0.00  0.00     0.000 O
ATOM     67  HD  ASG B   4      19.586  28.102  68.7940  0.00  0.00     0.000 HD
ATOM     67   O  ASG B   4      20.382  28.286  68.5050  0.00  0.00     0.000 O
ATOM     69  HD  ASG B   4      19.586  28.102  68.7940  0.00  0.00     0.000 HD
ENDBRANCH 48 51
ENDBRANCH 35 48
ENDBRANCH 34 38
ENDBRANCH 15 34
ENDBRANCH 14 17
ENDBRANCH 1 14
TORSDOF 12
ENDMDL
MODEL 69
REMARK VINA RESULT:      -6.8     37.784     42.047
ROOT
ATOM      1  C1  GAD B   1       5.147  49.025  76.3510  0.00  0.00     0.000 C
ATOM      2  C2  GAD B   1       4.196  48.020  75.6940  0.00  0.00     0.000 C
ATOM      3  C3  GAD B   1       3.992  46.810  76.6130  0.00  0.00     0.000 C
ATOM      4  C4  GAD B   1       5.206  46.456  77.4750  0.00  0.00     0.000 C
ATOM      5  C5  GAD B   1       6.319  47.211  77.5660  0.00  0.00     0.000 C
ATOM      6  O5  GAD B   1       6.375  48.402  76.7570  0.00  0.00     0.000 O
ATOM      7   O  GAD B   1       2.926  48.660  75.3000  0.00  0.00     0.000 O
ATOM      9  HD  GAD B   1       3.406  49.369  75.4300  0.00  0.00     0.000 HD
ATOM      9   O  GAD B   1       3.675  45.618  75.8590  0.00  0.00     0.000 O
ATOM     11  HD  GAD B   1       4.155  46.328  75.9890  0.00  0.00     0.000 HD
ENDROOT
BRANCH 5 11
ATOM     11   C  GAD B   1       7.454  46.934  78.4770  0.00  0.00     0.000 C
ATOM     12   O  GAD B   1       7.642  47.754  79.4290  0.00  0.00     0.000 OA
ATOM     13   O  GAD B   1       8.246  45.948  78.2420  0.00  0.00     0.000 OA
ENDBRANCH 5 11
BRANCH 1 14
ATOM     14  O3  ASG B   2       5.843  49.957  75.6720  0.00  0.00     0.000 O
BRANCH 14 17
ATOM     15  C1  ASG B   2       7.878  50.736  72.5850  0.00  0.00     0.000 C
ATOM     16  C2  ASG B   2       7.543  50.714  74.0830  0.00  0.00     0.000 C
ATOM     17  C3  ASG B   2       6.199  50.007  74.2860  0.00  0.00     0.000 C
ATOM     18  C4  ASG B   2       5.114  50.724  73.5050  0.00  0.00     0.000 C
ATOM     19  C5  ASG B   2       5.541  50.836  72.0450  0.00  0.00     0.000 C
ATOM     20  O5  ASG B   2       6.837  51.461  71.9570  0.00  0.00     0.000 O
ATOM     21   C  ASG B   2       4.608  51.675  71.2320  0.00  0.00     0.000 C
ATOM     22   O  ASG B   2       5.174  51.907  69.9660  0.00  0.00     0.000 O
ATOM     24  HD  ASG B   2       5.396  52.127  69.1580  0.00  0.00     0.000 HD
BRANCH 16 26
ATOM     24   N  ASG B   2       8.603  50.174  74.9030  0.00  0.00     0.000 N
ATOM     26  HD  ASG B   2       8.758  50.571  74.1490  0.00  0.00     0.000 HD
ATOM     26   C  ASG B   2       8.856  50.571  76.1640  0.00  0.00     0.000 C
ATOM     27   C  ASG B   2       9.744  49.683  76.9650  0.00  0.00     0.000 C
ATOM     28   O  ASG B   2       8.380  51.603  76.6220  0.00  0.00     0.000 OA
ENDBRANCH 16 26
BRANCH 18 29
ATOM     29   O  ASG B   2       4.933  52.032  74.1490  0.00  0.00     0.000 O
ATOM     30   O  ASG B   2       2.546  52.204  73.5900  0.00  0.00     0.000 OA
ATOM     31   O  ASG B   2       3.224  51.718  75.8690  0.00  0.00     0.000 OA
ATOM     32   O  ASG B   2       3.625  53.908  74.9290  0.00  0.00     0.000 OA
ATOM     33   S  ASG B   2       3.478  52.476  74.6670  0.00  0.00     0.000 S
ENDBRANCH 18 29
BRANCH 15 34
ATOM     34  O4  ASG B   3       9.096  51.359  72.2910  0.00  0.00     0.000 O
BRANCH 34 38
ATOM     35  C1  GCT B   3      10.377  54.451  70.0190  0.00  0.00     0.000 C
ATOM     36  C2  GCT B   3      10.801  54.535  71.4700  0.00  0.00     0.000 C
ATOM     37  C3  GCT B   3      10.678  53.179  72.1500  0.00  0.00     0.000 C
ATOM     38  C4  GCT B   3       9.221  52.708  72.0730  0.00  0.00     0.000 C
ATOM     39  C5  GCT B   3       8.532  53.162  70.7660  0.00  0.00     0.000 C
ATOM     40  O5  GCT B   3       9.557  53.309  69.7990  0.00  0.00     0.000 O
ATOM     41   O  GCT B   3      12.155  54.965  71.4700  0.00  0.00     0.000 O
ATOM     43  HD  GCT B   3      12.518  55.741  71.3430  0.00  0.00     0.000 HD
ATOM     43   O  GCT B   3      11.158  53.300  73.5050  0.00  0.00     0.000 O
ATOM     45  HD  GCT B   3      11.521  54.076  73.3780  0.00  0.00     0.000 HD
BRANCH 39 45
ATOM     45   C  GCT B   3       7.688  54.418  70.7960  0.00  0.00     0.000 C
ATOM     46   O  GCT B   3       7.092  54.798  69.7400  0.00  0.00     0.000 OA
ATOM     47   O  GCT B   3       7.600  55.029  71.8740  0.00  0.00     0.000 OA
ENDBRANCH 39 45
BRANCH 35 48
ATOM     48  O3  ASG B   4      10.241  55.666  69.5340  0.00  0.00     0.000 O
BRANCH 48 51
ATOM     49  C1  ASG B   4      12.209  57.833  67.2710  0.00  0.00     0.000 C
ATOM     50  C2  ASG B   4      11.354  57.397  68.4720  0.00  0.00     0.000 C
ATOM     51  C3  ASG B   4      11.225  55.878  68.5360  0.00  0.00     0.000 C
ATOM     52  C4  ASG B   4      10.797  55.304  67.1950  0.00  0.00     0.000 C
ATOM     53  C5  ASG B   4      11.775  55.800  66.1330  0.00  0.00     0.000 C
ATOM     54  O5  ASG B   4      11.723  57.239  66.0780  0.00  0.00     0.000 O
BRANCH 50 57
ATOM     55   N  ASG B   4      11.766  57.805  69.7960  0.00  0.00     0.000 N
ATOM     57  HD  ASG B   4      11.747  58.661  69.6630  0.00  0.00     0.000 HD
ATOM     57   O  ASG B   4      10.737  59.792  69.7140  0.00  0.00     0.000 OA
ATOM     58   C  ASG B   4      11.335  58.937  70.3600  0.00  0.00     0.000 C
ATOM     59   C  ASG B   4      11.677  59.111  71.8070  0.00  0.00     0.000 C
ENDBRANCH 50 57
BRANCH 52 60
ATOM     60   O  ASG B   4       9.406  55.800  67.0330  0.00  0.00     0.000 O
ATOM     61   O  ASG B   4       8.550  53.559  66.3440  0.00  0.00     0.000 OA
ATOM     62   O  ASG B   4       7.028  55.363  66.6610  0.00  0.00     0.000 OA
ATOM     63   O  ASG B   4       8.638  55.492  64.8980  0.00  0.00     0.000 OA
ATOM     64   S  ASG B   4       8.309  54.958  66.2220  0.00  0.00     0.000 S
ENDBRANCH 52 60
ATOM     65   O  ASG B   4      12.642  55.489  63.8900  0.00  0.00     0.000 O
ATOM     67  HD  ASG B   4      12.575  56.340  63.7430  0.00  0.00     0.000 HD
ATOM     67   O  ASG B   4      12.642  55.489  63.8900  0.00  0.00     0.000 O
ATOM     69  HD  ASG B   4      12.575  56.340  63.7430  0.00  0.00     0.000 HD
ENDBRANCH 48 51
ENDBRANCH 35 48
ENDBRANCH 34 38
ENDBRANCH 15 34
ENDBRANCH 14 17
ENDBRANCH 1 14
TORSDOF 12
ENDMDL
MODEL 70
REMARK VINA RESULT:      -6.8     29.899     36.197
ROOT
ATOM      1  C1  GAD B   1      19.561  30.397  64.2740  0.00  0.00     0.000 C
ATOM      2  C2  GAD B   1      18.628  31.610  64.2040  0.00  0.00     0.000 C
ATOM      3  C3  GAD B   1      19.208  32.768  65.0250  0.00  0.00     0.000 C
ATOM      4  C4  GAD B   1      20.017  32.335  66.2510  0.00  0.00     0.000 C
ATOM      5  C5  GAD B   1      20.349  31.059  66.5290  0.00  0.00     0.000 C
ATOM      6  O5  GAD B   1      19.863  30.042  65.6320  0.00  0.00     0.000 O
ATOM      7   O  GAD B   1      18.340  31.988  62.8070  0.00  0.00     0.000 O
ATOM      9  HD  GAD B   1      18.666  31.196  62.6740  0.00  0.00     0.000 HD
ATOM      9   O  GAD B   1      18.168  33.641  65.5210  0.00  0.00     0.000 O
ATOM     11  HD  GAD B   1      18.494  32.850  65.3870  0.00  0.00     0.000 HD
ENDROOT
BRANCH 5 11
ATOM     11   C  GAD B   1      21.220  30.639  67.6520  0.00  0.00     0.000 C
ATOM     12   O  GAD B   1      20.645  30.162  68.6790  0.00  0.00     0.000 OA
ATOM     13   O  GAD B   1      22.489  30.838  67.5940  0.00  0.00     0.000 OA
ENDBRANCH 5 11
BRANCH 1 14
ATOM     14  O3  ASG B   2      19.170  29.133  64.0280  0.00  0.00     0.000 O
BRANCH 14 17
ATOM     15  C1  ASG B   2      17.040  26.268  65.2650  0.00  0.00     0.000 C
ATOM     16  C2  ASG B   2      18.322  26.970  64.7970  0.00  0.00     0.000 C
ATOM     17  C3  ASG B   2      18.001  28.431  64.4670  0.00  0.00     0.000 C
ATOM     18  C4  ASG B   2      16.932  28.497  63.3930  0.00  0.00     0.000 C
ATOM     19  C5  ASG B   2      15.723  27.684  63.8430  0.00  0.00     0.000 C
ATOM     20  O5  ASG B   2      16.130  26.344  64.1840  0.00  0.00     0.000 O
ATOM     21   C  ASG B   2      14.683  27.554  62.7770  0.00  0.00     0.000 C
ATOM     22   O  ASG B   2      13.710  26.624  63.1850  0.00  0.00     0.000 O
ATOM     24  HD  ASG B   2      13.045  26.083  63.3050  0.00  0.00     0.000 HD
BRANCH 16 26
ATOM     24   N  ASG B   2      19.431  26.838  65.7140  0.00  0.00     0.000 N
ATOM     26  HD  ASG B   2      18.799  26.247  65.6640  0.00  0.00     0.000 HD
ATOM     26   C  ASG B   2      20.720  26.768  65.3320  0.00  0.00     0.000 C
ATOM     27   C  ASG B   2      21.733  26.978  66.4040  0.00  0.00     0.000 C
ATOM     28   O  ASG B   2      21.036  26.544  64.1700  0.00  0.00     0.000 OA
ENDBRANCH 16 26
BRANCH 18 29
ATOM     29   O  ASG B   2      17.544  27.977  62.1630  0.00  0.00     0.000 O
ATOM     30   O  ASG B   2      16.213  29.394  60.6600  0.00  0.00     0.000 OA
ATOM     31   O  ASG B   2      18.557  29.897  61.0380  0.00  0.00     0.000 OA
ATOM     32   O  ASG B   2      17.930  27.931  59.7780  0.00  0.00     0.000 OA
ATOM     33   S  ASG B   2      17.557  28.876  60.8320  0.00  0.00     0.000 S
ENDBRANCH 18 29
BRANCH 15 34
ATOM     34  O4  ASG B   3      17.227  24.922  65.5980  0.00  0.00     0.000 O
BRANCH 34 38
ATOM     35  C1  GCT B   3      17.914  23.577  69.3510  0.00  0.00     0.000 C
ATOM     36  C2  GCT B   3      17.181  22.591  68.4680  0.00  0.00     0.000 C
ATOM     37  C3  GCT B   3      17.339  22.957  66.9990  0.00  0.00     0.000 C
ATOM     38  C4  GCT B   3      16.774  24.364  66.7670  0.00  0.00     0.000 C
ATOM     39  C5  GCT B   3      16.995  25.286  67.9870  0.00  0.00     0.000 C
ATOM     40  O5  GCT B   3      18.144  24.799  68.6590  0.00  0.00     0.000 O
ATOM     41   O  GCT B   3      17.755  21.317  68.7230  0.00  0.00     0.000 O
ATOM     43  HD  GCT B   3      17.664  20.760  69.3800  0.00  0.00     0.000 HD
ATOM     43   O  GCT B   3      16.681  21.950  66.2010  0.00  0.00     0.000 O
ATOM     45  HD  GCT B   3      16.591  21.393  66.8580  0.00  0.00     0.000 HD
BRANCH 39 45
ATOM     45   C  GCT B   3      15.866  25.448  68.9800  0.00  0.00     0.000 C
ATOM     46   O  GCT B   3      14.802  24.766  68.8380  0.00  0.00     0.000 OA
ATOM     47   O  GCT B   3      16.031  26.244  69.9190  0.00  0.00     0.000 OA
ENDBRANCH 39 45
BRANCH 35 48
ATOM     48  O3  ASG B   4      17.549  23.396  70.6020  0.00  0.00     0.000 O
BRANCH 48 51
ATOM     49  C1  ASG B   4      20.295  23.331  73.0800  0.00  0.00     0.000 C
ATOM     50  C2  ASG B   4      19.357  22.875  71.9500  0.00  0.00     0.000 C
ATOM     51  C3  ASG B   4      18.489  24.028  71.4530  0.00  0.00     0.000 C
ATOM     52  C4  ASG B   4      17.810  24.744  72.6090  0.00  0.00     0.000 C
ATOM     53  C5  ASG B   4      18.886  25.163  73.6060  0.00  0.00     0.000 C
ATOM     54  O5  ASG B   4      19.557  23.986  74.0990  0.00  0.00     0.000 O
BRANCH 50 57
ATOM     55   N  ASG B   4      20.399  22.366  71.0880  0.00  0.00     0.000 N
ATOM     57  HD  ASG B   4      20.564  21.637  71.5250  0.00  0.00     0.000 HD
ATOM     57   O  ASG B   4      20.037  20.215  71.5970  0.00  0.00     0.000 OA
ATOM     58   C  ASG B   4      20.591  21.057  70.8970  0.00  0.00     0.000 C
ATOM     59   C  ASG B   4      21.562  20.696  69.8160  0.00  0.00     0.000 C
ENDBRANCH 50 57
BRANCH 52 60
ATOM     60   O  ASG B   4      16.848  23.736  73.1250  0.00  0.00     0.000 O
ATOM     61   O  ASG B   4      14.866  25.125  72.5140  0.00  0.00     0.000 OA
ATOM     62   O  ASG B   4      14.553  22.926  73.3710  0.00  0.00     0.000 OA
ATOM     63   O  ASG B   4      15.521  24.599  74.7790  0.00  0.00     0.000 OA
ATOM     64   S  ASG B   4      15.317  24.114  73.4110  0.00  0.00     0.000 S
ENDBRANCH 52 60
ATOM     65   O  ASG B   4      19.445  26.583  75.4900  0.00  0.00     0.000 O
ATOM     67  HD  ASG B   4      19.808  25.909  75.8950  0.00  0.00     0.000 HD
ATOM     67   O  ASG B   4      19.445  26.583  75.4900  0.00  0.00     0.000 O
ATOM     69  HD  ASG B   4      19.808  25.909  75.8950  0.00  0.00     0.000 HD
ENDBRANCH 48 51
ENDBRANCH 35 48
ENDBRANCH 34 38
ENDBRANCH 15 34
ENDBRANCH 14 17
ENDBRANCH 1 14
TORSDOF 12
ENDMDL
MODEL 71
REMARK VINA RESULT:      -6.8     29.006     35.400
ROOT
ATOM      1  C1  GAD B   1      20.967  30.238  63.9800  0.00  0.00     0.000 C
ATOM      2  C2  GAD B   1      21.125  31.478  63.0950  0.00  0.00     0.000 C
ATOM      3  C3  GAD B   1      21.413  32.710  63.9620  0.00  0.00     0.000 C
ATOM      4  C4  GAD B   1      20.759  32.679  65.3460  0.00  0.00     0.000 C
ATOM      5  C5  GAD B   1      20.112  31.613  65.8560  0.00  0.00     0.000 C
ATOM      6  O5  GAD B   1      19.995  30.449  65.0160  0.00  0.00     0.000 O
ATOM      7   O  GAD B   1      22.142  31.265  62.0480  0.00  0.00     0.000 O
ATOM      9  HD  GAD B   1      22.018  30.443  62.2920  0.00  0.00     0.000 HD
ATOM      9   O  GAD B   1      20.952  33.924  63.3280  0.00  0.00     0.000 O
ATOM     11  HD  GAD B   1      20.829  33.102  63.5720  0.00  0.00     0.000 HD
ENDROOT
BRANCH 5 11
ATOM     11   C  GAD B   1      19.569  31.536  67.2330  0.00  0.00     0.000 C
ATOM     12   O  GAD B   1      18.305  31.565  67.3550  0.00  0.00     0.000 OA
ATOM     13   O  GAD B   1      20.366  31.524  68.2420  0.00  0.00     0.000 OA
ENDBRANCH 5 11
BRANCH 1 14
ATOM     14  O3  ASG B   2      20.320  29.120  63.5990  0.00  0.00     0.000 O
BRANCH 14 17
ATOM     15  C1  ASG B   2      17.533  26.775  64.6040  0.00  0.00     0.000 C
ATOM     16  C2  ASG B   2      18.975  27.195  64.2860  0.00  0.00     0.000 C
ATOM     17  C3  ASG B   2      18.992  28.678  63.9030  0.00  0.00     0.000 C
ATOM     18  C4  ASG B   2      18.090  28.915  62.7080  0.00  0.00     0.000 C
ATOM     19  C5  ASG B   2      16.698  28.372  63.0180  0.00  0.00     0.000 C
ATOM     20  O5  ASG B   2      16.787  26.991  63.4210  0.00  0.00     0.000 O
ATOM     21   C  ASG B   2      15.784  28.413  61.8360  0.00  0.00     0.000 C
ATOM     22   O  ASG B   2      14.605  27.708  62.1350  0.00  0.00     0.000 O
ATOM     24  HD  ASG B   2      13.835  27.313  62.1790  0.00  0.00     0.000 HD
BRANCH 16 26
ATOM     24   N  ASG B   2      19.947  26.966  65.3300  0.00  0.00     0.000 N
ATOM     26  HD  ASG B   2      19.196  26.535  65.2940  0.00  0.00     0.000 HD
ATOM     26   C  ASG B   2      21.205  26.543  65.1070  0.00  0.00     0.000 C
ATOM     27   C  ASG B   2      22.157  26.691  66.2440  0.00  0.00     0.000 C
ATOM     28   O  ASG B   2      21.543  26.065  64.0320  0.00  0.00     0.000 OA
ENDBRANCH 16 26
BRANCH 18 29
ATOM     29   O  ASG B   2      18.723  28.241  61.5660  0.00  0.00     0.000 O
ATOM     30   O  ASG B   2      17.746  29.739  59.8800  0.00  0.00     0.000 OA
ATOM     31   O  ASG B   2      20.097  29.930  60.4520  0.00  0.00     0.000 OA
ATOM     32   O  ASG B   2      19.302  28.000  59.2330  0.00  0.00     0.000 OA
ATOM     33   S  ASG B   2      18.981  29.049  60.2010  0.00  0.00     0.000 S
ENDBRANCH 18 29
BRANCH 15 34
ATOM     34  O4  ASG B   3      17.407  25.432  64.9730  0.00  0.00     0.000 O
BRANCH 34 38
ATOM     35  C1  GCT B   3      17.561  24.833  68.9700  0.00  0.00     0.000 C
ATOM     36  C2  GCT B   3      17.097  23.626  68.1840  0.00  0.00     0.000 C
ATOM     37  C3  GCT B   3      17.471  23.760  66.7150  0.00  0.00     0.000 C
ATOM     38  C4  GCT B   3      16.816  25.022  66.1410  0.00  0.00     0.000 C
ATOM     39  C5  GCT B   3      16.726  26.156  67.1880  0.00  0.00     0.000 C
ATOM     40  O5  GCT B   3      17.783  25.942  68.1070  0.00  0.00     0.000 O
ATOM     41   O  GCT B   3      17.744  22.498  68.7570  0.00  0.00     0.000 O
ATOM     43  HD  GCT B   3      17.597  22.052  69.4840  0.00  0.00     0.000 HD
ATOM     43   O  GCT B   3      17.069  22.556  66.0270  0.00  0.00     0.000 O
ATOM     45  HD  GCT B   3      16.922  22.110  66.7550  0.00  0.00     0.000 HD
BRANCH 39 45
ATOM     45   C  GCT B   3      15.430  26.332  67.9480  0.00  0.00     0.000 C
ATOM     46   O  GCT B   3      15.293  27.321  68.7350  0.00  0.00     0.000 OA
ATOM     47   O  GCT B   3      14.531  25.496  67.7590  0.00  0.00     0.000 OA
ENDBRANCH 39 45
BRANCH 35 48
ATOM     48  O3  ASG B   4      17.003  24.817  70.1620  0.00  0.00     0.000 O
BRANCH 48 51
ATOM     49  C1  ASG B   4      18.167  24.455  73.6550  0.00  0.00     0.000 C
ATOM     50  C2  ASG B   4      17.258  24.363  72.4180  0.00  0.00     0.000 C
ATOM     51  C3  ASG B   4      18.019  24.729  71.1460  0.00  0.00     0.000 C
ATOM     52  C4  ASG B   4      18.760  26.046  71.3080  0.00  0.00     0.000 C
ATOM     53  C5  ASG B   4      19.641  25.945  72.5500  0.00  0.00     0.000 C
ATOM     54  O5  ASG B   4      18.807  25.720  73.7030  0.00  0.00     0.000 O
BRANCH 50 57
ATOM     55   N  ASG B   4      16.705  23.035  72.2890  0.00  0.00     0.000 N
ATOM     57  HD  ASG B   4      16.230  23.038  73.0140  0.00  0.00     0.000 HD
ATOM     57   O  ASG B   4      14.851  23.484  73.4620  0.00  0.00     0.000 OA
ATOM     58   C  ASG B   4      15.485  22.724  72.7370  0.00  0.00     0.000 C
ATOM     59   C  ASG B   4      14.973  21.373  72.3390  0.00  0.00     0.000 C
ENDBRANCH 50 57
BRANCH 52 60
ATOM     60   O  ASG B   4      17.669  27.050  71.4040  0.00  0.00     0.000 O
ATOM     61   O  ASG B   4      18.908  28.719  70.0220  0.00  0.00     0.000 OA
ATOM     62   O  ASG B   4      16.675  29.174  70.7110  0.00  0.00     0.000 OA
ATOM     63   O  ASG B   4      18.392  28.998  72.3660  0.00  0.00     0.000 OA
ATOM     64   S  ASG B   4      17.919  28.591  71.0390  0.00  0.00     0.000 S
ENDBRANCH 52 60
ATOM     65   O  ASG B   4      21.519  26.876  73.7700  0.00  0.00     0.000 O
ATOM     67  HD  ASG B   4      21.061  26.844  74.5050  0.00  0.00     0.000 HD
ATOM     67   O  ASG B   4      21.519  26.876  73.7700  0.00  0.00     0.000 O
ATOM     69  HD  ASG B   4      21.061  26.844  74.5050  0.00  0.00     0.000 HD
ENDBRANCH 48 51
ENDBRANCH 35 48
ENDBRANCH 34 38
ENDBRANCH 15 34
ENDBRANCH 14 17
ENDBRANCH 1 14
TORSDOF 12
ENDMDL
MODEL 72
REMARK VINA RESULT:      -6.8     25.577     29.549
ROOT
ATOM      1  C1  GAD B   1      19.695  53.426  53.9780  0.00  0.00     0.000 C
ATOM      2  C2  GAD B   1      20.821  54.248  53.3440  0.00  0.00     0.000 C
ATOM      3  C3  GAD B   1      20.624  54.326  51.8250  0.00  0.00     0.000 C
ATOM      4  C4  GAD B   1      19.963  53.091  51.2060  0.00  0.00     0.000 C
ATOM      5  C5  GAD B   1      19.441  52.072  51.9180  0.00  0.00     0.000 C
ATOM      6  O5  GAD B   1      19.562  52.142  53.3520  0.00  0.00     0.000 O
ATOM      7   O  GAD B   1      20.938  55.577  53.9740  0.00  0.00     0.000 O
ATOM      9  HD  GAD B   1      20.447  55.183  54.5680  0.00  0.00     0.000 HD
ATOM      9   O  GAD B   1      21.882  54.495  51.1340  0.00  0.00     0.000 O
ATOM     11  HD  GAD B   1      21.391  54.101  51.7290  0.00  0.00     0.000 HD
ENDROOT
BRANCH 5 11
ATOM     11   C  GAD B   1      18.706  50.926  51.3350  0.00  0.00     0.000 C
ATOM     12   O  GAD B   1      18.975  49.774  51.7990  0.00  0.00     0.000 OA
ATOM     13   O  GAD B   1      17.900  51.109  50.3500  0.00  0.00     0.000 OA
ENDBRANCH 5 11
BRANCH 1 14
ATOM     14  O3  ASG B   2      19.785  52.832  55.1830  0.00  0.00     0.000 O
BRANCH 14 17
ATOM     15  C1  ASG B   2      17.173  52.090  57.8110  0.00  0.00     0.000 C
ATOM     16  C2  ASG B   2      18.219  52.927  57.0610  0.00  0.00     0.000 C
ATOM     17  C3  ASG B   2      18.804  52.092  55.9180  0.00  0.00     0.000 C
ATOM     18  C4  ASG B   2      19.428  50.825  56.4700  0.00  0.00     0.000 C
ATOM     19  C5  ASG B   2      18.394  50.085  57.3120  0.00  0.00     0.000 C
ATOM     20  O5  ASG B   2      17.860  50.963  58.3220  0.00  0.00     0.000 O
ATOM     21   C  ASG B   2      18.969  48.907  58.0320  0.00  0.00     0.000 C
ATOM     22   O  ASG B   2      18.020  48.410  58.9440  0.00  0.00     0.000 O
ATOM     24  HD  ASG B   2      17.540  48.001  59.5370  0.00  0.00     0.000 HD
BRANCH 16 26
ATOM     24   N  ASG B   2      17.718  54.229  56.6860  0.00  0.00     0.000 N
ATOM     26  HD  ASG B   2      17.455  53.822  57.4040  0.00  0.00     0.000 HD
ATOM     26   C  ASG B   2      18.492  55.320  56.5380  0.00  0.00     0.000 C
ATOM     27   C  ASG B   2      17.872  56.472  55.8250  0.00  0.00     0.000 C
ATOM     28   O  ASG B   2      19.639  55.359  56.9650  0.00  0.00     0.000 OA
ENDBRANCH 16 26
BRANCH 18 29
ATOM     29   O  ASG B   2      20.602  51.243  57.2470  0.00  0.00     0.000 O
ATOM     30   O  ASG B   2      22.027  49.397  56.4700  0.00  0.00     0.000 OA
ATOM     31   O  ASG B   2      22.388  51.644  55.6260  0.00  0.00     0.000 OA
ATOM     32   O  ASG B   2      22.918  51.116  57.9250  0.00  0.00     0.000 OA
ATOM     33   S  ASG B   2      22.076  50.816  56.7670  0.00  0.00     0.000 S
ENDBRANCH 18 29
BRANCH 15 34
ATOM     34  O4  ASG B   3      16.571  52.768  58.8770  0.00  0.00     0.000 O
BRANCH 34 38
ATOM     35  C1  GCT B   3      16.602  53.066  62.9110  0.00  0.00     0.000 C
ATOM     36  C2  GCT B   3      17.080  54.312  62.1980  0.00  0.00     0.000 C
ATOM     37  C3  GCT B   3      16.641  54.304  60.7400  0.00  0.00     0.000 C
ATOM     38  C4  GCT B   3      17.224  53.067  60.0460  0.00  0.00     0.000 C
ATOM     39  C5  GCT B   3      17.313  51.854  61.0000  0.00  0.00     0.000 C
ATOM     40  O5  GCT B   3      16.303  52.034  61.9780  0.00  0.00     0.000 O
ATOM     41   O  GCT B   3      16.500  55.415  62.8800  0.00  0.00     0.000 O
ATOM     43  HD  GCT B   3      16.693  55.799  63.6320  0.00  0.00     0.000 HD
ATOM     43   O  GCT B   3      17.061  55.541  60.1270  0.00  0.00     0.000 O
ATOM     45  HD  GCT B   3      17.254  55.925  60.8780  0.00  0.00     0.000 HD
BRANCH 39 45
ATOM     45   C  GCT B   3      18.632  51.576  61.6880  0.00  0.00     0.000 C
ATOM     46   O  GCT B   3      19.632  52.323  61.4530  0.00  0.00     0.000 OA
ATOM     47   O  GCT B   3      18.680  50.620  62.4800  0.00  0.00     0.000 OA
ENDBRANCH 39 45
BRANCH 35 48
ATOM     48  O3  ASG B   4      17.208  52.972  64.0750  0.00  0.00     0.000 O
BRANCH 48 51
ATOM     49  C1  ASG B   4      14.712  52.680  66.7910  0.00  0.00     0.000 C
ATOM     50  C2  ASG B   4      15.508  53.275  65.6170  0.00  0.00     0.000 C
ATOM     51  C3  ASG B   4      16.394  52.221  64.9590  0.00  0.00     0.000 C
ATOM     52  C4  ASG B   4      17.224  51.477  65.9930  0.00  0.00     0.000 C
ATOM     53  C5  ASG B   4      16.276  50.919  67.0500  0.00  0.00     0.000 C
ATOM     54  O5  ASG B   4      15.584  52.010  67.6870  0.00  0.00     0.000 O
BRANCH 50 57
ATOM     55   N  ASG B   4      14.157  53.717  65.3590  0.00  0.00     0.000 N
ATOM     57  HD  ASG B   4      14.199  54.469  65.7870  0.00  0.00     0.000 HD
ATOM     57   O  ASG B   4      14.633  55.899  65.5240  0.00  0.00     0.000 OA
ATOM     58   C  ASG B   4      13.842  55.010  65.2290  0.00  0.00     0.000 C
ATOM     59   C  ASG B   4      12.450  55.292  64.7520  0.00  0.00     0.000 C
ENDBRANCH 50 57
BRANCH 52 60
ATOM     60   O  ASG B   4      18.166  52.512  66.4920  0.00  0.00     0.000 O
ATOM     61   O  ASG B   4      20.012  50.862  66.8110  0.00  0.00     0.000 OA
ATOM     62   O  ASG B   4      20.423  53.182  67.1570  0.00  0.00     0.000 OA
ATOM     63   O  ASG B   4      18.904  52.038  68.6070  0.00  0.00     0.000 OA
ATOM     64   S  ASG B   4      19.507  52.111  67.2730  0.00  0.00     0.000 S
ENDBRANCH 52 60
ATOM     65   O  ASG B   4      15.990  49.339  68.8680  0.00  0.00     0.000 O
ATOM     67  HD  ASG B   4      15.626  49.958  69.3520  0.00  0.00     0.000 HD
ATOM     67   O  ASG B   4      15.990  49.339  68.8680  0.00  0.00     0.000 O
ATOM     69  HD  ASG B   4      15.626  49.958  69.3520  0.00  0.00     0.000 HD
ENDBRANCH 48 51
ENDBRANCH 35 48
ENDBRANCH 34 38
ENDBRANCH 15 34
ENDBRANCH 14 17
ENDBRANCH 1 14
TORSDOF 12
ENDMDL
MODEL 73
REMARK VINA RESULT:      -6.8     27.927     33.723
ROOT
ATOM      1  C1  GAD B   1      18.330  20.084  63.4630  0.00  0.00     0.000 C
ATOM      2  C2  GAD B   1      17.641  18.730  63.2680  0.00  0.00     0.000 C
ATOM      3  C3  GAD B   1      17.180  18.579  61.8130  0.00  0.00     0.000 C
ATOM      4  C4  GAD B   1      16.777  19.891  61.1350  0.00  0.00     0.000 C
ATOM      5  C5  GAD B   1      16.948  21.111  61.6810  0.00  0.00     0.000 C
ATOM      6  O5  GAD B   1      17.504  21.166  63.0080  0.00  0.00     0.000 O
ATOM      7   O  GAD B   1      18.503  17.618  63.7130  0.00  0.00     0.000 O
ATOM      9  HD  GAD B   1      18.921  18.278  64.0870  0.00  0.00     0.000 HD
ATOM      9   O  GAD B   1      16.034  17.704  61.7070  0.00  0.00     0.000 O
ATOM     11  HD  GAD B   1      16.452  18.364  62.0810  0.00  0.00     0.000 HD
ENDROOT
BRANCH 5 11
ATOM     11   C  GAD B   1      16.660  22.391  60.9920  0.00  0.00     0.000 C
ATOM     12   O  GAD B   1      16.112  23.305  61.6830  0.00  0.00     0.000 OA
ATOM     13   O  GAD B   1      16.889  22.513  59.7320  0.00  0.00     0.000 OA
ENDBRANCH 5 11
BRANCH 1 14
ATOM     14  O3  ASG B   2      18.472  20.690  64.6560  0.00  0.00     0.000 O
BRANCH 14 17
ATOM     15  C1  ASG B   2      17.556  23.985  66.2630  0.00  0.00     0.000 C
ATOM     16  C2  ASG B   2      18.474  22.947  65.6010  0.00  0.00     0.000 C
ATOM     17  C3  ASG B   2      17.659  21.691  65.2800  0.00  0.00     0.000 C
ATOM     18  C4  ASG B   2      17.047  21.131  66.5510  0.00  0.00     0.000 C
ATOM     19  C5  ASG B   2      16.246  22.229  67.2430  0.00  0.00     0.000 C
ATOM     20  O5  ASG B   2      17.076  23.388  67.4530  0.00  0.00     0.000 O
ATOM     21   C  ASG B   2      15.742  21.816  68.5900  0.00  0.00     0.000 C
ATOM     22   O  ASG B   2      15.205  22.936  69.2490  0.00  0.00     0.000 O
ATOM     24  HD  ASG B   2      14.843  23.529  69.7670  0.00  0.00     0.000 HD
BRANCH 16 26
ATOM     24   N  ASG B   2      19.870  22.742  65.2930  0.00  0.00     0.000 N
ATOM     26  HD  ASG B   2      19.344  22.090  65.5110  0.00  0.00     0.000 HD
ATOM     26   C  ASG B   2      20.432  23.047  64.1080  0.00  0.00     0.000 C
ATOM     27   C  ASG B   2      21.921  23.093  64.0820  0.00  0.00     0.000 C
ATOM     28   O  ASG B   2      19.754  23.274  63.1130  0.00  0.00     0.000 OA
ENDBRANCH 16 26
BRANCH 18 29
ATOM     29   O  ASG B   2      18.164  20.638  67.3690  0.00  0.00     0.000 O
ATOM     30   O  ASG B   2      16.906  18.745  68.3050  0.00  0.00     0.000 OA
ATOM     31   O  ASG B   2      18.604  18.353  66.6160  0.00  0.00     0.000 OA
ATOM     32   O  ASG B   2      19.247  19.055  68.8380  0.00  0.00     0.000 OA
ATOM     33   S  ASG B   2      18.220  19.090  67.7970  0.00  0.00     0.000 S
ENDBRANCH 18 29
BRANCH 15 34
ATOM     34  O4  ASG B   3      18.206  25.179  66.5930  0.00  0.00     0.000 O
BRANCH 34 38
ATOM     35  C1  GCT B   3      19.574  27.972  64.0060  0.00  0.00     0.000 C
ATOM     36  C2  GCT B   3      19.059  28.541  65.3110  0.00  0.00     0.000 C
ATOM     37  C3  GCT B   3      18.976  27.459  66.3780  0.00  0.00     0.000 C
ATOM     38  C4  GCT B   3      18.031  26.350  65.9000  0.00  0.00     0.000 C
ATOM     39  C5  GCT B   3      18.103  26.147  64.3690  0.00  0.00     0.000 C
ATOM     40  O5  GCT B   3      19.397  26.560  63.9670  0.00  0.00     0.000 O
ATOM     41   O  GCT B   3      19.979  29.550  65.7020  0.00  0.00     0.000 O
ATOM     43  HD  GCT B   3      20.104  30.361  65.4250  0.00  0.00     0.000 HD
ATOM     43   O  GCT B   3      18.548  28.066  67.6160  0.00  0.00     0.000 O
ATOM     45  HD  GCT B   3      18.673  28.877  67.3380  0.00  0.00     0.000 HD
BRANCH 39 45
ATOM     45   C  GCT B   3      17.068  26.830  63.5030  0.00  0.00     0.000 C
ATOM     46   O  GCT B   3      17.113  26.688  62.2410  0.00  0.00     0.000 OA
ATOM     47   O  GCT B   3      16.192  27.504  64.0710  0.00  0.00     0.000 OA
ENDBRANCH 39 45
BRANCH 35 48
ATOM     48  O3  ASG B   4      19.387  28.851  63.0450  0.00  0.00     0.000 O
BRANCH 48 51
ATOM     49  C1  ASG B   4      21.685  31.063  61.1700  0.00  0.00     0.000 C
ATOM     50  C2  ASG B   4      20.511  30.618  62.0580  0.00  0.00     0.000 C
ATOM     51  C3  ASG B   4      20.634  29.146  62.4410  0.00  0.00     0.000 C
ATOM     52  C4  ASG B   4      20.886  28.278  61.2190  0.00  0.00     0.000 C
ATOM     53  C5  ASG B   4      22.105  28.833  60.4860  0.00  0.00     0.000 C
ATOM     54  O5  ASG B   4      21.829  30.184  60.0660  0.00  0.00     0.000 O
BRANCH 50 57
ATOM     55   N  ASG B   4      20.435  31.426  63.2530  0.00  0.00     0.000 N
ATOM     57  HD  ASG B   4      20.257  32.182  62.8700  0.00  0.00     0.000 HD
ATOM     57   O  ASG B   4      19.041  32.941  62.3750  0.00  0.00     0.000 OA
ATOM     58   C  ASG B   4      19.617  32.477  63.3540  0.00  0.00     0.000 C
ATOM     59   C  ASG B   4      19.496  33.076  64.7210  0.00  0.00     0.000 C
ENDBRANCH 50 57
BRANCH 52 60
ATOM     60   O  ASG B   4      19.613  28.370  60.4590  0.00  0.00     0.000 O
ATOM     61   O  ASG B   4      19.867  26.077  59.5050  0.00  0.00     0.000 OA
ATOM     62   O  ASG B   4      17.876  27.318  59.0960  0.00  0.00     0.000 OA
ATOM     63   O  ASG B   4      19.949  28.114  58.2080  0.00  0.00     0.000 OA
ATOM     64   S  ASG B   4      19.278  27.353  59.2660  0.00  0.00     0.000 S
ENDBRANCH 52 60
ATOM     65   O  ASG B   4      23.837  28.404  58.8440  0.00  0.00     0.000 O
ATOM     67  HD  ASG B   4      23.687  29.175  58.4800  0.00  0.00     0.000 HD
ATOM     67   O  ASG B   4      23.837  28.404  58.8440  0.00  0.00     0.000 O
ATOM     69  HD  ASG B   4      23.687  29.175  58.4800  0.00  0.00     0.000 HD
ENDBRANCH 48 51
ENDBRANCH 35 48
ENDBRANCH 34 38
ENDBRANCH 15 34
ENDBRANCH 14 17
ENDBRANCH 1 14
TORSDOF 12
ENDMDL
MODEL 74
REMARK VINA RESULT:      -6.8     30.324     36.957
ROOT
ATOM      1  C1  GAD B   1      16.791  33.426  74.2980  0.00  0.00     0.000 C
ATOM      2  C2  GAD B   1      15.626  34.329  73.8800  0.00  0.00     0.000 C
ATOM      3  C3  GAD B   1      14.298  33.577  74.0280  0.00  0.00     0.000 C
ATOM      4  C4  GAD B   1      14.390  32.069  73.7800  0.00  0.00     0.000 C
ATOM      5  C5  GAD B   1      15.546  31.399  73.6020  0.00  0.00     0.000 C
ATOM      6  O5  GAD B   1      16.762  32.172  73.6000  0.00  0.00     0.000 O
ATOM      7   O  GAD B   1      15.645  35.607  74.6170  0.00  0.00     0.000 O
ATOM      9  HD  GAD B   1      16.448  35.334  74.7900  0.00  0.00     0.000 HD
ATOM      9   O  GAD B   1      13.301  34.074  73.1080  0.00  0.00     0.000 O
ATOM     11  HD  GAD B   1      14.104  33.801  73.2800  0.00  0.00     0.000 HD
ENDROOT
BRANCH 5 11
ATOM     11   C  GAD B   1      15.656  29.928  73.4670  0.00  0.00     0.000 C
ATOM     12   O  GAD B   1      15.592  29.246  74.5370  0.00  0.00     0.000 OA
ATOM     13   O  GAD B   1      15.887  29.400  72.3180  0.00  0.00     0.000 OA
ENDBRANCH 5 11
BRANCH 1 14
ATOM     14  O3  ASG B   2      18.065  33.616  73.9090  0.00  0.00     0.000 O
BRANCH 14 17
ATOM     15  C1  ASG B   2      20.385  34.249  70.9940  0.00  0.00     0.000 C
ATOM     16  C2  ASG B   2      19.878  33.556  72.2670  0.00  0.00     0.000 C
ATOM     17  C3  ASG B   2      18.582  34.231  72.7230  0.00  0.00     0.000 C
ATOM     18  C4  ASG B   2      18.827  35.706  72.9780  0.00  0.00     0.000 C
ATOM     19  C5  ASG B   2      19.447  36.331  71.7320  0.00  0.00     0.000 C
ATOM     20  O5  ASG B   2      20.626  35.598  71.3470  0.00  0.00     0.000 O
ATOM     21   C  ASG B   2      19.877  37.747  71.9480  0.00  0.00     0.000 C
ATOM     22   O  ASG B   2      20.623  38.181  70.8370  0.00  0.00     0.000 O
ATOM     24  HD  ASG B   2      21.092  38.579  70.2280  0.00  0.00     0.000 HD
BRANCH 16 26
ATOM     24   N  ASG B   2      19.735  32.123  72.1420  0.00  0.00     0.000 N
ATOM     26  HD  ASG B   2      20.298  32.575  71.6630  0.00  0.00     0.000 HD
ATOM     26   C  ASG B   2      19.948  31.255  73.1480  0.00  0.00     0.000 C
ATOM     27   C  ASG B   2      19.428  29.874  72.9420  0.00  0.00     0.000 C
ATOM     28   O  ASG B   2      20.534  31.586  74.1710  0.00  0.00     0.000 OA
ENDBRANCH 16 26
BRANCH 18 29
ATOM     29   O  ASG B   2      19.707  35.784  74.1520  0.00  0.00     0.000 O
ATOM     30   O  ASG B   2      18.769  37.906  74.9650  0.00  0.00     0.000 OA
ATOM     31   O  ASG B   2      18.236  35.830  76.1060  0.00  0.00     0.000 OA
ATOM     32   O  ASG B   2      20.471  36.743  76.2350  0.00  0.00     0.000 OA
ATOM     33   S  ASG B   2      19.246  36.622  75.4440  0.00  0.00     0.000 S
ENDBRANCH 18 29
BRANCH 15 34
ATOM     34  O4  ASG B   3      21.569  33.700  70.4890  0.00  0.00     0.000 O
BRANCH 34 38
ATOM     35  C1  GCT B   3      20.602  31.546  67.2040  0.00  0.00     0.000 C
ATOM     36  C2  GCT B   3      22.082  31.552  67.5240  0.00  0.00     0.000 C
ATOM     37  C3  GCT B   3      22.323  31.987  68.9620  0.00  0.00     0.000 C
ATOM     38  C4  GCT B   3      21.755  33.397  69.1640  0.00  0.00     0.000 C
ATOM     39  C5  GCT B   3      20.484  33.637  68.3180  0.00  0.00     0.000 C
ATOM     40  O5  GCT B   3      19.886  32.369  68.1190  0.00  0.00     0.000 O
ATOM     41   O  GCT B   3      22.541  30.223  67.3270  0.00  0.00     0.000 O
ATOM     43  HD  GCT B   3      22.721  29.770  66.6110  0.00  0.00     0.000 HD
ATOM     43   O  GCT B   3      23.739  31.908  69.2340  0.00  0.00     0.000 O
ATOM     45  HD  GCT B   3      23.919  31.456  68.5180  0.00  0.00     0.000 HD
BRANCH 39 45
ATOM     45   C  GCT B   3      20.629  34.337  66.9840  0.00  0.00     0.000 C
ATOM     46   O  GCT B   3      19.602  34.522  66.2580  0.00  0.00     0.000 OA
ATOM     47   O  GCT B   3      21.763  34.722  66.6540  0.00  0.00     0.000 OA
ENDBRANCH 39 45
BRANCH 35 48
ATOM     48  O3  ASG B   4      20.439  31.427  65.9040  0.00  0.00     0.000 O
BRANCH 48 51
ATOM     49  C1  ASG B   4      18.225  28.471  65.6800  0.00  0.00     0.000 C
ATOM     50  C2  ASG B   4      19.404  29.365  66.0980  0.00  0.00     0.000 C
ATOM     51  C3  ASG B   4      19.189  30.808  65.6520  0.00  0.00     0.000 C
ATOM     52  C4  ASG B   4      18.814  30.879  64.1800  0.00  0.00     0.000 C
ATOM     53  C5  ASG B   4      17.607  29.974  63.9540  0.00  0.00     0.000 C
ATOM     54  O5  ASG B   4      17.963  28.619  64.2940  0.00  0.00     0.000 O
BRANCH 50 57
ATOM     55   N  ASG B   4      19.089  28.684  67.3330  0.00  0.00     0.000 N
ATOM     57  HD  ASG B   4      19.610  28.001  67.2230  0.00  0.00     0.000 HD
ATOM     57   O  ASG B   4      21.058  27.627  67.4780  0.00  0.00     0.000 OA
ATOM     58   C  ASG B   4      19.987  27.943  67.9880  0.00  0.00     0.000 C
ATOM     59   C  ASG B   4      19.576  27.483  69.3530  0.00  0.00     0.000 C
ENDBRANCH 50 57
BRANCH 52 60
ATOM     60   O  ASG B   4      20.052  30.444  63.4850  0.00  0.00     0.000 O
ATOM     61   O  ASG B   4      20.103  32.472  62.0310  0.00  0.00     0.000 OA
ATOM     62   O  ASG B   4      21.899  30.911  61.9500  0.00  0.00     0.000 OA
ATOM     63   O  ASG B   4      19.725  30.225  61.2280  0.00  0.00     0.000 OA
ATOM     64   S  ASG B   4      20.507  31.108  62.0980  0.00  0.00     0.000 S
ENDBRANCH 52 60
ATOM     65   O  ASG B   4      15.770  29.394  62.4810  0.00  0.00     0.000 O
ATOM     67  HD  ASG B   4      15.959  28.553  62.5700  0.00  0.00     0.000 HD
ATOM     67   O  ASG B   4      15.770  29.394  62.4810  0.00  0.00     0.000 O
ATOM     69  HD  ASG B   4      15.959  28.553  62.5700  0.00  0.00     0.000 HD
ENDBRANCH 48 51
ENDBRANCH 35 48
ENDBRANCH 34 38
ENDBRANCH 15 34
ENDBRANCH 14 17
ENDBRANCH 1 14
TORSDOF 12
ENDMDL
MODEL 75
REMARK VINA RESULT:      -6.7      8.567     11.720
ROOT
ATOM      1  C1  GAD B   1      17.624  26.904  33.6270  0.00  0.00     0.000 C
ATOM      2  C2  GAD B   1      16.830  27.439  34.8220  0.00  0.00     0.000 C
ATOM      3  C3  GAD B   1      15.368  27.672  34.4220  0.00  0.00     0.000 C
ATOM      4  C4  GAD B   1      15.168  28.085  32.9610  0.00  0.00     0.000 C
ATOM      5  C5  GAD B   1      16.148  28.100  32.0360  0.00  0.00     0.000 C
ATOM      6  O5  GAD B   1      17.474  27.746  32.4740  0.00  0.00     0.000 O
ATOM      7   O  GAD B   1      16.968  26.557  35.9980  0.00  0.00     0.000 O
ATOM      9  HD  GAD B   1      17.623  26.256  35.5190  0.00  0.00     0.000 HD
ATOM      9   O  GAD B   1      14.758  28.711  35.2190  0.00  0.00     0.000 O
ATOM     11  HD  GAD B   1      15.414  28.409  34.7410  0.00  0.00     0.000 HD
ENDROOT
BRANCH 5 11
ATOM     11   C  GAD B   1      15.945  28.395  30.5980  0.00  0.00     0.000 C
ATOM     12   O  GAD B   1      14.937  27.863  30.0380  0.00  0.00     0.000 OA
ATOM     13   O  GAD B   1      16.812  29.093  29.9530  0.00  0.00     0.000 OA
ENDBRANCH 5 11
BRANCH 1 14
ATOM     14  O3  ASG B   2      18.963  26.988  33.5160  0.00  0.00     0.000 O
BRANCH 14 17
ATOM     15  C1  ASG B   2      22.149  28.462  34.9160  0.00  0.00     0.000 C
ATOM     16  C2  ASG B   2      21.134  28.073  33.8310  0.00  0.00     0.000 C
ATOM     17  C3  ASG B   2      19.943  27.369  34.4890  0.00  0.00     0.000 C
ATOM     18  C4  ASG B   2      20.418  26.141  35.2420  0.00  0.00     0.000 C
ATOM     19  C5  ASG B   2      21.514  26.550  36.2220  0.00  0.00     0.000 C
ATOM     20  O5  ASG B   2      22.562  27.253  35.5240  0.00  0.00     0.000 O
ATOM     21   C  ASG B   2      22.159  25.380  36.8910  0.00  0.00     0.000 C
ATOM     22   O  ASG B   2      23.288  25.816  37.6070  0.00  0.00     0.000 O
ATOM     24  HD  ASG B   2      23.998  25.940  38.0870  0.00  0.00     0.000 HD
BRANCH 16 26
ATOM     24   N  ASG B   2      20.964  28.042  32.3970  0.00  0.00     0.000 N
ATOM     26  HD  ASG B   2      20.593  27.459  32.9190  0.00  0.00     0.000 HD
ATOM     26   C  ASG B   2      20.417  29.043  31.6820  0.00  0.00     0.000 C
ATOM     27   C  ASG B   2      20.633  28.990  30.2090  0.00  0.00     0.000 C
ATOM     28   O  ASG B   2      19.780  29.942  32.2160  0.00  0.00     0.000 OA
ENDBRANCH 16 26
BRANCH 18 29
ATOM     29   O  ASG B   2      20.887  25.186  34.2290  0.00  0.00     0.000 O
ATOM     30   O  ASG B   2      20.250  23.194  35.5210  0.00  0.00     0.000 OA
ATOM     31   O  ASG B   2      18.936  23.857  33.5900  0.00  0.00     0.000 OA
ATOM     32   O  ASG B   2      21.168  22.977  33.2910  0.00  0.00     0.000 OA
ATOM     33   S  ASG B   2      20.253  23.711  34.1650  0.00  0.00     0.000 S
ENDBRANCH 18 29
BRANCH 15 34
ATOM     34  O4  ASG B   3      23.279  29.120  34.4170  0.00  0.00     0.000 O
BRANCH 34 38
ATOM     35  C1  GCT B   3      23.565  32.143  37.0900  0.00  0.00     0.000 C
ATOM     36  C2  GCT B   3      22.788  32.497  35.8410  0.00  0.00     0.000 C
ATOM     37  C3  GCT B   3      22.347  31.240  35.1030  0.00  0.00     0.000 C
ATOM     38  C4  GCT B   3      23.585  30.423  34.7150  0.00  0.00     0.000 C
ATOM     39  C5  GCT B   3      24.711  30.540  35.7680  0.00  0.00     0.000 C
ATOM     40  O5  GCT B   3      24.079  30.818  37.0060  0.00  0.00     0.000 O
ATOM     41   O  GCT B   3      21.655  33.240  36.2690  0.00  0.00     0.000 O
ATOM     43  HD  GCT B   3      21.564  34.060  36.5300  0.00  0.00     0.000 HD
ATOM     43   O  GCT B   3      21.553  31.632  33.9630  0.00  0.00     0.000 O
ATOM     45  HD  GCT B   3      21.462  32.452  34.2250  0.00  0.00     0.000 HD
BRANCH 39 45
ATOM     45   C  GCT B   3      25.814  31.548  35.5330  0.00  0.00     0.000 C
ATOM     46   O  GCT B   3      26.768  31.641  36.3680  0.00  0.00     0.000 OA
ATOM     47   O  GCT B   3      25.750  32.247  34.5080  0.00  0.00     0.000 OA
ENDBRANCH 39 45
BRANCH 35 48
ATOM     48  O3  ASG B   4      24.152  33.224  37.5580  0.00  0.00     0.000 O
BRANCH 48 51
ATOM     49  C1  ASG B   4      23.820  34.309  41.0790  0.00  0.00     0.000 C
ATOM     50  C2  ASG B   4      23.526  34.169  39.5760  0.00  0.00     0.000 C
ATOM     51  C3  ASG B   4      24.371  33.064  38.9490  0.00  0.00     0.000 C
ATOM     52  C4  ASG B   4      25.840  33.223  39.3080  0.00  0.00     0.000 C
ATOM     53  C5  ASG B   4      25.950  33.301  40.8280  0.00  0.00     0.000 C
ATOM     54  O5  ASG B   4      25.214  34.449  41.2970  0.00  0.00     0.000 O
BRANCH 50 57
ATOM     55   N  ASG B   4      22.102  33.946  39.6790  0.00  0.00     0.000 N
ATOM     57  HD  ASG B   4      21.872  34.759  39.8720  0.00  0.00     0.000 HD
ATOM     57   O  ASG B   4      21.539  36.046  39.1410  0.00  0.00     0.000 OA
ATOM     58   C  ASG B   4      21.207  34.883  39.3490  0.00  0.00     0.000 C
ATOM     59   C  ASG B   4      19.781  34.429  39.3040  0.00  0.00     0.000 C
ENDBRANCH 50 57
BRANCH 52 60
ATOM     60   O  ASG B   4      26.239  34.464  38.5950  0.00  0.00     0.000 O
ATOM     61   O  ASG B   4      28.588  33.679  38.2780  0.00  0.00     0.000 OA
ATOM     62   O  ASG B   4      27.878  35.724  37.2860  0.00  0.00     0.000 OA
ATOM     63   O  ASG B   4      27.947  35.547  39.6700  0.00  0.00     0.000 OA
ATOM     64   S  ASG B   4      27.782  34.849  38.3920  0.00  0.00     0.000 S
ENDBRANCH 52 60
ATOM     65   O  ASG B   4      27.414  33.133  42.7540  0.00  0.00     0.000 O
ATOM     67  HD  ASG B   4      27.077  33.862  43.0780  0.00  0.00     0.000 HD
ATOM     67   O  ASG B   4      27.414  33.133  42.7540  0.00  0.00     0.000 O
ATOM     69  HD  ASG B   4      27.077  33.862  43.0780  0.00  0.00     0.000 HD
ENDBRANCH 48 51
ENDBRANCH 35 48
ENDBRANCH 34 38
ENDBRANCH 15 34
ENDBRANCH 14 17
ENDBRANCH 1 14
TORSDOF 12
ENDMDL
MODEL 76
REMARK VINA RESULT:      -6.7     21.267     25.015
ROOT
ATOM      1  C1  GAD B   1      19.606  51.318  47.9120  0.00  0.00     0.000 C
ATOM      2  C2  GAD B   1      18.733  51.674  46.7050  0.00  0.00     0.000 C
ATOM      3  C3  GAD B   1      19.151  50.838  45.4890  0.00  0.00     0.000 C
ATOM      4  C4  GAD B   1      20.640  50.488  45.4400  0.00  0.00     0.000 C
ATOM      5  C5  GAD B   1      21.512  50.737  46.4380  0.00  0.00     0.000 C
ATOM      6  O5  GAD B   1      21.004  51.419  47.6000  0.00  0.00     0.000 O
ATOM      7   O  GAD B   1      17.298  51.545  47.0230  0.00  0.00     0.000 O
ATOM      9  HD  GAD B   1      17.620  51.537  47.8260  0.00  0.00     0.000 HD
ATOM      9   O  GAD B   1      18.859  51.521  44.2500  0.00  0.00     0.000 O
ATOM     11  HD  GAD B   1      19.181  51.514  45.0530  0.00  0.00     0.000 HD
ENDROOT
BRANCH 5 11
ATOM     11   C  GAD B   1      22.930  50.308  46.4450  0.00  0.00     0.000 C
ATOM     12   O  GAD B   1      23.354  49.703  45.4120  0.00  0.00     0.000 OA
ATOM     13   O  GAD B   1      23.651  50.481  47.4960  0.00  0.00     0.000 OA
ENDBRANCH 5 11
BRANCH 1 14
ATOM     14  O3  ASG B   2      19.783  52.125  48.9760  0.00  0.00     0.000 O
BRANCH 14 17
ATOM     15  C1  ASG B   2      18.025  54.938  50.7850  0.00  0.00     0.000 C
ATOM     16  C2  ASG B   2      19.092  54.285  49.8950  0.00  0.00     0.000 C
ATOM     17  C3  ASG B   2      18.814  52.782  49.8010  0.00  0.00     0.000 C
ATOM     18  C4  ASG B   2      18.823  52.165  51.1870  0.00  0.00     0.000 C
ATOM     19  C5  ASG B   2      17.841  52.922  52.0750  0.00  0.00     0.000 C
ATOM     20  O5  ASG B   2      18.145  54.331  52.0580  0.00  0.00     0.000 O
ATOM     21   C  ASG B   2      17.903  52.491  53.5060  0.00  0.00     0.000 C
ATOM     22   O  ASG B   2      17.135  53.369  54.2910  0.00  0.00     0.000 O
ATOM     24  HD  ASG B   2      16.703  53.822  54.8900  0.00  0.00     0.000 HD
BRANCH 16 26
ATOM     24   N  ASG B   2      19.223  54.841  48.5690  0.00  0.00     0.000 N
ATOM     26  HD  ASG B   2      18.882  55.290  49.2260  0.00  0.00     0.000 HD
ATOM     26   C  ASG B   2      20.398  54.993  47.9290  0.00  0.00     0.000 C
ATOM     27   C  ASG B   2      20.317  55.255  46.4640  0.00  0.00     0.000 C
ATOM     28   O  ASG B   2      21.468  54.918  48.5200  0.00  0.00     0.000 OA
ENDBRANCH 16 26
BRANCH 18 29
ATOM     29   O  ASG B   2      20.208  52.245  51.6700  0.00  0.00     0.000 O
ATOM     30   O  ASG B   2      20.130  50.097  52.8620  0.00  0.00     0.000 OA
ATOM     31   O  ASG B   2      21.358  50.281  50.7760  0.00  0.00     0.000 OA
ATOM     32   O  ASG B   2      22.180  51.381  52.7650  0.00  0.00     0.000 OA
ATOM     33   S  ASG B   2      21.009  50.900  52.0330  0.00  0.00     0.000 S
ENDBRANCH 18 29
BRANCH 15 34
ATOM     34  O4  ASG B   3      18.187  56.320  50.9330  0.00  0.00     0.000 O
BRANCH 34 38
ATOM     35  C1  GCT B   3      14.637  57.347  52.5790  0.00  0.00     0.000 C
ATOM     36  C2  GCT B   3      14.654  57.404  51.0670  0.00  0.00     0.000 C
ATOM     37  C3  GCT B   3      15.826  56.610  50.5080  0.00  0.00     0.000 C
ATOM     38  C4  GCT B   3      17.136  57.194  51.0530  0.00  0.00     0.000 C
ATOM     39  C5  GCT B   3      16.976  57.733  52.4920  0.00  0.00     0.000 C
ATOM     40  O5  GCT B   3      15.920  56.996  53.0850  0.00  0.00     0.000 O
ATOM     41   O  GCT B   3      13.425  56.843  50.6280  0.00  0.00     0.000 O
ATOM     43  HD  GCT B   3      12.618  57.156  50.6070  0.00  0.00     0.000 HD
ATOM     43   O  GCT B   3      15.756  56.639  49.0670  0.00  0.00     0.000 O
ATOM     45  HD  GCT B   3      14.949  56.952  49.0460  0.00  0.00     0.000 HD
BRANCH 39 45
ATOM     45   C  GCT B   3      16.722  59.212  52.6830  0.00  0.00     0.000 C
ATOM     46   O  GCT B   3      16.583  59.961  51.6650  0.00  0.00     0.000 OA
ATOM     47   O  GCT B   3      16.645  59.640  53.8460  0.00  0.00     0.000 OA
ENDBRANCH 39 45
BRANCH 35 48
ATOM     48  O3  ASG B   4      13.789  58.242  53.0380  0.00  0.00     0.000 O
BRANCH 48 51
ATOM     49  C1  ASG B   4      10.513  57.932  54.7300  0.00  0.00     0.000 C
ATOM     50  C2  ASG B   4      11.565  58.320  53.6780  0.00  0.00     0.000 C
ATOM     51  C3  ASG B   4      12.891  57.610  53.9340  0.00  0.00     0.000 C
ATOM     52  C4  ASG B   4      13.332  57.772  55.3800  0.00  0.00     0.000 C
ATOM     53  C5  ASG B   4      12.192  57.302  56.2790  0.00  0.00     0.000 C
ATOM     54  O5  ASG B   4      11.031  58.120  56.0370  0.00  0.00     0.000 O
BRANCH 50 57
ATOM     55   N  ASG B   4      11.076  58.001  52.3560  0.00  0.00     0.000 N
ATOM     57  HD  ASG B   4      10.416  58.562  52.3390  0.00  0.00     0.000 HD
ATOM     57   O  ASG B   4      10.177  60.019  51.9910  0.00  0.00     0.000 OA
ATOM     58   C  ASG B   4      10.505  58.916  51.5660  0.00  0.00     0.000 C
ATOM     59   C  ASG B   4      10.250  58.484  50.1550  0.00  0.00     0.000 C
ENDBRANCH 50 57
BRANCH 52 60
ATOM     60   O  ASG B   4      13.646  59.221  55.4860  0.00  0.00     0.000 O
ATOM     61   O  ASG B   4      15.376  58.847  57.2470  0.00  0.00     0.000 OA
ATOM     62   O  ASG B   4      15.051  61.028  56.3480  0.00  0.00     0.000 OA
ATOM     63   O  ASG B   4      13.290  60.011  57.6060  0.00  0.00     0.000 OA
ATOM     64   S  ASG B   4      14.455  59.808  56.7390  0.00  0.00     0.000 S
ENDBRANCH 52 60
ATOM     65   O  ASG B   4      11.544  56.590  58.5050  0.00  0.00     0.000 O
ATOM     67  HD  ASG B   4      10.855  57.114  58.4750  0.00  0.00     0.000 HD
ATOM     67   O  ASG B   4      11.544  56.590  58.5050  0.00  0.00     0.000 O
ATOM     69  HD  ASG B   4      10.855  57.114  58.4750  0.00  0.00     0.000 HD
ENDBRANCH 48 51
ENDBRANCH 35 48
ENDBRANCH 34 38
ENDBRANCH 15 34
ENDBRANCH 14 17
ENDBRANCH 1 14
TORSDOF 12
ENDMDL
MODEL 77
REMARK VINA RESULT:      -6.7     38.091     43.192
ROOT
ATOM      1  C1  GAD B   1       8.927  46.027  79.5400  0.00  0.00     0.000 C
ATOM      2  C2  GAD B   1       8.904  44.496  79.5460  0.00  0.00     0.000 C
ATOM      3  C3  GAD B   1       7.772  43.990  80.4480  0.00  0.00     0.000 C
ATOM      4  C4  GAD B   1       7.465  44.891  81.6470  0.00  0.00     0.000 C
ATOM      5  C5  GAD B   1       8.009  46.109  81.8400  0.00  0.00     0.000 C
ATOM      6  O5  GAD B   1       8.976  46.559  80.8720  0.00  0.00     0.000 O
ATOM      7   O  GAD B   1       8.828  43.954  78.1750  0.00  0.00     0.000 O
ATOM      9  HD  GAD B   1       9.056  44.768  77.9910  0.00  0.00     0.000 HD
ATOM      9   O  GAD B   1       8.071  42.685  80.9940  0.00  0.00     0.000 O
ATOM     11  HD  GAD B   1       8.299  43.500  80.8100  0.00  0.00     0.000 HD
ENDROOT
BRANCH 5 11
ATOM     11   C  GAD B   1       7.641  47.033  82.9380  0.00  0.00     0.000 C
ATOM     12   O  GAD B   1       6.411  47.331  83.0510  0.00  0.00     0.000 OA
ATOM     13   O  GAD B   1       8.555  47.557  83.6760  0.00  0.00     0.000 OA
ENDBRANCH 5 11
BRANCH 1 14
ATOM     14  O3  ASG B   2      10.005  46.761  79.2040  0.00  0.00     0.000 O
BRANCH 14 17
ATOM     15  C1  ASG B   2      12.124  47.567  76.1810  0.00  0.00     0.000 C
ATOM     16  C2  ASG B   2      11.788  46.929  77.5360  0.00  0.00     0.000 C
ATOM     17  C3  ASG B   2      10.368  47.336  77.9440  0.00  0.00     0.000 C
ATOM     18  C4  ASG B   2      10.265  48.847  78.0240  0.00  0.00     0.000 C
ATOM     19  C5  ASG B   2      10.727  49.449  76.7000  0.00  0.00     0.000 C
ATOM     20  O5  ASG B   2      12.045  48.967  76.3720  0.00  0.00     0.000 O
ATOM     21   C  ASG B   2      10.817  50.940  76.7420  0.00  0.00     0.000 C
ATOM     22   O  ASG B   2      11.446  51.402  75.5720  0.00  0.00     0.000 O
ATOM     24  HD  ASG B   2      11.811  51.824  74.9100  0.00  0.00     0.000 HD
BRANCH 16 26
ATOM     24   N  ASG B   2      12.038  45.506  77.5650  0.00  0.00     0.000 N
ATOM     26  HD  ASG B   2      12.501  46.047  77.0720  0.00  0.00     0.000 HD
ATOM     26   C  ASG B   2      12.385  44.825  78.6720  0.00  0.00     0.000 C
ATOM     27   C  ASG B   2      12.267  43.341  78.5920  0.00  0.00     0.000 C
ATOM     28   O  ASG B   2      12.774  45.395  79.6840  0.00  0.00     0.000 OA
ENDBRANCH 16 26
BRANCH 18 29
ATOM     29   O  ASG B   2      11.099  49.262  79.1600  0.00  0.00     0.000 O
ATOM     30   O  ASG B   2       9.835  51.325  79.5950  0.00  0.00     0.000 OA
ATOM     31   O  ASG B   2       9.600  49.423  81.0850  0.00  0.00     0.000 OA
ATOM     32   O  ASG B   2      11.668  50.674  81.0370  0.00  0.00     0.000 OA
ATOM     33   S  ASG B   2      10.491  50.232  80.2880  0.00  0.00     0.000 S
ENDBRANCH 18 29
BRANCH 15 34
ATOM     34  O4  ASG B   3      13.404  47.251  75.7140  0.00  0.00     0.000 O
BRANCH 34 38
ATOM     35  C1  GCT B   3      16.093  48.337  72.8930  0.00  0.00     0.000 C
ATOM     36  C2  GCT B   3      16.566  48.560  74.3130  0.00  0.00     0.000 C
ATOM     37  C3  GCT B   3      15.730  47.753  75.2960  0.00  0.00     0.000 C
ATOM     38  C4  GCT B   3      14.261  48.178  75.1770  0.00  0.00     0.000 C
ATOM     39  C5  GCT B   3      13.884  48.563  73.7290  0.00  0.00     0.000 C
ATOM     40  O5  GCT B   3      14.758  47.842  72.8780  0.00  0.00     0.000 O
ATOM     41   O  GCT B   3      17.922  48.140  74.3570  0.00  0.00     0.000 O
ATOM     43  HD  GCT B   3      18.654  48.510  74.0800  0.00  0.00     0.000 HD
ATOM     43   O  GCT B   3      16.265  47.947  76.6220  0.00  0.00     0.000 O
ATOM     45  HD  GCT B   3      16.997  48.317  76.3450  0.00  0.00     0.000 HD
BRANCH 39 45
ATOM     45   C  GCT B   3      13.907  50.026  73.3440  0.00  0.00     0.000 C
ATOM     46   O  GCT B   3      13.689  50.361  72.1370  0.00  0.00     0.000 OA
ATOM     47   O  GCT B   3      14.127  50.856  74.2410  0.00  0.00     0.000 OA
ENDBRANCH 39 45
BRANCH 35 48
ATOM     48  O3  ASG B   4      16.646  49.233  72.1040  0.00  0.00     0.000 O
BRANCH 48 51
ATOM     49  C1  ASG B   4      18.386  47.471  69.3550  0.00  0.00     0.000 C
ATOM     50  C2  ASG B   4      18.018  47.921  70.7790  0.00  0.00     0.000 C
ATOM     51  C3  ASG B   4      16.712  48.710  70.7880  0.00  0.00     0.000 C
ATOM     52  C4  ASG B   4      16.730  49.816  69.7450  0.00  0.00     0.000 C
ATOM     53  C5  ASG B   4      17.066  49.188  68.3950  0.00  0.00     0.000 C
ATOM     54  O5  ASG B   4      18.369  48.578  68.4690  0.00  0.00     0.000 O
BRANCH 50 57
ATOM     55   N  ASG B   4      18.250  46.516  71.0240  0.00  0.00     0.000 N
ATOM     57  HD  ASG B   4      19.102  46.563  71.1690  0.00  0.00     0.000 HD
ATOM     57   O  ASG B   4      20.041  46.840  72.3280  0.00  0.00     0.000 OA
ATOM     58   C  ASG B   4      19.189  46.085  71.8720  0.00  0.00     0.000 C
ATOM     59   C  ASG B   4      19.161  44.619  72.1790  0.00  0.00     0.000 C
ENDBRANCH 50 57
BRANCH 52 60
ATOM     60   O  ASG B   4      17.754  50.762  70.2590  0.00  0.00     0.000 O
ATOM     61   O  ASG B   4      16.089  52.596  70.5700  0.00  0.00     0.000 OA
ATOM     62   O  ASG B   4      18.335  52.897  71.3000  0.00  0.00     0.000 OA
ATOM     63   O  ASG B   4      17.893  52.646  68.9640  0.00  0.00     0.000 OA
ATOM     64   S  ASG B   4      17.470  52.338  70.3330  0.00  0.00     0.000 S
ENDBRANCH 52 60
ATOM     65   O  ASG B   4      17.048  49.461  65.9850  0.00  0.00     0.000 O
ATOM     67  HD  ASG B   4      17.864  49.172  65.9440  0.00  0.00     0.000 HD
ATOM     67   O  ASG B   4      17.048  49.461  65.9850  0.00  0.00     0.000 O
ATOM     69  HD  ASG B   4      17.864  49.172  65.9440  0.00  0.00     0.000 HD
ENDBRANCH 48 51
ENDBRANCH 35 48
ENDBRANCH 34 38
ENDBRANCH 15 34
ENDBRANCH 14 17
ENDBRANCH 1 14
TORSDOF 12
ENDMDL
MODEL 78
REMARK VINA RESULT:      -6.7     23.864     29.922
ROOT
ATOM      1  C1  GAD B   1      22.140  22.079  54.2590  0.00  0.00     0.000 C
ATOM      2  C2  GAD B   1      21.689  21.093  53.1770  0.00  0.00     0.000 C
ATOM      3  C3  GAD B   1      21.776  21.752  51.7950  0.00  0.00     0.000 C
ATOM      4  C4  GAD B   1      21.512  23.260  51.7930  0.00  0.00     0.000 C
ATOM      5  C5  GAD B   1      21.370  24.007  52.9060  0.00  0.00     0.000 C
ATOM      6  O5  GAD B   1      21.426  23.321  54.1710  0.00  0.00     0.000 O
ATOM      7   O  GAD B   1      22.443  19.827  53.2550  0.00  0.00     0.000 O
ATOM      9  HD  GAD B   1      22.643  20.157  54.0300  0.00  0.00     0.000 HD
ATOM      9   O  GAD B   1      20.823  21.178  50.8720  0.00  0.00     0.000 O
ATOM     11  HD  GAD B   1      21.023  21.508  51.6480  0.00  0.00     0.000 HD
ENDROOT
BRANCH 5 11
ATOM     11   C  GAD B   1      21.221  25.482  52.9190  0.00  0.00     0.000 C
ATOM     12   O  GAD B   1      20.988  26.046  51.8040  0.00  0.00     0.000 OA
ATOM     13   O  GAD B   1      21.405  26.140  54.0080  0.00  0.00     0.000 OA
ENDBRANCH 5 11
BRANCH 1 14
ATOM     14  O3  ASG B   2      21.804  21.975  55.5580  0.00  0.00     0.000 O
BRANCH 14 17
ATOM     15  C1  ASG B   2      19.879  23.756  58.2790  0.00  0.00     0.000 C
ATOM     16  C2  ASG B   2      21.117  23.190  57.5680  0.00  0.00     0.000 C
ATOM     17  C3  ASG B   2      20.681  22.518  56.2630  0.00  0.00     0.000 C
ATOM     18  C4  ASG B   2      19.682  21.415  56.5570  0.00  0.00     0.000 C
ATOM     19  C5  ASG B   2      18.528  21.992  57.3710  0.00  0.00     0.000 C
ATOM     20  O5  ASG B   2      19.037  22.651  58.5480  0.00  0.00     0.000 O
ATOM     21   C  ASG B   2      17.576  20.943  57.8500  0.00  0.00     0.000 C
ATOM     22   O  ASG B   2      16.671  21.516  58.7610  0.00  0.00     0.000 O
ATOM     24  HD  ASG B   2      16.054  21.731  59.3290  0.00  0.00     0.000 HD
BRANCH 16 26
ATOM     24   N  ASG B   2      22.528  23.011  57.8200  0.00  0.00     0.000 N
ATOM     26  HD  ASG B   2      22.058  22.428  57.3860  0.00  0.00     0.000 HD
ATOM     26   C  ASG B   2      23.483  23.855  57.3860  0.00  0.00     0.000 C
ATOM     27   C  ASG B   2      24.824  23.708  58.0190  0.00  0.00     0.000 C
ATOM     28   O  ASG B   2      23.258  24.694  56.5230  0.00  0.00     0.000 OA
ENDBRANCH 16 26
BRANCH 18 29
ATOM     29   O  ASG B   2      20.418  20.366  57.2750  0.00  0.00     0.000 O
ATOM     30   O  ASG B   2      19.035  18.524  56.4140  0.00  0.00     0.000 OA
ATOM     31   O  ASG B   2      21.286  18.848  55.5650  0.00  0.00     0.000 OA
ATOM     32   O  ASG B   2      20.948  18.075  57.8300  0.00  0.00     0.000 OA
ATOM     33   S  ASG B   2      20.415  18.859  56.7160  0.00  0.00     0.000 S
ENDBRANCH 18 29
BRANCH 15 34
ATOM     34  O4  ASG B   3      20.171  24.400  59.4860  0.00  0.00     0.000 O
BRANCH 34 38
ATOM     35  C1  GCT B   3      19.202  26.720  62.6560  0.00  0.00     0.000 C
ATOM     36  C2  GCT B   3      18.168  25.666  62.3250  0.00  0.00     0.000 C
ATOM     37  C3  GCT B   3      18.765  24.579  61.4420  0.00  0.00     0.000 C
ATOM     38  C4  GCT B   3      19.279  25.210  60.1430  0.00  0.00     0.000 C
ATOM     39  C5  GCT B   3      19.832  26.636  60.3710  0.00  0.00     0.000 C
ATOM     40  O5  GCT B   3      20.271  26.689  61.7170  0.00  0.00     0.000 O
ATOM     41   O  GCT B   3      17.741  25.116  63.5630  0.00  0.00     0.000 O
ATOM     43  HD  GCT B   3      17.208  25.413  64.1780  0.00  0.00     0.000 HD
ATOM     43   O  GCT B   3      17.760  23.568  61.2150  0.00  0.00     0.000 O
ATOM     45  HD  GCT B   3      17.227  23.865  61.8300  0.00  0.00     0.000 HD
BRANCH 39 45
ATOM     45   C  GCT B   3      18.923  27.813  60.0940  0.00  0.00     0.000 C
ATOM     46   O  GCT B   3      17.750  27.608  59.6470  0.00  0.00     0.000 OA
ATOM     47   O  GCT B   3      19.361  28.950  60.3320  0.00  0.00     0.000 OA
ENDBRANCH 39 45
BRANCH 35 48
ATOM     48  O3  ASG B   4      18.604  27.764  63.1870  0.00  0.00     0.000 O
BRANCH 48 51
ATOM     49  C1  ASG B   4      19.267  28.989  66.6150  0.00  0.00     0.000 C
ATOM     50  C2  ASG B   4      18.613  28.215  65.4580  0.00  0.00     0.000 C
ATOM     51  C3  ASG B   4      19.445  28.320  64.1830  0.00  0.00     0.000 C
ATOM     52  C4  ASG B   4      19.801  29.765  63.8750  0.00  0.00     0.000 C
ATOM     53  C5  ASG B   4      20.477  30.360  65.1080  0.00  0.00     0.000 C
ATOM     54  O5  ASG B   4      19.557  30.319  66.2160  0.00  0.00     0.000 O
BRANCH 50 57
ATOM     55   N  ASG B   4      18.582  27.037  66.2930  0.00  0.00     0.000 N
ATOM     57  HD  ASG B   4      17.875  27.240  66.7510  0.00  0.00     0.000 HD
ATOM     57   O  ASG B   4      16.369  27.099  66.6310  0.00  0.00     0.000 OA
ATOM     58   C  ASG B   4      17.438  26.505  66.7340  0.00  0.00     0.000 C
ATOM     59   C  ASG B   4      17.560  25.171  67.4040  0.00  0.00     0.000 C
ENDBRANCH 50 57
BRANCH 52 60
ATOM     60   O  ASG B   4      18.493  30.380  63.5300  0.00  0.00     0.000 O
ATOM     61   O  ASG B   4      19.546  32.122  62.0860  0.00  0.00     0.000 OA
ATOM     62   O  ASG B   4      17.174  31.955  62.2030  0.00  0.00     0.000 OA
ATOM     63   O  ASG B   4      18.397  32.579  64.1610  0.00  0.00     0.000 OA
ATOM     64   S  ASG B   4      18.404  31.847  62.8910  0.00  0.00     0.000 S
ENDBRANCH 52 60
ATOM     65   O  ASG B   4      21.852  32.156  65.9830  0.00  0.00     0.000 O
ATOM     67  HD  ASG B   4      21.308  32.251  66.6510  0.00  0.00     0.000 HD
ATOM     67   O  ASG B   4      21.852  32.156  65.9830  0.00  0.00     0.000 O
ATOM     69  HD  ASG B   4      21.308  32.251  66.6510  0.00  0.00     0.000 HD
ENDBRANCH 48 51
ENDBRANCH 35 48
ENDBRANCH 34 38
ENDBRANCH 15 34
ENDBRANCH 14 17
ENDBRANCH 1 14
TORSDOF 12
ENDMDL
MODEL 79
REMARK VINA RESULT:      -6.7     29.701     33.267
ROOT
ATOM      1  C1  GAD B   1      19.869  32.606  67.0110  0.00  0.00     0.000 C
ATOM      2  C2  GAD B   1      19.653  32.285  68.4930  0.00  0.00     0.000 C
ATOM      3  C3  GAD B   1      20.078  33.479  69.3570  0.00  0.00     0.000 C
ATOM      4  C4  GAD B   1      21.235  34.300  68.7810  0.00  0.00     0.000 C
ATOM      5  C5  GAD B   1      21.756  34.118  67.5520  0.00  0.00     0.000 C
ATOM      6  O5  GAD B   1      21.211  33.048  66.7570  0.00  0.00     0.000 O
ATOM      7   O  GAD B   1      18.266  31.855  68.7540  0.00  0.00     0.000 O
ATOM      9  HD  GAD B   1      18.278  31.774  67.8920  0.00  0.00     0.000 HD
ATOM      9   O  GAD B   1      20.501  33.057  70.6730  0.00  0.00     0.000 O
ATOM     11  HD  GAD B   1      20.513  32.976  69.8110  0.00  0.00     0.000 HD
ENDROOT
BRANCH 5 11
ATOM     11   C  GAD B   1      22.802  34.974  66.9450  0.00  0.00     0.000 C
ATOM     12   O  GAD B   1      22.753  35.137  65.6860  0.00  0.00     0.000 OA
ATOM     13   O  GAD B   1      23.751  35.449  67.6720  0.00  0.00     0.000 OA
ENDBRANCH 5 11
BRANCH 1 14
ATOM     14  O3  ASG B   2      19.992  31.671  66.0500  0.00  0.00     0.000 O
BRANCH 14 17
ATOM     15  C1  ASG B   2      18.930  28.124  65.2940  0.00  0.00     0.000 C
ATOM     16  C2  ASG B   2      19.901  29.258  65.6520  0.00  0.00     0.000 C
ATOM     17  C3  ASG B   2      19.128  30.579  65.7150  0.00  0.00     0.000 C
ATOM     18  C4  ASG B   2      18.458  30.851  64.3810  0.00  0.00     0.000 C
ATOM     19  C5  ASG B   2      17.600  29.648  64.0010  0.00  0.00     0.000 C
ATOM     20  O5  ASG B   2      18.396  28.447  64.0240  0.00  0.00     0.000 O
ATOM     21   C  ASG B   2      17.030  29.755  62.6230  0.00  0.00     0.000 C
ATOM     22   O  ASG B   2      16.437  28.531  62.2670  0.00  0.00     0.000 O
ATOM     24  HD  ASG B   2      16.037  27.846  61.9190  0.00  0.00     0.000 HD
BRANCH 16 26
ATOM     24   N  ASG B   2      20.652  29.076  66.8730  0.00  0.00     0.000 N
ATOM     26  HD  ASG B   2      20.309  28.410  66.4370  0.00  0.00     0.000 HD
ATOM     26   C  ASG B   2      21.937  29.445  67.0290  0.00  0.00     0.000 C
ATOM     27   C  ASG B   2      22.437  29.498  68.4320  0.00  0.00     0.000 C
ATOM     28   O  ASG B   2      22.649  29.720  66.0720  0.00  0.00     0.000 OA
ENDBRANCH 16 26
BRANCH 18 29
ATOM     29   O  ASG B   2      19.536  31.109  63.4170  0.00  0.00     0.000 O
ATOM     30   O  ASG B   2      18.255  32.759  62.1210  0.00  0.00     0.000 OA
ATOM     31   O  ASG B   2      20.045  33.495  63.5860  0.00  0.00     0.000 OA
ATOM     32   O  ASG B   2      20.562  32.273  61.5650  0.00  0.00     0.000 OA
ATOM     33   S  ASG B   2      19.590  32.510  62.6320  0.00  0.00     0.000 S
ENDBRANCH 18 29
BRANCH 15 34
ATOM     34  O4  ASG B   3      19.539  26.867  65.2170  0.00  0.00     0.000 O
BRANCH 34 38
ATOM     35  C1  GCT B   3      19.866  23.375  63.2020  0.00  0.00     0.000 C
ATOM     36  C2  GCT B   3      20.973  24.363  62.9050  0.00  0.00     0.000 C
ATOM     37  C3  GCT B   3      21.043  25.437  63.9820  0.00  0.00     0.000 C
ATOM     38  C4  GCT B   3      19.703  26.179  64.0410  0.00  0.00     0.000 C
ATOM     39  C5  GCT B   3      18.510  25.248  63.7290  0.00  0.00     0.000 C
ATOM     40  O5  GCT B   3      18.912  23.939  64.0950  0.00  0.00     0.000 O
ATOM     41   O  GCT B   3      22.181  23.617  62.8740  0.00  0.00     0.000 O
ATOM     43  HD  GCT B   3      22.523  23.090  62.2770  0.00  0.00     0.000 HD
ATOM     43   O  GCT B   3      22.156  26.309  63.6890  0.00  0.00     0.000 O
ATOM     45  HD  GCT B   3      22.497  25.782  63.0930  0.00  0.00     0.000 HD
BRANCH 39 45
ATOM     45   C  GCT B   3      17.962  25.228  62.3190  0.00  0.00     0.000 C
ATOM     46   O  GCT B   3      17.058  24.390  62.0090  0.00  0.00     0.000 OA
ATOM     47   O  GCT B   3      18.417  26.054  61.5110  0.00  0.00     0.000 OA
ENDBRANCH 39 45
BRANCH 35 48
ATOM     48  O3  ASG B   4      19.656  22.626  62.1410  0.00  0.00     0.000 O
BRANCH 48 51
ATOM     49  C1  ASG B   4      19.329  19.064  63.0870  0.00  0.00     0.000 C
ATOM     50  C2  ASG B   4      19.958  20.451  62.8750  0.00  0.00     0.000 C
ATOM     51  C3  ASG B   4      18.898  21.490  62.5210  0.00  0.00     0.000 C
ATOM     52  C4  ASG B   4      18.008  21.004  61.3890  0.00  0.00     0.000 C
ATOM     53  C5  ASG B   4      17.437  19.645  61.7840  0.00  0.00     0.000 C
ATOM     54  O5  ASG B   4      18.521  18.715  61.9750  0.00  0.00     0.000 O
BRANCH 50 57
ATOM     55   N  ASG B   4      20.544  20.191  64.1700  0.00  0.00     0.000 N
ATOM     57  HD  ASG B   4      21.233  19.743  63.8970  0.00  0.00     0.000 HD
ATOM     57   O  ASG B   4      22.641  20.018  63.4020  0.00  0.00     0.000 OA
ATOM     58   C  ASG B   4      21.865  20.097  64.3500  0.00  0.00     0.000 C
ATOM     59   C  ASG B   4      22.323  20.042  65.7750  0.00  0.00     0.000 C
ENDBRANCH 50 57
BRANCH 52 60
ATOM     60   O  ASG B   4      18.921  20.973  60.2170  0.00  0.00     0.000 O
ATOM     61   O  ASG B   4      17.297  22.183  58.7570  0.00  0.00     0.000 OA
ATOM     62   O  ASG B   4      19.478  21.683  57.9440  0.00  0.00     0.000 OA
ATOM     63   O  ASG B   4      17.978  19.888  58.4350  0.00  0.00     0.000 OA
ATOM     64   S  ASG B   4      18.385  21.264  58.7340  0.00  0.00     0.000 S
ENDBRANCH 52 60
ATOM     65   O  ASG B   4      15.736  17.971  61.3540  0.00  0.00     0.000 O
ATOM     67  HD  ASG B   4      16.338  17.348  61.3790  0.00  0.00     0.000 HD
ATOM     67   O  ASG B   4      15.736  17.971  61.3540  0.00  0.00     0.000 O
ATOM     69  HD  ASG B   4      16.338  17.348  61.3790  0.00  0.00     0.000 HD
ENDBRANCH 48 51
ENDBRANCH 35 48
ENDBRANCH 34 38
ENDBRANCH 15 34
ENDBRANCH 14 17
ENDBRANCH 1 14
TORSDOF 12
ENDMDL
MODEL 80
REMARK VINA RESULT:      -6.7     29.006     35.056
ROOT
ATOM      1  C1  GAD B   1      21.225  31.610  66.4730  0.00  0.00     0.000 C
ATOM      2  C2  GAD B   1      21.365  33.127  66.6330  0.00  0.00     0.000 C
ATOM      3  C3  GAD B   1      21.220  33.516  68.1090  0.00  0.00     0.000 C
ATOM      4  C4  GAD B   1      20.277  32.617  68.9130  0.00  0.00     0.000 C
ATOM      5  C5  GAD B   1      19.727  31.480  68.4420  0.00  0.00     0.000 C
ATOM      6  O5  GAD B   1      20.017  31.125  67.0770  0.00  0.00     0.000 O
ATOM      7   O  GAD B   1      22.619  33.619  66.0320  0.00  0.00     0.000 O
ATOM      9  HD  GAD B   1      22.589  32.833  65.6690  0.00  0.00     0.000 HD
ATOM      9   O  GAD B   1      20.713  34.862  68.2570  0.00  0.00     0.000 O
ATOM     11  HD  GAD B   1      20.683  34.076  67.8940  0.00  0.00     0.000 HD
ENDROOT
BRANCH 5 11
ATOM     11   C  GAD B   1      18.900  30.548  69.2440  0.00  0.00     0.000 C
ATOM     12   O  GAD B   1      17.775  30.978  69.6460  0.00  0.00     0.000 OA
ATOM     13   O  GAD B   1      19.362  29.393  69.5720  0.00  0.00     0.000 OA
ENDBRANCH 5 11
BRANCH 1 14
ATOM     14  O3  ASG B   2      20.894  31.004  65.3170  0.00  0.00     0.000 O
BRANCH 14 17
ATOM     15  C1  ASG B   2      18.508  28.377  64.0200  0.00  0.00     0.000 C
ATOM     16  C2  ASG B   2      19.863  28.969  64.4330  0.00  0.00     0.000 C
ATOM     17  C3  ASG B   2      19.655  30.407  64.9160  0.00  0.00     0.000 C
ATOM     18  C4  ASG B   2      19.023  31.237  63.8150  0.00  0.00     0.000 C
ATOM     19  C5  ASG B   2      17.744  30.551  63.3460  0.00  0.00     0.000 C
ATOM     20  O5  ASG B   2      18.026  29.189  62.9650  0.00  0.00     0.000 O
ATOM     21   C  ASG B   2      17.139  31.210  62.1480  0.00  0.00     0.000 C
ATOM     22   O  ASG B   2      16.098  30.406  61.6500  0.00  0.00     0.000 O
ATOM     24  HD  ASG B   2      15.440  30.020  61.2400  0.00  0.00     0.000 HD
BRANCH 16 26
ATOM     24   N  ASG B   2      20.590  28.188  65.4080  0.00  0.00     0.000 N
ATOM     26  HD  ASG B   2      20.005  27.835  64.8760  0.00  0.00     0.000 HD
ATOM     26   C  ASG B   2      21.930  28.069  65.4290  0.00  0.00     0.000 C
ATOM     27   C  ASG B   2      22.520  27.522  66.6830  0.00  0.00     0.000 C
ATOM     28   O  ASG B   2      22.621  28.394  64.4710  0.00  0.00     0.000 OA
ENDBRANCH 16 26
BRANCH 18 29
ATOM     29   O  ASG B   2      20.030  31.356  62.7510  0.00  0.00     0.000 O
ATOM     30   O  ASG B   2      19.272  33.571  62.0030  0.00  0.00     0.000 OA
ATOM     31   O  ASG B   2      21.334  33.359  63.2660  0.00  0.00     0.000 OA
ATOM     32   O  ASG B   2      21.212  32.526  61.0000  0.00  0.00     0.000 OA
ATOM     33   S  ASG B   2      20.484  32.809  62.2370  0.00  0.00     0.000 S
ENDBRANCH 18 29
BRANCH 15 34
ATOM     34  O4  ASG B   3      18.587  27.056  63.5660  0.00  0.00     0.000 O
BRANCH 34 38
ATOM     35  C1  GCT B   3      18.078  24.072  66.2480  0.00  0.00     0.000 C
ATOM     36  C2  GCT B   3      17.857  23.652  64.8110  0.00  0.00     0.000 C
ATOM     37  C3  GCT B   3      18.473  24.660  63.8520  0.00  0.00     0.000 C
ATOM     38  C4  GCT B   3      17.833  26.034  64.0840  0.00  0.00     0.000 C
ATOM     39  C5  GCT B   3      17.469  26.261  65.5690  0.00  0.00     0.000 C
ATOM     40  O5  GCT B   3      18.360  25.464  66.3300  0.00  0.00     0.000 O
ATOM     41   O  GCT B   3      18.479  22.384  64.6610  0.00  0.00     0.000 O
ATOM     43  HD  GCT B   3      18.242  21.588  64.9060  0.00  0.00     0.000 HD
ATOM     43   O  GCT B   3      18.296  24.179  62.5030  0.00  0.00     0.000 O
ATOM     45  HD  GCT B   3      18.059  23.383  62.7470  0.00  0.00     0.000 HD
BRANCH 39 45
ATOM     45   C  GCT B   3      16.049  25.986  66.0120  0.00  0.00     0.000 C
ATOM     46   O  GCT B   3      15.688  26.299  67.1900  0.00  0.00     0.000 OA
ATOM     47   O  GCT B   3      15.276  25.469  65.1890  0.00  0.00     0.000 OA
ENDBRANCH 39 45
BRANCH 35 48
ATOM     48  O3  ASG B   4      17.320  23.339  67.0370  0.00  0.00     0.000 O
BRANCH 48 51
ATOM     49  C1  ASG B   4      18.238  20.904  69.6660  0.00  0.00     0.000 C
ATOM     50  C2  ASG B   4      17.688  21.464  68.3440  0.00  0.00     0.000 C
ATOM     51  C3  ASG B   4      18.084  22.926  68.1570  0.00  0.00     0.000 C
ATOM     52  C4  ASG B   4      17.759  23.748  69.3930  0.00  0.00     0.000 C
ATOM     53  C5  ASG B   4      18.416  23.077  70.5960  0.00  0.00     0.000 C
ATOM     54  O5  ASG B   4      17.878  21.748  70.7470  0.00  0.00     0.000 O
BRANCH 50 57
ATOM     55   N  ASG B   4      18.280  20.495  67.4510  0.00  0.00     0.000 N
ATOM     57  HD  ASG B   4      17.761  19.829  67.6440  0.00  0.00     0.000 HD
ATOM     57   O  ASG B   4      16.412  19.284  67.2140  0.00  0.00     0.000 OA
ATOM     58   C  ASG B   4      17.563  19.531  66.8670  0.00  0.00     0.000 C
ATOM     59   C  ASG B   4      18.274  18.745  65.8090  0.00  0.00     0.000 C
ENDBRANCH 50 57
BRANCH 52 60
ATOM     60   O  ASG B   4      16.273  23.755  69.4240  0.00  0.00     0.000 O
ATOM     61   O  ASG B   4      16.177  26.038  70.4280  0.00  0.00     0.000 OA
ATOM     62   O  ASG B   4      14.165  24.944  69.7760  0.00  0.00     0.000 OA
ATOM     63   O  ASG B   4      15.471  24.020  71.5530  0.00  0.00     0.000 OA
ATOM     64   S  ASG B   4      15.463  24.810  70.3190  0.00  0.00     0.000 S
ENDBRANCH 52 60
ATOM     65   O  ASG B   4      19.137  23.324  72.8980  0.00  0.00     0.000 O
ATOM     67  HD  ASG B   4      18.775  22.563  73.0960  0.00  0.00     0.000 HD
ATOM     67   O  ASG B   4      19.137  23.324  72.8980  0.00  0.00     0.000 O
ATOM     69  HD  ASG B   4      18.775  22.563  73.0960  0.00  0.00     0.000 HD
ENDBRANCH 48 51
ENDBRANCH 35 48
ENDBRANCH 34 38
ENDBRANCH 15 34
ENDBRANCH 14 17
ENDBRANCH 1 14
TORSDOF 12
ENDMDL
MODEL 81
REMARK VINA RESULT:      -6.7     22.890     28.992
ROOT
ATOM      1  C1  GAD B   1      25.602  30.932  55.7260  0.00  0.00     0.000 C
ATOM      2  C2  GAD B   1      25.279  32.307  55.1340  0.00  0.00     0.000 C
ATOM      3  C3  GAD B   1      26.385  33.307  55.4920  0.00  0.00     0.000 C
ATOM      4  C4  GAD B   1      27.056  33.054  56.8450  0.00  0.00     0.000 C
ATOM      5  C5  GAD B   1      26.834  31.967  57.6100  0.00  0.00     0.000 C
ATOM      6  O5  GAD B   1      25.865  31.013  57.1350  0.00  0.00     0.000 O
ATOM      7   O  GAD B   1      25.033  32.222  53.6810  0.00  0.00     0.000 O
ATOM      9  HD  GAD B   1      24.971  31.382  53.8830  0.00  0.00     0.000 HD
ATOM      9   O  GAD B   1      25.880  34.660  55.5420  0.00  0.00     0.000 O
ATOM     11  HD  GAD B   1      25.818  33.820  55.7440  0.00  0.00     0.000 HD
ENDROOT
BRANCH 5 11
ATOM     11   C  GAD B   1      27.555  31.660  58.8680  0.00  0.00     0.000 C
ATOM     12   O  GAD B   1      26.901  31.780  59.9500  0.00  0.00     0.000 OA
ATOM     13   O  GAD B   1      28.808  31.369  58.8390  0.00  0.00     0.000 OA
ENDBRANCH 5 11
BRANCH 1 14
ATOM     14  O3  ASG B   2      24.681  29.975  55.9510  0.00  0.00     0.000 O
BRANCH 14 17
ATOM     15  C1  ASG B   2      22.281  28.663  58.5590  0.00  0.00     0.000 C
ATOM     16  C2  ASG B   2      23.477  28.622  57.5970  0.00  0.00     0.000 C
ATOM     17  C3  ASG B   2      23.575  29.962  56.8610  0.00  0.00     0.000 C
ATOM     18  C4  ASG B   2      22.289  30.232  56.1040  0.00  0.00     0.000 C
ATOM     19  C5  ASG B   2      21.112  30.141  57.0710  0.00  0.00     0.000 C
ATOM     20  O5  ASG B   2      21.135  28.873  57.7560  0.00  0.00     0.000 O
ATOM     21   C  ASG B   2      19.788  30.229  56.3820  0.00  0.00     0.000 C
ATOM     22   O  ASG B   2      18.765  29.925  57.2980  0.00  0.00     0.000 O
ATOM     24  HD  ASG B   2      18.042  29.764  57.7460  0.00  0.00     0.000 HD
BRANCH 16 26
ATOM     24   N  ASG B   2      24.720  28.238  58.2260  0.00  0.00     0.000 N
ATOM     26  HD  ASG B   2      23.950  27.979  58.5270  0.00  0.00     0.000 HD
ATOM     26   C  ASG B   2      25.692  27.541  57.6100  0.00  0.00     0.000 C
ATOM     27   C  ASG B   2      27.021  27.533  58.2840  0.00  0.00     0.000 C
ATOM     28   O  ASG B   2      25.492  26.950  56.5560  0.00  0.00     0.000 OA
ENDBRANCH 16 26
BRANCH 18 29
ATOM     29   O  ASG B   2      22.221  29.234  55.0280  0.00  0.00     0.000 O
ATOM     30   O  ASG B   2      20.926  30.666  53.5060  0.00  0.00     0.000 OA
ATOM     31   O  ASG B   2      23.281  30.260  53.0770  0.00  0.00     0.000 OA
ATOM     32   O  ASG B   2      21.675  28.474  52.8000  0.00  0.00     0.000 OA
ATOM     33   S  ASG B   2      22.017  29.709  53.5060  0.00  0.00     0.000 S
ENDBRANCH 18 29
BRANCH 15 34
ATOM     34  O4  ASG B   3      22.106  27.482  59.2880  0.00  0.00     0.000 O
BRANCH 34 38
ATOM     35  C1  GCT B   3      19.553  25.450  61.6790  0.00  0.00     0.000 C
ATOM     36  C2  GCT B   3      19.707  24.856  60.2960  0.00  0.00     0.000 C
ATOM     37  C3  GCT B   3      20.966  25.378  59.6180  0.00  0.00     0.000 C
ATOM     38  C4  GCT B   3      20.881  26.906  59.5070  0.00  0.00     0.000 C
ATOM     39  C5  GCT B   3      20.138  27.534  60.7090  0.00  0.00     0.000 C
ATOM     40  O5  GCT B   3      20.313  26.648  61.8000  0.00  0.00     0.000 O
ATOM     41   O  GCT B   3      19.789  23.448  60.4690  0.00  0.00     0.000 O
ATOM     43  HD  GCT B   3      19.188  22.847  60.6360  0.00  0.00     0.000 HD
ATOM     43   O  GCT B   3      21.101  24.730  58.3370  0.00  0.00     0.000 O
ATOM     45  HD  GCT B   3      20.500  24.129  58.5030  0.00  0.00     0.000 HD
BRANCH 39 45
ATOM     45   C  GCT B   3      18.668  27.857  60.5570  0.00  0.00     0.000 C
ATOM     46   O  GCT B   3      18.088  27.634  59.4470  0.00  0.00     0.000 OA
ATOM     47   O  GCT B   3      18.074  28.322  61.5430  0.00  0.00     0.000 OA
ENDBRANCH 39 45
BRANCH 35 48
ATOM     48  O3  ASG B   4      18.344  25.195  62.1310  0.00  0.00     0.000 O
BRANCH 48 51
ATOM     49  C1  ASG B   4      17.807  23.477  65.3640  0.00  0.00     0.000 C
ATOM     50  C2  ASG B   4      18.047  23.683  63.8590  0.00  0.00     0.000 C
ATOM     51  C3  ASG B   4      18.383  25.138  63.5460  0.00  0.00     0.000 C
ATOM     52  C4  ASG B   4      17.372  26.083  64.1740  0.00  0.00     0.000 C
ATOM     53  C5  ASG B   4      17.293  25.771  65.6660  0.00  0.00     0.000 C
ATOM     54  O5  ASG B   4      16.851  24.411  65.8410  0.00  0.00     0.000 O
BRANCH 50 57
ATOM     55   N  ASG B   4      19.077  22.672  63.7770  0.00  0.00     0.000 N
ATOM     57  HD  ASG B   4      18.559  21.978  63.7950  0.00  0.00     0.000 HD
ATOM     57   O  ASG B   4      17.763  21.134  62.8180  0.00  0.00     0.000 OA
ATOM     58   C  ASG B   4      18.881  21.502  63.1630  0.00  0.00     0.000 C
ATOM     59   C  ASG B   4      20.103  20.656  62.9760  0.00  0.00     0.000 C
ENDBRANCH 50 57
BRANCH 52 60
ATOM     60   O  ASG B   4      16.122  25.807  63.4190  0.00  0.00     0.000 O
ATOM     61   O  ASG B   4      15.476  28.218  63.3550  0.00  0.00     0.000 OA
ATOM     62   O  ASG B   4      14.175  26.610  62.1750  0.00  0.00     0.000 OA
ATOM     63   O  ASG B   4      14.267  26.510  64.5620  0.00  0.00     0.000 OA
ATOM     64   S  ASG B   4      14.948  26.895  63.3230  0.00  0.00     0.000 S
ENDBRANCH 52 60
ATOM     65   O  ASG B   4      16.596  26.550  67.8540  0.00  0.00     0.000 O
ATOM     67  HD  ASG B   4      16.236  25.779  68.0170  0.00  0.00     0.000 HD
ATOM     67   O  ASG B   4      16.596  26.550  67.8540  0.00  0.00     0.000 O
ATOM     69  HD  ASG B   4      16.236  25.779  68.0170  0.00  0.00     0.000 HD
ENDBRANCH 48 51
ENDBRANCH 35 48
ENDBRANCH 34 38
ENDBRANCH 15 34
ENDBRANCH 14 17
ENDBRANCH 1 14
TORSDOF 12
ENDMDL
MODEL 82
REMARK VINA RESULT:      -6.7     38.949     42.797
ROOT
ATOM      1  C1  GAD B   1       5.753  49.413  76.0630  0.00  0.00     0.000 C
ATOM      2  C2  GAD B   1       4.796  48.500  75.2890  0.00  0.00     0.000 C
ATOM      3  C3  GAD B   1       4.384  47.309  76.1620  0.00  0.00     0.000 C
ATOM      4  C4  GAD B   1       5.458  46.844  77.1500  0.00  0.00     0.000 C
ATOM      5  C5  GAD B   1       6.616  47.496  77.3750  0.00  0.00     0.000 C
ATOM      6  O5  GAD B   1       6.867  48.680  76.5950  0.00  0.00     0.000 O
ATOM      7   O  GAD B   1       3.640  49.253  74.7660  0.00  0.00     0.000 O
ATOM      9  HD  GAD B   1       4.163  49.916  74.9590  0.00  0.00     0.000 HD
ATOM      9   O  GAD B   1       4.050  46.154  75.3610  0.00  0.00     0.000 O
ATOM     11  HD  GAD B   1       4.573  46.817  75.5540  0.00  0.00     0.000 HD
ENDROOT
BRANCH 5 11
ATOM     11   C  GAD B   1       7.612  47.114  78.4030  0.00  0.00     0.000 C
ATOM     12   O  GAD B   1       7.785  47.925  79.3660  0.00  0.00     0.000 OA
ATOM     13   O  GAD B   1       8.314  46.046  78.2580  0.00  0.00     0.000 OA
ENDBRANCH 5 11
BRANCH 1 14
ATOM     14  O3  ASG B   2       6.600  50.282  75.4790  0.00  0.00     0.000 O
BRANCH 14 17
ATOM     15  C1  ASG B   2       9.519  50.682  73.1140  0.00  0.00     0.000 C
ATOM     16  C2  ASG B   2       8.724  50.866  74.4140  0.00  0.00     0.000 C
ATOM     17  C3  ASG B   2       7.380  50.142  74.2860  0.00  0.00     0.000 C
ATOM     18  C4  ASG B   2       6.605  50.693  73.1040  0.00  0.00     0.000 C
ATOM     19  C5  ASG B   2       7.476  50.607  71.8540  0.00  0.00     0.000 C
ATOM     20  O5  ASG B   2       8.738  51.264  72.0870  0.00  0.00     0.000 O
ATOM     21   C  ASG B   2       6.858  51.278  70.6700  0.00  0.00     0.000 C
ATOM     22   O  ASG B   2       7.800  51.345  69.6280  0.00  0.00     0.000 O
ATOM     24  HD  ASG B   2       8.270  51.452  68.9080  0.00  0.00     0.000 HD
BRANCH 16 26
ATOM     24   N  ASG B   2       9.499  50.533  75.5870  0.00  0.00     0.000 N
ATOM     26  HD  ASG B   2       9.860  50.866  74.8730  0.00  0.00     0.000 HD
ATOM     26   C  ASG B   2       9.304  51.084  76.7990  0.00  0.00     0.000 C
ATOM     27   C  ASG B   2       9.949  50.386  77.9470  0.00  0.00     0.000 C
ATOM     28   O  ASG B   2       8.633  52.098  76.9460  0.00  0.00     0.000 OA
ENDBRANCH 16 26
BRANCH 18 29
ATOM     29   O  ASG B   2       6.240  52.073  73.4500  0.00  0.00     0.000 O
ATOM     30   O  ASG B   2       4.147  52.057  72.1610  0.00  0.00     0.000 OA
ATOM     31   O  ASG B   2       4.078  51.943  74.5850  0.00  0.00     0.000 OA
ATOM     32   O  ASG B   2       4.764  53.985  73.4890  0.00  0.00     0.000 OA
ATOM     33   S  ASG B   2       4.698  52.526  73.4190  0.00  0.00     0.000 S
ENDBRANCH 18 29
BRANCH 15 34
ATOM     34  O4  ASG B   3      10.772  51.304  73.1290  0.00  0.00     0.000 O
BRANCH 34 38
ATOM     35  C1  GCT B   3      14.418  50.133  74.4320  0.00  0.00     0.000 C
ATOM     36  C2  GCT B   3      14.432  50.786  73.0670  0.00  0.00     0.000 C
ATOM     37  C3  GCT B   3      13.154  51.577  72.8320  0.00  0.00     0.000 C
ATOM     38  C4  GCT B   3      11.951  50.631  72.9290  0.00  0.00     0.000 C
ATOM     39  C5  GCT B   3      12.176  49.511  73.9690  0.00  0.00     0.000 C
ATOM     40  O5  GCT B   3      13.087  50.024  74.9250  0.00  0.00     0.000 O
ATOM     41   O  GCT B   3      15.558  51.651  73.0460  0.00  0.00     0.000 O
ATOM     43  HD  GCT B   3      16.406  51.500  72.9570  0.00  0.00     0.000 HD
ATOM     43   O  GCT B   3      13.249  52.234  71.5500  0.00  0.00     0.000 O
ATOM     45  HD  GCT B   3      14.097  52.082  71.4610  0.00  0.00     0.000 HD
BRANCH 39 45
ATOM     45   C  GCT B   3      12.667  48.165  73.4830  0.00  0.00     0.000 C
ATOM     46   O  GCT B   3      12.676  47.175  74.2800  0.00  0.00     0.000 OA
ATOM     47   O  GCT B   3      13.036  48.077  72.3000  0.00  0.00     0.000 OA
ENDBRANCH 39 45
BRANCH 35 48
ATOM     48  O3  ASG B   4      15.395  49.254  74.5040  0.00  0.00     0.000 O
BRANCH 48 51
ATOM     49  C1  ASG B   4      18.709  49.087  76.1410  0.00  0.00     0.000 C
ATOM     50  C2  ASG B   4      17.604  48.885  75.0910  0.00  0.00     0.000 C
ATOM     51  C3  ASG B   4      16.373  49.726  75.4150  0.00  0.00     0.000 C
ATOM     52  C4  ASG B   4      15.937  49.529  76.8580  0.00  0.00     0.000 C
ATOM     53  C5  ASG B   4      17.136  49.812  77.7590  0.00  0.00     0.000 C
ATOM     54  O5  ASG B   4      18.191  48.882  77.4460  0.00  0.00     0.000 O
BRANCH 50 57
ATOM     55   N  ASG B   4      17.716  49.083  73.6640  0.00  0.00     0.000 N
ATOM     57  HD  ASG B   4      18.421  48.598  73.5350  0.00  0.00     0.000 HD
ATOM     57   O  ASG B   4      18.762  47.141  73.2810  0.00  0.00     0.000 OA
ATOM     58   C  ASG B   4      18.197  48.141  72.8480  0.00  0.00     0.000 C
ATOM     59   C  ASG B   4      18.048  48.414  71.3830  0.00  0.00     0.000 C
ENDBRANCH 50 57
BRANCH 52 60
ATOM     60   O  ASG B   4      15.459  48.123  76.8890  0.00  0.00     0.000 O
ATOM     61   O  ASG B   4      13.291  48.747  77.9560  0.00  0.00     0.000 OA
ATOM     62   O  ASG B   4      13.672  46.498  77.2720  0.00  0.00     0.000 OA
ATOM     63   O  ASG B   4      15.009  47.426  79.0240  0.00  0.00     0.000 OA
ATOM     64   S  ASG B   4      14.225  47.681  77.8110  0.00  0.00     0.000 S
ENDBRANCH 52 60
ATOM     65   O  ASG B   4      17.895  50.313  80.0070  0.00  0.00     0.000 O
ATOM     67  HD  ASG B   4      18.518  49.716  79.9330  0.00  0.00     0.000 HD
ATOM     67   O  ASG B   4      17.895  50.313  80.0070  0.00  0.00     0.000 O
ATOM     69  HD  ASG B   4      18.518  49.716  79.9330  0.00  0.00     0.000 HD
ENDBRANCH 48 51
ENDBRANCH 35 48
ENDBRANCH 34 38
ENDBRANCH 15 34
ENDBRANCH 14 17
ENDBRANCH 1 14
TORSDOF 12
ENDMDL
MODEL 83
REMARK VINA RESULT:      -6.6     44.029     47.686
ROOT
ATOM      1  C1  GAD B   1       8.074  45.845  78.3160  0.00  0.00     0.000 C
ATOM      2  C2  GAD B   1       6.968  45.154  79.1180  0.00  0.00     0.000 C
ATOM      3  C3  GAD B   1       5.653  45.178  78.3310  0.00  0.00     0.000 C
ATOM      4  C4  GAD B   1       5.470  46.408  77.4370  0.00  0.00     0.000 C
ATOM      5  C5  GAD B   1       6.426  47.331  77.2130  0.00  0.00     0.000 C
ATOM      6  O5  GAD B   1       7.680  47.162  77.9010  0.00  0.00     0.000 O
ATOM      7   O  GAD B   1       7.367  43.792  79.5220  0.00  0.00     0.000 O
ATOM      9  HD  GAD B   1       8.143  44.105  79.2980  0.00  0.00     0.000 HD
ATOM      9   O  GAD B   1       4.506  45.149  79.2100  0.00  0.00     0.000 O
ATOM     11  HD  GAD B   1       5.282  45.462  78.9870  0.00  0.00     0.000 HD
ENDROOT
BRANCH 5 11
ATOM     11   C  GAD B   1       6.298  48.466  76.2690  0.00  0.00     0.000 C
ATOM     12   O  GAD B   1       5.877  48.198  75.1000  0.00  0.00     0.000 OA
ATOM     13   O  GAD B   1       6.680  49.644  76.6180  0.00  0.00     0.000 OA
ENDBRANCH 5 11
BRANCH 1 14
ATOM     14  O3  ASG B   2       9.195  46.351  78.8640  0.00  0.00     0.000 O
BRANCH 14 17
ATOM     15  C1  ASG B   2      12.435  45.187  80.4230  0.00  0.00     0.000 C
ATOM     16  C2  ASG B   2      11.028  45.801  80.3890  0.00  0.00     0.000 C
ATOM     17  C3  ASG B   2      10.510  45.789  78.9480  0.00  0.00     0.000 C
ATOM     18  C4  ASG B   2      11.455  46.567  78.0520  0.00  0.00     0.000 C
ATOM     19  C5  ASG B   2      12.865  46.006  78.2080  0.00  0.00     0.000 C
ATOM     20  O5  ASG B   2      13.244  46.005  79.5990  0.00  0.00     0.000 O
ATOM     21   C  ASG B   2      13.894  46.817  77.4880  0.00  0.00     0.000 C
ATOM     22   O  ASG B   2      15.177  46.369  77.8500  0.00  0.00     0.000 O
ATOM     24  HD  ASG B   2      16.017  46.199  77.9770  0.00  0.00     0.000 HD
BRANCH 16 26
ATOM     24   N  ASG B   2      10.046  46.488  81.1960  0.00  0.00     0.000 N
ATOM     26  HD  ASG B   2      10.098  46.597  80.3390  0.00  0.00     0.000 HD
ATOM     26   C  ASG B   2       9.112  45.864  81.9390  0.00  0.00     0.000 C
ATOM     27   C  ASG B   2       8.418  46.701  82.9580  0.00  0.00     0.000 C
ATOM     28   O  ASG B   2       8.852  44.677  81.7820  0.00  0.00     0.000 OA
ENDBRANCH 16 26
BRANCH 18 29
ATOM     29   O  ASG B   2      11.353  47.974  78.4590  0.00  0.00     0.000 O
ATOM     30   O  ASG B   2      12.053  48.867  76.2780  0.00  0.00     0.000 OA
ATOM     31   O  ASG B   2       9.725  49.005  76.9540  0.00  0.00     0.000 OA
ATOM     32   O  ASG B   2      11.390  50.358  78.0670  0.00  0.00     0.000 OA
ATOM     33   S  ASG B   2      11.109  49.113  77.3520  0.00  0.00     0.000 S
ENDBRANCH 18 29
BRANCH 15 34
ATOM     34  O4  ASG B   3      12.999  45.146  81.7030  0.00  0.00     0.000 O
BRANCH 34 38
ATOM     35  C1  GCT B   3      11.314  41.847  83.3290  0.00  0.00     0.000 C
ATOM     36  C2  GCT B   3      12.105  42.683  84.3120  0.00  0.00     0.000 C
ATOM     37  C3  GCT B   3      12.332  44.087  83.7690  0.00  0.00     0.000 C
ATOM     38  C4  GCT B   3      13.101  43.997  82.4450  0.00  0.00     0.000 C
ATOM     39  C5  GCT B   3      12.721  42.735  81.6380  0.00  0.00     0.000 C
ATOM     40  O5  GCT B   3      11.399  42.395  82.0180  0.00  0.00     0.000 O
ATOM     41   O  GCT B   3      11.337  42.734  85.5060  0.00  0.00     0.000 O
ATOM     43  HD  GCT B   3      11.207  42.157  86.1380  0.00  0.00     0.000 HD
ATOM     43   O  GCT B   3      13.027  44.859  84.7700  0.00  0.00     0.000 O
ATOM     45  HD  GCT B   3      12.897  44.281  85.4020  0.00  0.00     0.000 HD
BRANCH 39 45
ATOM     45   C  GCT B   3      13.604  41.512  81.7550  0.00  0.00     0.000 C
ATOM     46   O  GCT B   3      14.586  41.523  82.5630  0.00  0.00     0.000 OA
ATOM     47   O  GCT B   3      13.322  40.526  81.0540  0.00  0.00     0.000 OA
ENDBRANCH 39 45
BRANCH 35 48
ATOM     48  O3  ASG B   4      11.359  40.584  83.6960  0.00  0.00     0.000 O
BRANCH 48 51
ATOM     49  C1  ASG B   4       8.999  38.150  85.1760  0.00  0.00     0.000 C
ATOM     50  C2  ASG B   4      10.317  38.875  84.8590  0.00  0.00     0.000 C
ATOM     51  C3  ASG B   4      10.064  40.175  84.1010  0.00  0.00     0.000 C
ATOM     52  C4  ASG B   4       9.148  39.948  82.9090  0.00  0.00     0.000 C
ATOM     53  C5  ASG B   4       7.879  39.265  83.4100  0.00  0.00     0.000 C
ATOM     54  O5  ASG B   4       8.226  37.995  83.9970  0.00  0.00     0.000 O
BRANCH 50 57
ATOM     55   N  ASG B   4      11.211  39.242  85.9330  0.00  0.00     0.000 N
ATOM     57  HD  ASG B   4      11.330  38.449  86.2600  0.00  0.00     0.000 HD
ATOM     57   O  ASG B   4      12.231  37.250  86.0250  0.00  0.00     0.000 OA
ATOM     58   C  ASG B   4      12.178  38.428  86.3670  0.00  0.00     0.000 C
ATOM     59   C  ASG B   4      13.151  39.034  87.3310  0.00  0.00     0.000 C
ENDBRANCH 50 57
BRANCH 52 60
ATOM     60   O  ASG B   4       9.973  39.123  81.9890  0.00  0.00     0.000 O
ATOM     61   O  ASG B   4       9.643  40.693  80.0770  0.00  0.00     0.000 OA
ATOM     62   O  ASG B   4      11.113  38.835  79.8450  0.00  0.00     0.000 OA
ATOM     63   O  ASG B   4       8.776  38.440  80.1600  0.00  0.00     0.000 OA
ATOM     64   S  ASG B   4       9.913  39.332  80.4010  0.00  0.00     0.000 S
ENDBRANCH 52 60
ATOM     65   O  ASG B   4       5.569  38.702  82.9300  0.00  0.00     0.000 O
ATOM     67  HD  ASG B   4       5.709  37.890  83.1980  0.00  0.00     0.000 HD
ATOM     67   O  ASG B   4       5.569  38.702  82.9300  0.00  0.00     0.000 O
ATOM     69  HD  ASG B   4       5.709  37.890  83.1980  0.00  0.00     0.000 HD
ENDBRANCH 48 51
ENDBRANCH 35 48
ENDBRANCH 34 38
ENDBRANCH 15 34
ENDBRANCH 14 17
ENDBRANCH 1 14
TORSDOF 12
ENDMDL
MODEL 84
REMARK VINA RESULT:      -6.6     28.086     32.471
ROOT
ATOM      1  C1  GAD B   1      17.977  25.446  63.0110  0.00  0.00     0.000 C
ATOM      2  C2  GAD B   1      18.905  24.950  64.1240  0.00  0.00     0.000 C
ATOM      3  C3  GAD B   1      18.120  24.087  65.1190  0.00  0.00     0.000 C
ATOM      4  C4  GAD B   1      16.655  24.496  65.2950  0.00  0.00     0.000 C
ATOM      5  C5  GAD B   1      16.030  25.425  64.5430  0.00  0.00     0.000 C
ATOM      6  O5  GAD B   1      16.817  26.101  63.5440  0.00  0.00     0.000 O
ATOM      7   O  GAD B   1      20.084  24.256  63.5710  0.00  0.00     0.000 O
ATOM      9  HD  GAD B   1      19.806  24.651  62.8530  0.00  0.00     0.000 HD
ATOM      9   O  GAD B   1      18.708  24.129  66.4380  0.00  0.00     0.000 O
ATOM     11  HD  GAD B   1      18.429  24.524  65.7190  0.00  0.00     0.000 HD
ENDROOT
BRANCH 5 11
ATOM     11   C  GAD B   1      14.588  25.752  64.6340  0.00  0.00     0.000 C
ATOM     12   O  GAD B   1      14.183  26.271  65.7200  0.00  0.00     0.000 OA
ATOM     13   O  GAD B   1      13.793  25.438  63.6730  0.00  0.00     0.000 OA
ENDBRANCH 5 11
BRANCH 1 14
ATOM     14  O3  ASG B   2      18.234  26.521  62.2420  0.00  0.00     0.000 O
BRANCH 14 17
ATOM     15  C1  ASG B   2      20.292  29.681  61.9970  0.00  0.00     0.000 C
ATOM     16  C2  ASG B   2      19.013  28.833  62.0430  0.00  0.00     0.000 C
ATOM     17  C3  ASG B   2      19.396  27.357  62.1900  0.00  0.00     0.000 C
ATOM     18  C4  ASG B   2      20.278  26.932  61.0320  0.00  0.00     0.000 C
ATOM     19  C5  ASG B   2      21.473  27.877  60.9430  0.00  0.00     0.000 C
ATOM     20  O5  ASG B   2      21.018  29.242  60.8640  0.00  0.00     0.000 O
ATOM     21   C  ASG B   2      22.311  27.637  59.7280  0.00  0.00     0.000 C
ATOM     22   O  ASG B   2      23.257  28.670  59.6030  0.00  0.00     0.000 O
ATOM     24  HD  ASG B   2      23.886  29.231  59.4040  0.00  0.00     0.000 HD
BRANCH 16 26
ATOM     24   N  ASG B   2      17.576  28.864  61.9000  0.00  0.00     0.000 N
ATOM     26  HD  ASG B   2      18.039  28.147  61.7560  0.00  0.00     0.000 HD
ATOM     26   C  ASG B   2      16.726  29.166  62.8990  0.00  0.00     0.000 C
ATOM     27   C  ASG B   2      15.327  29.484  62.4970  0.00  0.00     0.000 C
ATOM     28   O  ASG B   2      17.087  29.178  64.0700  0.00  0.00     0.000 OA
ENDBRANCH 16 26
BRANCH 18 29
ATOM     29   O  ASG B   2      19.433  26.967  59.8300  0.00  0.00     0.000 O
ATOM     30   O  ASG B   2      20.626  25.143  58.6920  0.00  0.00     0.000 OA
ATOM     31   O  ASG B   2      18.426  24.747  59.6390  0.00  0.00     0.000 OA
ATOM     32   O  ASG B   2      18.668  26.154  57.6880  0.00  0.00     0.000 OA
ATOM     33   S  ASG B   2      19.286  25.654  58.9160  0.00  0.00     0.000 S
ENDBRANCH 18 29
BRANCH 15 34
ATOM     34  O4  ASG B   3      20.051  31.053  61.8680  0.00  0.00     0.000 O
BRANCH 34 38
ATOM     35  C1  GCT B   3      20.833  31.832  65.7600  0.00  0.00     0.000 C
ATOM     36  C2  GCT B   3      19.566  32.479  65.2450  0.00  0.00     0.000 C
ATOM     37  C3  GCT B   3      19.104  31.815  63.9560  0.00  0.00     0.000 C
ATOM     38  C4  GCT B   3      20.206  31.946  62.8980  0.00  0.00     0.000 C
ATOM     39  C5  GCT B   3      21.619  31.889  63.5220  0.00  0.00     0.000 C
ATOM     40  O5  GCT B   3      21.503  31.134  64.7160  0.00  0.00     0.000 O
ATOM     41   O  GCT B   3      18.588  32.315  66.2620  0.00  0.00     0.000 O
ATOM     43  HD  GCT B   3      18.461  32.721  67.0160  0.00  0.00     0.000 HD
ATOM     43   O  GCT B   3      17.859  32.421  63.5470  0.00  0.00     0.000 O
ATOM     45  HD  GCT B   3      17.732  32.827  64.3020  0.00  0.00     0.000 HD
BRANCH 39 45
ATOM     45   C  GCT B   3      22.327  33.192  63.8220  0.00  0.00     0.000 C
ATOM     46   O  GCT B   3      23.497  33.170  64.3190  0.00  0.00     0.000 OA
ATOM     47   O  GCT B   3      21.732  34.248  63.5520  0.00  0.00     0.000 OA
ENDBRANCH 39 45
BRANCH 35 48
ATOM     48  O3  ASG B   4      21.350  32.582  66.7100  0.00  0.00     0.000 O
BRANCH 48 51
ATOM     49  C1  ASG B   4      21.782  30.087  69.4080  0.00  0.00     0.000 C
ATOM     50  C2  ASG B   4      21.128  30.881  68.2650  0.00  0.00     0.000 C
ATOM     51  C3  ASG B   4      22.145  31.770  67.5560  0.00  0.00     0.000 C
ATOM     52  C4  ASG B   4      22.936  32.603  68.5520  0.00  0.00     0.000 C
ATOM     53  C5  ASG B   4      23.549  31.656  69.5810  0.00  0.00     0.000 C
ATOM     54  O5  ASG B   4      22.493  30.960  70.2700  0.00  0.00     0.000 O
BRANCH 50 57
ATOM     55   N  ASG B   4      20.168  31.093  69.3240  0.00  0.00     0.000 N
ATOM     57  HD  ASG B   4      19.451  31.054  68.8400  0.00  0.00     0.000 HD
ATOM     57   O  ASG B   4      18.505  29.997  68.3010  0.00  0.00     0.000 OA
ATOM     58   C  ASG B   4      18.951  30.541  69.3060  0.00  0.00     0.000 C
ATOM     59   C  ASG B   4      18.159  30.678  70.5700  0.00  0.00     0.000 C
ENDBRANCH 50 57
BRANCH 52 60
ATOM     60   O  ASG B   4      21.924  33.541  69.1020  0.00  0.00     0.000 O
ATOM     61   O  ASG B   4      22.852  35.484  67.8390  0.00  0.00     0.000 OA
ATOM     62   O  ASG B   4      20.852  35.740  69.1060  0.00  0.00     0.000 OA
ATOM     63   O  ASG B   4      22.901  35.269  70.2450  0.00  0.00     0.000 OA
ATOM     64   S  ASG B   4      22.123  35.129  69.0100  0.00  0.00     0.000 S
ENDBRANCH 52 60
ATOM     65   O  ASG B   4      25.217  31.375  71.3190  0.00  0.00     0.000 O
ATOM     67  HD  ASG B   4      24.624  31.009  71.8330  0.00  0.00     0.000 HD
ATOM     67   O  ASG B   4      25.217  31.375  71.3190  0.00  0.00     0.000 O
ATOM     69  HD  ASG B   4      24.624  31.009  71.8330  0.00  0.00     0.000 HD
ENDBRANCH 48 51
ENDBRANCH 35 48
ENDBRANCH 34 38
ENDBRANCH 15 34
ENDBRANCH 14 17
ENDBRANCH 1 14
TORSDOF 12
ENDMDL
MODEL 85
REMARK VINA RESULT:      -6.6     24.990     31.508
ROOT
ATOM      1  C1  GAD B   1      20.493  29.136  60.3820  0.00  0.00     0.000 C
ATOM      2  C2  GAD B   1      21.938  28.917  60.8400  0.00  0.00     0.000 C
ATOM      3  C3  GAD B   1      22.843  30.018  60.2750  0.00  0.00     0.000 C
ATOM      4  C4  GAD B   1      22.413  30.552  58.9060  0.00  0.00     0.000 C
ATOM      5  C5  GAD B   1      21.259  30.224  58.2910  0.00  0.00     0.000 C
ATOM      6  O5  GAD B   1      20.407  29.272  58.9560  0.00  0.00     0.000 O
ATOM      7   O  GAD B   1      22.025  28.803  62.3090  0.00  0.00     0.000 O
ATOM      9  HD  GAD B   1      21.172  28.694  62.2110  0.00  0.00     0.000 HD
ATOM      9   O  GAD B   1      24.204  29.557  60.1150  0.00  0.00     0.000 O
ATOM     11  HD  GAD B   1      23.350  29.448  60.0170  0.00  0.00     0.000 HD
ENDROOT
BRANCH 5 11
ATOM     11   C  GAD B   1      20.784  30.815  57.0180  0.00  0.00     0.000 C
ATOM     12   O  GAD B   1      20.656  30.027  56.0300  0.00  0.00     0.000 OA
ATOM     13   O  GAD B   1      20.597  32.084  56.9260  0.00  0.00     0.000 OA
ENDBRANCH 5 11
BRANCH 1 14
ATOM     14  O3  ASG B   2      19.560  28.167  60.3490  0.00  0.00     0.000 O
BRANCH 14 17
ATOM     15  C1  ASG B   2      18.723  24.607  61.3000  0.00  0.00     0.000 C
ATOM     16  C2  ASG B   2      18.856  25.823  60.3730  0.00  0.00     0.000 C
ATOM     17  C3  ASG B   2      19.413  27.005  61.1730  0.00  0.00     0.000 C
ATOM     18  C4  ASG B   2      18.496  27.319  62.3400  0.00  0.00     0.000 C
ATOM     19  C5  ASG B   2      18.290  26.053  63.1660  0.00  0.00     0.000 C
ATOM     20  O5  ASG B   2      17.819  24.984  62.3220  0.00  0.00     0.000 O
ATOM     21   C  ASG B   2      17.267  26.226  64.2440  0.00  0.00     0.000 C
ATOM     22   O  ASG B   2      16.979  24.974  64.8160  0.00  0.00     0.000 O
ATOM     24  HD  ASG B   2      16.707  24.281  65.2590  0.00  0.00     0.000 HD
BRANCH 16 26
ATOM     24   N  ASG B   2      19.682  25.665  59.1980  0.00  0.00     0.000 N
ATOM     26  HD  ASG B   2      19.360  24.988  59.6320  0.00  0.00     0.000 HD
ATOM     26   C  ASG B   2      19.364  26.151  57.9840  0.00  0.00     0.000 C
ATOM     27   C  ASG B   2      20.470  26.195  56.9860  0.00  0.00     0.000 C
ATOM     28   O  ASG B   2      18.231  26.533  57.7190  0.00  0.00     0.000 OA
ENDBRANCH 16 26
BRANCH 18 29
ATOM     29   O  ASG B   2      17.247  27.832  61.7620  0.00  0.00     0.000 O
ATOM     30   O  ASG B   2      16.739  29.310  63.6590  0.00  0.00     0.000 OA
ATOM     31   O  ASG B   2      17.529  30.254  61.5670  0.00  0.00     0.000 OA
ATOM     32   O  ASG B   2      15.318  29.286  61.6990  0.00  0.00     0.000 OA
ATOM     33   S  ASG B   2      16.689  29.271  62.2100  0.00  0.00     0.000 S
ENDBRANCH 18 29
BRANCH 15 34
ATOM     34  O4  ASG B   3      18.225  23.466  60.6620  0.00  0.00     0.000 O
BRANCH 34 38
ATOM     35  C1  GCT B   3      18.363  19.498  59.8880  0.00  0.00     0.000 C
ATOM     36  C2  GCT B   3      17.723  19.845  61.2150  0.00  0.00     0.000 C
ATOM     37  C3  GCT B   3      17.310  21.309  61.2510  0.00  0.00     0.000 C
ATOM     38  C4  GCT B   3      18.549  22.188  61.0400  0.00  0.00     0.000 C
ATOM     39  C5  GCT B   3      19.571  21.530  60.0850  0.00  0.00     0.000 C
ATOM     40  O5  GCT B   3      18.833  20.671  59.2330  0.00  0.00     0.000 O
ATOM     41   O  GCT B   3      16.582  19.008  61.3430  0.00  0.00     0.000 O
ATOM     43  HD  GCT B   3      16.496  18.170  61.5470  0.00  0.00     0.000 HD
ATOM     43   O  GCT B   3      16.645  21.569  62.5050  0.00  0.00     0.000 O
ATOM     45  HD  GCT B   3      16.559  20.731  62.7090  0.00  0.00     0.000 HD
BRANCH 39 45
ATOM     45   C  GCT B   3      20.728  20.764  60.6870  0.00  0.00     0.000 C
ATOM     46   O  GCT B   3      21.564  20.187  59.9220  0.00  0.00     0.000 OA
ATOM     47   O  GCT B   3      20.824  20.740  61.9250  0.00  0.00     0.000 OA
ENDBRANCH 39 45
BRANCH 35 48
ATOM     48  O3  ASG B   4      18.941  18.319  59.9790  0.00  0.00     0.000 O
BRANCH 48 51
ATOM     49  C1  ASG B   4      17.811  15.026  58.7270  0.00  0.00     0.000 C
ATOM     50  C2  ASG B   4      18.164  16.155  59.7100  0.00  0.00     0.000 C
ATOM     51  C3  ASG B   4      18.415  17.469  58.9750  0.00  0.00     0.000 C
ATOM     52  C4  ASG B   4      19.395  17.280  57.8280  0.00  0.00     0.000 C
ATOM     53  C5  ASG B   4      18.869  16.160  56.9350  0.00  0.00     0.000 C
ATOM     54  O5  ASG B   4      18.788  14.943  57.7020  0.00  0.00     0.000 O
BRANCH 50 57
ATOM     55   N  ASG B   4      16.947  15.841  60.4230  0.00  0.00     0.000 N
ATOM     57  HD  ASG B   4      17.250  15.169  60.8770  0.00  0.00     0.000 HD
ATOM     57   O  ASG B   4      17.986  14.922  62.1810  0.00  0.00     0.000 OA
ATOM     58   C  ASG B   4      16.955  15.339  61.6610  0.00  0.00     0.000 C
ATOM     59   C  ASG B   4      15.623  15.271  62.3420  0.00  0.00     0.000 C
ENDBRANCH 50 57
BRANCH 52 60
ATOM     60   O  ASG B   4      20.677  16.973  58.5140  0.00  0.00     0.000 O
ATOM     61   O  ASG B   4      22.003  18.395  56.9490  0.00  0.00     0.000 OA
ATOM     62   O  ASG B   4      23.068  17.387  58.8250  0.00  0.00     0.000 OA
ATOM     63   O  ASG B   4      22.183  15.991  57.0960  0.00  0.00     0.000 OA
ATOM     64   S  ASG B   4      22.088  17.266  57.8130  0.00  0.00     0.000 S
ENDBRANCH 52 60
ATOM     65   O  ASG B   4      18.996  15.086  54.7640  0.00  0.00     0.000 O
ATOM     67  HD  ASG B   4      19.026  14.310  55.1460  0.00  0.00     0.000 HD
ATOM     67   O  ASG B   4      18.996  15.086  54.7640  0.00  0.00     0.000 O
ATOM     69  HD  ASG B   4      19.026  14.310  55.1460  0.00  0.00     0.000 HD
ENDBRANCH 48 51
ENDBRANCH 35 48
ENDBRANCH 34 38
ENDBRANCH 15 34
ENDBRANCH 14 17
ENDBRANCH 1 14
TORSDOF 12
ENDMDL
MODEL 86
REMARK VINA RESULT:      -6.6     30.671     37.355
ROOT
ATOM      1  C1  GAD B   1      16.454  33.403  75.3100  0.00  0.00     0.000 C
ATOM      2  C2  GAD B   1      16.070  34.711  76.0070  0.00  0.00     0.000 C
ATOM      3  C3  GAD B   1      14.544  34.846  76.0720  0.00  0.00     0.000 C
ATOM      4  C4  GAD B   1      13.800  34.212  74.8930  0.00  0.00     0.000 C
ATOM      5  C5  GAD B   1      14.387  33.456  73.9440  0.00  0.00     0.000 C
ATOM      6  O5  GAD B   1      15.814  33.280  74.0310  0.00  0.00     0.000 O
ATOM      7   O  GAD B   1      16.710  34.823  77.3320  0.00  0.00     0.000 O
ATOM      9  HD  GAD B   1      17.188  34.182  76.9990  0.00  0.00     0.000 HD
ATOM      9   O  GAD B   1      14.133  36.231  76.1060  0.00  0.00     0.000 O
ATOM     11  HD  GAD B   1      14.611  35.590  75.7730  0.00  0.00     0.000 HD
ENDROOT
BRANCH 5 11
ATOM     11   C  GAD B   1      13.663  32.751  72.8600  0.00  0.00     0.000 C
ATOM     12   O  GAD B   1      14.298  32.552  71.7780  0.00  0.00     0.000 OA
ATOM     13   O  GAD B   1      12.423  32.441  73.0070  0.00  0.00     0.000 OA
ENDBRANCH 5 11
BRANCH 1 14
ATOM     14  O3  ASG B   2      17.651  33.181  74.7350  0.00  0.00     0.000 O
BRANCH 14 17
ATOM     15  C1  ASG B   2      19.115  32.196  71.3940  0.00  0.00     0.000 C
ATOM     16  C2  ASG B   2      18.714  32.015  72.8650  0.00  0.00     0.000 C
ATOM     17  C3  ASG B   2      18.047  33.301  73.3640  0.00  0.00     0.000 C
ATOM     18  C4  ASG B   2      18.999  34.472  73.2090  0.00  0.00     0.000 C
ATOM     19  C5  ASG B   2      19.471  34.542  71.7600  0.00  0.00     0.000 C
ATOM     20  O5  ASG B   2      20.031  33.275  71.3630  0.00  0.00     0.000 O
ATOM     21   C  ASG B   2      20.541  35.565  71.5490  0.00  0.00     0.000 C
ATOM     22   O  ASG B   2      21.070  35.424  70.2540  0.00  0.00     0.000 O
ATOM     24  HD  ASG B   2      21.484  35.455  69.4930  0.00  0.00     0.000 HD
BRANCH 16 26
ATOM     24   N  ASG B   2      17.896  30.852  73.1210  0.00  0.00     0.000 N
ATOM     26  HD  ASG B   2      18.441  30.895  72.4490  0.00  0.00     0.000 HD
ATOM     26   C  ASG B   2      17.961  30.121  74.2490  0.00  0.00     0.000 C
ATOM     27   C  ASG B   2      16.827  29.183  74.4880  0.00  0.00     0.000 C
ATOM     28   O  ASG B   2      18.899  30.223  75.0300  0.00  0.00     0.000 OA
ENDBRANCH 16 26
BRANCH 18 29
ATOM     29   O  ASG B   2      20.098  34.244  74.1570  0.00  0.00     0.000 O
ATOM     30   O  ASG B   2      20.495  36.633  74.5820  0.00  0.00     0.000 OA
ATOM     31   O  ASG B   2      19.404  35.267  76.2670  0.00  0.00     0.000 OA
ATOM     32   O  ASG B   2      21.749  34.941  75.7780  0.00  0.00     0.000 OA
ATOM     33   S  ASG B   2      20.442  35.355  75.2670  0.00  0.00     0.000 S
ENDBRANCH 18 29
BRANCH 15 34
ATOM     34  O4  ASG B   3      19.731  31.071  70.8370  0.00  0.00     0.000 O
BRANCH 34 38
ATOM     35  C1  GCT B   3      19.725  29.284  67.2070  0.00  0.00     0.000 C
ATOM     36  C2  GCT B   3      21.108  29.535  67.7680  0.00  0.00     0.000 C
ATOM     37  C3  GCT B   3      21.047  29.789  69.2680  0.00  0.00     0.000 C
ATOM     38  C4  GCT B   3      20.162  31.012  69.5360  0.00  0.00     0.000 C
ATOM     39  C5  GCT B   3      18.999  31.120  68.5230  0.00  0.00     0.000 C
ATOM     40  O5  GCT B   3      18.726  29.802  68.0790  0.00  0.00     0.000 O
ATOM     41   O  GCT B   3      21.870  28.367  67.4970  0.00  0.00     0.000 O
ATOM     43  HD  GCT B   3      22.243  28.072  66.7730  0.00  0.00     0.000 HD
ATOM     43   O  GCT B   3      22.393  29.952  69.7620  0.00  0.00     0.000 O
ATOM     45  HD  GCT B   3      22.765  29.656  69.0380  0.00  0.00     0.000 HD
BRANCH 39 45
ATOM     45   C  GCT B   3      19.171  32.026  67.3230  0.00  0.00     0.000 C
ATOM     46   O  GCT B   3      18.242  32.107  66.4600  0.00  0.00     0.000 OA
ATOM     47   O  GCT B   3      20.226  32.676  67.2360  0.00  0.00     0.000 OA
ENDBRANCH 39 45
BRANCH 35 48
ATOM     48  O3  ASG B   4      19.774  29.331  65.8930  0.00  0.00     0.000 O
BRANCH 48 51
ATOM     49  C1  ASG B   4      18.271  26.616  63.8780  0.00  0.00     0.000 C
ATOM     50  C2  ASG B   4      19.299  27.394  64.7170  0.00  0.00     0.000 C
ATOM     51  C3  ASG B   4      18.666  28.622  65.3650  0.00  0.00     0.000 C
ATOM     52  C4  ASG B   4      17.902  29.451  64.3450  0.00  0.00     0.000 C
ATOM     53  C5  ASG B   4      16.903  28.537  63.6430  0.00  0.00     0.000 C
ATOM     54  O5  ASG B   4      17.620  27.486  62.9660  0.00  0.00     0.000 O
BRANCH 50 57
ATOM     55   N  ASG B   4      19.698  26.307  65.5810  0.00  0.00     0.000 N
ATOM     57  HD  ASG B   4      20.174  25.871  65.0040  0.00  0.00     0.000 HD
ATOM     57   O  ASG B   4      21.597  25.871  64.4780  0.00  0.00     0.000 OA
ATOM     58   C  ASG B   4      20.877  25.692  65.4560  0.00  0.00     0.000 C
ATOM     59   C  ASG B   4      21.231  24.738  66.5550  0.00  0.00     0.000 C
ENDBRANCH 50 57
BRANCH 52 60
ATOM     60   O  ASG B   4      18.971  29.991  63.4660  0.00  0.00     0.000 O
ATOM     61   O  ASG B   4      17.761  32.143  63.0990  0.00  0.00     0.000 OA
ATOM     62   O  ASG B   4      19.957  31.853  62.2230  0.00  0.00     0.000 OA
ATOM     63   O  ASG B   4      18.177  30.498  61.3790  0.00  0.00     0.000 OA
ATOM     64   S  ASG B   4      18.710  31.255  62.5150  0.00  0.00     0.000 S
ENDBRANCH 52 60
ATOM     65   O  ASG B   4      14.907  28.408  62.2710  0.00  0.00     0.000 O
ATOM     67  HD  ASG B   4      15.290  27.820  61.7640  0.00  0.00     0.000 HD
ATOM     67   O  ASG B   4      14.907  28.408  62.2710  0.00  0.00     0.000 O
ATOM     69  HD  ASG B   4      15.290  27.820  61.7640  0.00  0.00     0.000 HD
ENDBRANCH 48 51
ENDBRANCH 35 48
ENDBRANCH 34 38
ENDBRANCH 15 34
ENDBRANCH 14 17
ENDBRANCH 1 14
TORSDOF 12
ENDMDL
MODEL 87
REMARK VINA RESULT:      -6.6     25.866     29.701
ROOT
ATOM      1  C1  GAD B   1      17.835  52.950  54.3230  0.00  0.00     0.000 C
ATOM      2  C2  GAD B   1      17.783  54.305  53.6100  0.00  0.00     0.000 C
ATOM      3  C3  GAD B   1      17.441  54.108  52.1290  0.00  0.00     0.000 C
ATOM      4  C4  GAD B   1      17.965  52.802  51.5240  0.00  0.00     0.000 C
ATOM      5  C5  GAD B   1      18.541  51.813  52.2370  0.00  0.00     0.000 C
ATOM      6  O5  GAD B   1      18.711  52.033  53.6500  0.00  0.00     0.000 O
ATOM      7   O  GAD B   1      16.862  55.235  54.2910  0.00  0.00     0.000 O
ATOM      9  HD  GAD B   1      16.947  54.641  54.9150  0.00  0.00     0.000 HD
ATOM      9   O  GAD B   1      17.982  55.171  51.3130  0.00  0.00     0.000 O
ATOM     11  HD  GAD B   1      18.067  54.577  51.9370  0.00  0.00     0.000 HD
ENDROOT
BRANCH 5 11
ATOM     11   C  GAD B   1      18.954  50.504  51.6800  0.00  0.00     0.000 C
ATOM     12   O  GAD B   1      18.257  49.494  52.0090  0.00  0.00     0.000 OA
ATOM     13   O  GAD B   1      20.021  50.412  50.9680  0.00  0.00     0.000 OA
ENDBRANCH 5 11
BRANCH 1 14
ATOM     14  O3  ASG B   2      18.491  52.733  55.4780  0.00  0.00     0.000 O
BRANCH 14 17
ATOM     15  C1  ASG B   2      17.963  53.040  59.2070  0.00  0.00     0.000 C
ATOM     16  C2  ASG B   2      18.545  53.398  57.8320  0.00  0.00     0.000 C
ATOM     17  C3  ASG B   2      17.980  52.436  56.7830  0.00  0.00     0.000 C
ATOM     18  C4  ASG B   2      18.323  51.006  57.1520  0.00  0.00     0.000 C
ATOM     19  C5  ASG B   2      17.839  50.728  58.5720  0.00  0.00     0.000 C
ATOM     20  O5  ASG B   2      18.375  51.713  59.4780  0.00  0.00     0.000 O
ATOM     21   C  ASG B   2      18.281  49.394  59.0840  0.00  0.00     0.000 C
ATOM     22   O  ASG B   2      17.984  49.300  60.4550  0.00  0.00     0.000 O
ATOM     24  HD  ASG B   2      17.860  49.103  61.2890  0.00  0.00     0.000 HD
BRANCH 16 26
ATOM     24   N  ASG B   2      18.408  54.803  57.5250  0.00  0.00     0.000 N
ATOM     26  HD  ASG B   2      18.516  54.515  58.3350  0.00  0.00     0.000 HD
ATOM     26   C  ASG B   2      19.250  55.484  56.7250  0.00  0.00     0.000 C
ATOM     27   C  ASG B   2      18.771  56.813  56.2500  0.00  0.00     0.000 C
ATOM     28   O  ASG B   2      20.343  55.033  56.4080  0.00  0.00     0.000 OA
ENDBRANCH 16 26
BRANCH 18 29
ATOM     29   O  ASG B   2      19.780  50.878  57.0120  0.00  0.00     0.000 O
ATOM     30   O  ASG B   2      19.730  48.454  56.6030  0.00  0.00     0.000 OA
ATOM     31   O  ASG B   2      20.173  49.983  54.7700  0.00  0.00     0.000 OA
ATOM     32   O  ASG B   2      21.818  49.678  56.5160  0.00  0.00     0.000 OA
ATOM     33   S  ASG B   2      20.399  49.663  56.1600  0.00  0.00     0.000 S
ENDBRANCH 18 29
BRANCH 15 34
ATOM     34  O4  ASG B   3      18.415  53.867  60.2410  0.00  0.00     0.000 O
BRANCH 34 38
ATOM     35  C1  GCT B   3      15.037  55.781  61.3780  0.00  0.00     0.000 C
ATOM     36  C2  GCT B   3      16.300  56.340  61.9980  0.00  0.00     0.000 C
ATOM     37  C3  GCT B   3      17.529  55.890  61.2210  0.00  0.00     0.000 C
ATOM     38  C4  GCT B   3      17.596  54.358  61.2270  0.00  0.00     0.000 C
ATOM     39  C5  GCT B   3      16.190  53.716  61.2020  0.00  0.00     0.000 C
ATOM     40  O5  GCT B   3      15.331  54.647  60.5690  0.00  0.00     0.000 O
ATOM     41   O  GCT B   3      16.179  57.754  61.9530  0.00  0.00     0.000 O
ATOM     43  HD  GCT B   3      15.724  58.314  62.4320  0.00  0.00     0.000 HD
ATOM     43   O  GCT B   3      18.695  56.504  61.8090  0.00  0.00     0.000 O
ATOM     45  HD  GCT B   3      18.240  57.064  62.2880  0.00  0.00     0.000 HD
BRANCH 39 45
ATOM     45   C  GCT B   3      15.576  53.279  62.5140  0.00  0.00     0.000 C
ATOM     46   O  GCT B   3      16.214  53.464  63.5980  0.00  0.00     0.000 OA
ATOM     47   O  GCT B   3      14.447  52.763  62.4800  0.00  0.00     0.000 OA
ENDBRANCH 39 45
BRANCH 35 48
ATOM     48  O3  ASG B   4      14.031  55.960  62.2060  0.00  0.00     0.000 O
BRANCH 48 51
ATOM     49  C1  ASG B   4      11.744  57.711  59.8840  0.00  0.00     0.000 C
ATOM     50  C2  ASG B   4      13.042  57.301  60.5980  0.00  0.00     0.000 C
ATOM     51  C3  ASG B   4      12.831  56.059  61.4590  0.00  0.00     0.000 C
ATOM     52  C4  ASG B   4      11.618  56.215  62.3610  0.00  0.00     0.000 C
ATOM     53  C5  ASG B   4      10.419  56.576  61.4880  0.00  0.00     0.000 C
ATOM     54  O5  ASG B   4      10.683  57.824  60.8180  0.00  0.00     0.000 O
BRANCH 50 57
ATOM     55   N  ASG B   4      13.404  57.535  59.2190  0.00  0.00     0.000 N
ATOM     57  HD  ASG B   4      13.643  58.363  59.3010  0.00  0.00     0.000 HD
ATOM     57   O  ASG B   4      14.883  59.152  59.6790  0.00  0.00     0.000 OA
ATOM     58   C  ASG B   4      14.381  58.377  58.8700  0.00  0.00     0.000 C
ATOM     59   C  ASG B   4      14.778  58.347  57.4260  0.00  0.00     0.000 C
ENDBRANCH 50 57
BRANCH 52 60
ATOM     60   O  ASG B   4      12.029  57.277  63.3160  0.00  0.00     0.000 O
ATOM     61   O  ASG B   4      11.913  55.738  65.2780  0.00  0.00     0.000 OA
ATOM     62   O  ASG B   4      12.727  57.958  65.5590  0.00  0.00     0.000 OA
ATOM     63   O  ASG B   4      10.444  57.625  64.9320  0.00  0.00     0.000 OA
ATOM     64   S  ASG B   4      11.815  57.107  64.8950  0.00  0.00     0.000 S
ENDBRANCH 52 60
ATOM     65   O  ASG B   4       8.003  56.709  61.3360  0.00  0.00     0.000 O
ATOM     67  HD  ASG B   4       8.065  57.501  60.9920  0.00  0.00     0.000 HD
ATOM     67   O  ASG B   4       8.003  56.709  61.3360  0.00  0.00     0.000 O
ATOM     69  HD  ASG B   4       8.065  57.501  60.9920  0.00  0.00     0.000 HD
ENDBRANCH 48 51
ENDBRANCH 35 48
ENDBRANCH 34 38
ENDBRANCH 15 34
ENDBRANCH 14 17
ENDBRANCH 1 14
TORSDOF 12
ENDMDL
MODEL 88
REMARK VINA RESULT:      -6.6     42.733     46.984
ROOT
ATOM      1  C1  GAD B   1       9.636  44.994  81.3930  0.00  0.00     0.000 C
ATOM      2  C2  GAD B   1      10.843  44.723  82.2970  0.00  0.00     0.000 C
ATOM      3  C3  GAD B   1      10.446  44.887  83.7690  0.00  0.00     0.000 C
ATOM      4  C4  GAD B   1       9.361  45.937  84.0210  0.00  0.00     0.000 C
ATOM      5  C5  GAD B   1       8.676  46.570  83.0470  0.00  0.00     0.000 C
ATOM      6  O5  GAD B   1       9.032  46.262  81.6860  0.00  0.00     0.000 O
ATOM      7   O  GAD B   1      11.446  43.408  82.0100  0.00  0.00     0.000 O
ATOM      9  HD  GAD B   1      10.958  43.496  81.3000  0.00  0.00     0.000 HD
ATOM      9   O  GAD B   1      11.575  45.274  84.5830  0.00  0.00     0.000 O
ATOM     11  HD  GAD B   1      11.087  45.362  83.8740  0.00  0.00     0.000 HD
ENDROOT
BRANCH 5 11
ATOM     11   C  GAD B   1       7.553  47.508  83.2790  0.00  0.00     0.000 C
ATOM     12   O  GAD B   1       7.813  48.567  83.9300  0.00  0.00     0.000 OA
ATOM     13   O  GAD B   1       6.363  47.197  82.9000  0.00  0.00     0.000 OA
ENDBRANCH 5 11
BRANCH 1 14
ATOM     14  O3  ASG B   2       9.731  45.335  80.0950  0.00  0.00     0.000 O
BRANCH 14 17
ATOM     15  C1  ASG B   2      11.135  47.792  77.5900  0.00  0.00     0.000 C
ATOM     16  C2  ASG B   2      10.063  46.923  78.2620  0.00  0.00     0.000 C
ATOM     17  C3  ASG B   2      10.695  46.161  79.4300  0.00  0.00     0.000 C
ATOM     18  C4  ASG B   2      11.841  45.303  78.9290  0.00  0.00     0.000 C
ATOM     19  C5  ASG B   2      12.822  46.182  78.1600  0.00  0.00     0.000 C
ATOM     20  O5  ASG B   2      12.129  46.901  77.1200  0.00  0.00     0.000 O
ATOM     21   C  ASG B   2      13.900  45.395  77.4870  0.00  0.00     0.000 C
ATOM     22   O  ASG B   2      14.630  46.240  76.6320  0.00  0.00     0.000 O
ATOM     24  HD  ASG B   2      15.162  46.638  76.0760  0.00  0.00     0.000 HD
BRANCH 16 26
ATOM     24   N  ASG B   2       8.695  46.475  78.1340  0.00  0.00     0.000 N
ATOM     26  HD  ASG B   2       9.303  45.999  78.5260  0.00  0.00     0.000 HD
ATOM     26   C  ASG B   2       7.637  47.130  78.6470  0.00  0.00     0.000 C
ATOM     27   C  ASG B   2       6.300  46.719  78.1340  0.00  0.00     0.000 C
ATOM     28   O  ASG B   2       7.770  48.011  79.4870  0.00  0.00     0.000 OA
ENDBRANCH 16 26
BRANCH 18 29
ATOM     29   O  ASG B   2      11.242  44.252  78.0950  0.00  0.00     0.000 O
ATOM     30   O  ASG B   2      12.965  42.577  78.6130  0.00  0.00     0.000 OA
ATOM     31   O  ASG B   2      10.755  42.384  79.5960  0.00  0.00     0.000 OA
ATOM     32   O  ASG B   2      11.063  42.004  77.2290  0.00  0.00     0.000 OA
ATOM     33   S  ASG B   2      11.533  42.706  78.4230  0.00  0.00     0.000 S
ENDBRANCH 18 29
BRANCH 15 34
ATOM     34  O4  ASG B   3      10.656  48.538  76.5080  0.00  0.00     0.000 O
BRANCH 34 38
ATOM     35  C1  GCT B   3       8.959  52.202  76.2770  0.00  0.00     0.000 C
ATOM     36  C2  GCT B   3      10.001  51.938  75.2120  0.00  0.00     0.000 C
ATOM     37  C3  GCT B   3      10.273  50.447  75.0780  0.00  0.00     0.000 C
ATOM     38  C4  GCT B   3      10.771  49.902  76.4220  0.00  0.00     0.000 C
ATOM     39  C5  GCT B   3      10.117  50.627  77.6200  0.00  0.00     0.000 C
ATOM     40  O5  GCT B   3       8.859  51.098  77.1700  0.00  0.00     0.000 O
ATOM     41   O  GCT B   3       9.476  52.455  73.9980  0.00  0.00     0.000 O
ATOM     43  HD  GCT B   3       9.404  53.263  73.6930  0.00  0.00     0.000 HD
ATOM     43   O  GCT B   3      11.218  50.246  74.0060  0.00  0.00     0.000 O
ATOM     45  HD  GCT B   3      11.145  51.054  73.7020  0.00  0.00     0.000 HD
BRANCH 39 45
ATOM     45   C  GCT B   3      10.872  51.764  78.2730  0.00  0.00     0.000 C
ATOM     46   O  GCT B   3      11.952  52.183  77.7480  0.00  0.00     0.000 OA
ATOM     47   O  GCT B   3      10.392  52.259  79.3050  0.00  0.00     0.000 OA
ENDBRANCH 39 45
BRANCH 35 48
ATOM     48  O3  ASG B   4       8.937  53.488  76.5550  0.00  0.00     0.000 O
BRANCH 48 51
ATOM     49  C1  ASG B   4       5.560  54.929  77.0100  0.00  0.00     0.000 C
ATOM     50  C2  ASG B   4       6.796  54.337  76.3140  0.00  0.00     0.000 C
ATOM     51  C3  ASG B   4       7.785  53.773  77.3300  0.00  0.00     0.000 C
ATOM     52  C4  ASG B   4       8.082  54.781  78.4280  0.00  0.00     0.000 C
ATOM     53  C5  ASG B   4       6.754  55.226  79.0350  0.00  0.00     0.000 C
ATOM     54  O5  ASG B   4       5.954  55.852  78.0130  0.00  0.00     0.000 O
BRANCH 50 57
ATOM     55   N  ASG B   4       5.943  53.497  75.5050  0.00  0.00     0.000 N
ATOM     57  HD  ASG B   4       5.709  54.095  74.9240  0.00  0.00     0.000 HD
ATOM     57   O  ASG B   4       6.234  54.678  73.6250  0.00  0.00     0.000 OA
ATOM     58   C  ASG B   4       5.809  53.674  74.1870  0.00  0.00     0.000 C
ATOM     59   C  ASG B   4       5.064  52.596  73.4620  0.00  0.00     0.000 C
ENDBRANCH 50 57
BRANCH 52 60
ATOM     60   O  ASG B   4       8.829  55.854  77.7220  0.00  0.00     0.000 O
ATOM     61   O  ASG B   4      10.828  55.611  79.1960  0.00  0.00     0.000 OA
ATOM     62   O  ASG B   4      10.902  57.093  77.3340  0.00  0.00     0.000 OA
ATOM     63   O  ASG B   4       9.403  57.561  79.1370  0.00  0.00     0.000 OA
ATOM     64   S  ASG B   4      10.124  56.537  78.3740  0.00  0.00     0.000 S
ENDBRANCH 52 60
ATOM     65   O  ASG B   4       5.655  56.298  80.9120  0.00  0.00     0.000 O
ATOM     67  HD  ASG B   4       5.178  56.772  80.3660  0.00  0.00     0.000 HD
ATOM     67   O  ASG B   4       5.655  56.298  80.9120  0.00  0.00     0.000 O
ATOM     69  HD  ASG B   4       5.178  56.772  80.3660  0.00  0.00     0.000 HD
ENDBRANCH 48 51
ENDBRANCH 35 48
ENDBRANCH 34 38
ENDBRANCH 15 34
ENDBRANCH 14 17
ENDBRANCH 1 14
TORSDOF 12
ENDMDL
MODEL 89
REMARK VINA RESULT:      -6.6      5.578      8.894
ROOT
ATOM      1  C1  GAD B   1       8.738  38.540  27.0740  0.00  0.00     0.000 C
ATOM      2  C2  GAD B   1       8.153  37.335  27.8180  0.00  0.00     0.000 C
ATOM      3  C3  GAD B   1       6.993  36.733  27.0170  0.00  0.00     0.000 C
ATOM      4  C4  GAD B   1       6.193  37.749  26.1980  0.00  0.00     0.000 C
ATOM      5  C5  GAD B   1       6.542  39.042  26.0420  0.00  0.00     0.000 C
ATOM      6  O5  GAD B   1       7.721  39.494  26.7340  0.00  0.00     0.000 O
ATOM      7   O  GAD B   1       9.198  36.345  28.1440  0.00  0.00     0.000 O
ATOM      9  HD  GAD B   1       9.702  37.022  27.9490  0.00  0.00     0.000 HD
ATOM      9   O  GAD B   1       6.039  36.073  27.8780  0.00  0.00     0.000 O
ATOM     11  HD  GAD B   1       6.543  36.750  27.6840  0.00  0.00     0.000 HD
ENDROOT
BRANCH 5 11
ATOM     11   C  GAD B   1       5.835  40.006  25.1670  0.00  0.00     0.000 C
ATOM     12   O  GAD B   1       4.626  39.743  24.8790  0.00  0.00     0.000 OA
ATOM     13   O  GAD B   1       6.466  41.011  24.6690  0.00  0.00     0.000 OA
ENDBRANCH 5 11
BRANCH 1 14
ATOM     14  O3  ASG B   2       9.456  39.512  27.6660  0.00  0.00     0.000 O
BRANCH 14 17
ATOM     15  C1  ASG B   2      10.053  41.658  30.7180  0.00  0.00     0.000 C
ATOM     16  C2  ASG B   2       9.961  41.333  29.2210  0.00  0.00     0.000 C
ATOM     17  C3  ASG B   2       9.560  39.865  29.0500  0.00  0.00     0.000 C
ATOM     18  C4  ASG B   2      10.576  38.968  29.7300  0.00  0.00     0.000 C
ATOM     19  C5  ASG B   2      10.731  39.403  31.1840  0.00  0.00     0.000 C
ATOM     20  O5  ASG B   2      11.052  40.806  31.2470  0.00  0.00     0.000 O
ATOM     21   C  ASG B   2      11.834  38.682  31.8900  0.00  0.00     0.000 C
ATOM     22   O  ASG B   2      12.055  39.280  33.1430  0.00  0.00     0.000 O
ATOM     24  HD  ASG B   2      12.296  39.543  33.9330  0.00  0.00     0.000 HD
BRANCH 16 26
ATOM     24   N  ASG B   2       9.101  42.222  28.4740  0.00  0.00     0.000 N
ATOM     26  HD  ASG B   2       9.498  42.468  29.2040  0.00  0.00     0.000 HD
ATOM     26   C  ASG B   2       9.322  42.588  27.1980  0.00  0.00     0.000 C
ATOM     27   C  ASG B   2       8.174  43.220  26.4890  0.00  0.00     0.000 C
ATOM     28   O  ASG B   2      10.406  42.409  26.6550  0.00  0.00     0.000 OA
ENDBRANCH 16 26
BRANCH 18 29
ATOM     29   O  ASG B   2      11.822  39.093  28.9620  0.00  0.00     0.000 O
ATOM     30   O  ASG B   2      12.601  36.817  29.4700  0.00  0.00     0.000 OA
ATOM     31   O  ASG B   2      11.752  37.341  27.2570  0.00  0.00     0.000 OA
ATOM     32   O  ASG B   2      13.868  38.253  27.9880  0.00  0.00     0.000 OA
ATOM     33   S  ASG B   2      12.543  37.777  28.3840  0.00  0.00     0.000 S
ENDBRANCH 18 29
BRANCH 15 34
ATOM     34  O4  ASG B   3      10.410  42.984  30.9840  0.00  0.00     0.000 O
BRANCH 34 38
ATOM     35  C1  GCT B   3      13.845  44.569  32.4170  0.00  0.00     0.000 C
ATOM     36  C2  GCT B   3      13.228  45.359  31.2840  0.00  0.00     0.000 C
ATOM     37  C3  GCT B   3      11.766  44.980  31.0920  0.00  0.00     0.000 C
ATOM     38  C4  GCT B   3      11.671  43.483  30.7770  0.00  0.00     0.000 C
ATOM     39  C5  GCT B   3      12.758  42.665  31.5110  0.00  0.00     0.000 C
ATOM     40  O5  GCT B   3      13.089  43.392  32.6810  0.00  0.00     0.000 O
ATOM     41   O  GCT B   3      13.339  46.730  31.6410  0.00  0.00     0.000 O
ATOM     43  HD  GCT B   3      14.007  47.280  31.6300  0.00  0.00     0.000 HD
ATOM     43   O  GCT B   3      11.209  45.809  30.0500  0.00  0.00     0.000 O
ATOM     45  HD  GCT B   3      11.878  46.360  30.0400  0.00  0.00     0.000 HD
BRANCH 39 45
ATOM     45   C  GCT B   3      14.026  42.318  30.7620  0.00  0.00     0.000 C
ATOM     46   O  GCT B   3      14.210  42.781  29.5920  0.00  0.00     0.000 OA
ATOM     47   O  GCT B   3      14.857  41.595  31.3360  0.00  0.00     0.000 OA
ENDBRANCH 39 45
BRANCH 35 48
ATOM     48  O3  ASG B   4      15.152  44.717  32.3890  0.00  0.00     0.000 O
BRANCH 48 51
ATOM     49  C1  ASG B   4      17.575  46.642  34.4170  0.00  0.00     0.000 C
ATOM     50  C2  ASG B   4      16.837  46.091  33.1860  0.00  0.00     0.000 C
ATOM     51  C3  ASG B   4      15.571  45.341  33.5910  0.00  0.00     0.000 C
ATOM     52  C4  ASG B   4      15.859  44.323  34.6820  0.00  0.00     0.000 C
ATOM     53  C5  ASG B   4      16.547  45.047  35.8360  0.00  0.00     0.000 C
ATOM     54  O5  ASG B   4      17.788  45.611  35.3670  0.00  0.00     0.000 O
BRANCH 50 57
ATOM     55   N  ASG B   4      16.616  47.291  32.4130  0.00  0.00     0.000 N
ATOM     57  HD  ASG B   4      17.437  47.426  32.1720  0.00  0.00     0.000 HD
ATOM     57   O  ASG B   4      18.380  46.983  31.0690  0.00  0.00     0.000 OA
ATOM     58   C  ASG B   4      17.350  47.594  31.3380  0.00  0.00     0.000 C
ATOM     59   C  ASG B   4      16.862  48.752  30.5250  0.00  0.00     0.000 C
ENDBRANCH 50 57
BRANCH 52 60
ATOM     60   O  ASG B   4      16.702  43.309  33.9980  0.00  0.00     0.000 O
ATOM     61   O  ASG B   4      15.472  41.400  35.0330  0.00  0.00     0.000 OA
ATOM     62   O  ASG B   4      17.154  40.981  33.4000  0.00  0.00     0.000 OA
ATOM     63   O  ASG B   4      17.778  41.951  35.4950  0.00  0.00     0.000 OA
ATOM     64   S  ASG B   4      16.730  41.782  34.4840  0.00  0.00     0.000 S
ENDBRANCH 52 60
ATOM     65   O  ASG B   4      17.172  44.969  38.1780  0.00  0.00     0.000 O
ATOM     67  HD  ASG B   4      17.971  45.237  37.9770  0.00  0.00     0.000 HD
ATOM     67   O  ASG B   4      17.172  44.969  38.1780  0.00  0.00     0.000 O
ATOM     69  HD  ASG B   4      17.971  45.237  37.9770  0.00  0.00     0.000 HD
ENDBRANCH 48 51
ENDBRANCH 35 48
ENDBRANCH 34 38
ENDBRANCH 15 34
ENDBRANCH 14 17
ENDBRANCH 1 14
TORSDOF 12
ENDMDL
MODEL 90
REMARK VINA RESULT:      -6.6     29.026     35.342
ROOT
ATOM      1  C1  GAD B   1      20.042  32.709  66.8050  0.00  0.00     0.000 C
ATOM      2  C2  GAD B   1      19.891  32.440  68.3050  0.00  0.00     0.000 C
ATOM      3  C3  GAD B   1      20.504  33.591  69.1110  0.00  0.00     0.000 C
ATOM      4  C4  GAD B   1      21.706  34.265  68.4420  0.00  0.00     0.000 C
ATOM      5  C5  GAD B   1      22.120  34.004  67.1860  0.00  0.00     0.000 C
ATOM      6  O5  GAD B   1      21.406  32.990  66.4540  0.00  0.00     0.000 O
ATOM      7   O  GAD B   1      18.485  32.175  68.6650  0.00  0.00     0.000 O
ATOM      9  HD  GAD B   1      18.430  32.079  67.8060  0.00  0.00     0.000 HD
ATOM      9   O  GAD B   1      20.964  33.147  70.4070  0.00  0.00     0.000 O
ATOM     11  HD  GAD B   1      20.910  33.051  69.5480  0.00  0.00     0.000 HD
ENDROOT
BRANCH 5 11
ATOM     11   C  GAD B   1      23.214  34.724  66.4930  0.00  0.00     0.000 C
ATOM     12   O  GAD B   1      23.443  35.917  66.8640  0.00  0.00     0.000 OA
ATOM     13   O  GAD B   1      23.829  34.171  65.5080  0.00  0.00     0.000 OA
ENDBRANCH 5 11
BRANCH 1 14
ATOM     14  O3  ASG B   2      19.995  31.750  65.8610  0.00  0.00     0.000 O
BRANCH 14 17
ATOM     15  C1  ASG B   2      17.870  28.900  64.5810  0.00  0.00     0.000 C
ATOM     16  C2  ASG B   2      19.108  29.569  65.1940  0.00  0.00     0.000 C
ATOM     17  C3  ASG B   2      18.867  31.078  65.2900  0.00  0.00     0.000 C
ATOM     18  C4  ASG B   2      18.580  31.645  63.9130  0.00  0.00     0.000 C
ATOM     19  C5  ASG B   2      17.424  30.871  63.2860  0.00  0.00     0.000 C
ATOM     20  O5  ASG B   2      17.716  29.460  63.2900  0.00  0.00     0.000 O
ATOM     21   C  ASG B   2      17.178  31.251  61.8610  0.00  0.00     0.000 C
ATOM     22   O  ASG B   2      16.253  30.356  61.2930  0.00  0.00     0.000 O
ATOM     24  HD  ASG B   2      15.699  29.889  60.8190  0.00  0.00     0.000 HD
BRANCH 16 26
ATOM     24   N  ASG B   2      20.455  29.238  65.6000  0.00  0.00     0.000 N
ATOM     26  HD  ASG B   2      20.251  30.006  65.2560  0.00  0.00     0.000 HD
ATOM     26   C  ASG B   2      20.803  28.912  66.8580  0.00  0.00     0.000 C
ATOM     27   C  ASG B   2      22.141  28.276  67.0240  0.00  0.00     0.000 C
ATOM     28   O  ASG B   2      20.062  29.128  67.8090  0.00  0.00     0.000 OA
ENDBRANCH 16 26
BRANCH 18 29
ATOM     29   O  ASG B   2      19.827  31.528  63.1450  0.00  0.00     0.000 O
ATOM     30   O  ASG B   2      19.421  33.539  61.7920  0.00  0.00     0.000 OA
ATOM     31   O  ASG B   2      21.082  33.585  63.5620  0.00  0.00     0.000 OA
ATOM     32   O  ASG B   2      21.483  32.291  61.5600  0.00  0.00     0.000 OA
ATOM     33   S  ASG B   2      20.485  32.835  62.4820  0.00  0.00     0.000 S
ENDBRANCH 18 29
BRANCH 15 34
ATOM     34  O4  ASG B   3      17.987  27.511  64.4540  0.00  0.00     0.000 O
BRANCH 34 38
ATOM     35  C1  GCT B   3      17.910  24.310  66.9270  0.00  0.00     0.000 C
ATOM     36  C2  GCT B   3      16.949  24.212  65.7620  0.00  0.00     0.000 C
ATOM     37  C3  GCT B   3      17.325  25.197  64.6640  0.00  0.00     0.000 C
ATOM     38  C4  GCT B   3      17.290  26.622  65.2320  0.00  0.00     0.000 C
ATOM     39  C5  GCT B   3      17.725  26.666  66.7150  0.00  0.00     0.000 C
ATOM     40  O5  GCT B   3      18.590  25.561  66.9160  0.00  0.00     0.000 O
ATOM     41   O  GCT B   3      17.036  22.879  65.2790  0.00  0.00     0.000 O
ATOM     43  HD  GCT B   3      16.716  22.131  65.5760  0.00  0.00     0.000 HD
ATOM     43   O  GCT B   3      16.423  25.014  63.5530  0.00  0.00     0.000 O
ATOM     45  HD  GCT B   3      16.103  24.266  63.8510  0.00  0.00     0.000 HD
BRANCH 39 45
ATOM     45   C  GCT B   3      16.651  26.660  67.7800  0.00  0.00     0.000 C
ATOM     46   O  GCT B   3      16.984  26.662  69.0070  0.00  0.00     0.000 OA
ATOM     47   O  GCT B   3      15.466  26.669  67.4070  0.00  0.00     0.000 OA
ENDBRANCH 39 45
BRANCH 35 48
ATOM     48  O3  ASG B   4      17.418  23.652  67.9540  0.00  0.00     0.000 O
BRANCH 48 51
ATOM     49  C1  ASG B   4      20.112  21.860  69.7490  0.00  0.00     0.000 C
ATOM     50  C2  ASG B   4      19.143  22.260  68.6240  0.00  0.00     0.000 C
ATOM     51  C3  ASG B   4      18.412  23.557  68.9600  0.00  0.00     0.000 C
ATOM     52  C4  ASG B   4      17.800  23.499  70.3500  0.00  0.00     0.000 C
ATOM     53  C5  ASG B   4      18.903  23.135  71.3390  0.00  0.00     0.000 C
ATOM     54  O5  ASG B   4      19.437  21.841  70.9960  0.00  0.00     0.000 O
BRANCH 50 57
ATOM     55   N  ASG B   4      18.162  21.302  68.1700  0.00  0.00     0.000 N
ATOM     57  HD  ASG B   4      18.488  21.169  67.3790  0.00  0.00     0.000 HD
ATOM     57   O  ASG B   4      19.535  20.291  66.7190  0.00  0.00     0.000 OA
ATOM     58   C  ASG B   4      18.466  20.316  67.3210  0.00  0.00     0.000 C
ATOM     59   C  ASG B   4      17.400  19.283  67.1170  0.00  0.00     0.000 C
ENDBRANCH 50 57
BRANCH 52 60
ATOM     60   O  ASG B   4      16.729  22.478  70.2160  0.00  0.00     0.000 O
ATOM     61   O  ASG B   4      14.926  24.200  70.0850  0.00  0.00     0.000 OA
ATOM     62   O  ASG B   4      14.393  21.900  69.7750  0.00  0.00     0.000 OA
ATOM     63   O  ASG B   4      15.191  22.635  71.9060  0.00  0.00     0.000 OA
ATOM     64   S  ASG B   4      15.188  22.850  70.4560  0.00  0.00     0.000 S
ENDBRANCH 52 60
ATOM     65   O  ASG B   4      19.590  23.086  73.6640  0.00  0.00     0.000 O
ATOM     67  HD  ASG B   4      19.874  22.274  73.5670  0.00  0.00     0.000 HD
ATOM     67   O  ASG B   4      19.590  23.086  73.6640  0.00  0.00     0.000 O
ATOM     69  HD  ASG B   4      19.874  22.274  73.5670  0.00  0.00     0.000 HD
ENDBRANCH 48 51
ENDBRANCH 35 48
ENDBRANCH 34 38
ENDBRANCH 15 34
ENDBRANCH 14 17
ENDBRANCH 1 14
TORSDOF 12
ENDMDL
MODEL 91
REMARK VINA RESULT:      -6.6     22.186     26.670
ROOT
ATOM      1  C1  GAD B   1      18.451  51.172  57.7470  0.00  0.00     0.000 C
ATOM      2  C2  GAD B   1      18.860  50.026  58.6770  0.00  0.00     0.000 C
ATOM      3  C3  GAD B   1      17.891  49.939  59.8630  0.00  0.00     0.000 C
ATOM      4  C4  GAD B   1      17.308  51.283  60.3060  0.00  0.00     0.000 C
ATOM      5  C5  GAD B   1      17.481  52.443  59.6410  0.00  0.00     0.000 C
ATOM      6  O5  GAD B   1      18.309  52.408  58.4630  0.00  0.00     0.000 O
ATOM      7   O  GAD B   1      18.980  48.753  57.9420  0.00  0.00     0.000 O
ATOM      9  HD  GAD B   1      18.974  49.301  57.2720  0.00  0.00     0.000 HD
ATOM      9   O  GAD B   1      18.529  49.375  61.0300  0.00  0.00     0.000 O
ATOM     11  HD  GAD B   1      18.523  49.923  60.3600  0.00  0.00     0.000 HD
ENDROOT
BRANCH 5 11
ATOM     11   C  GAD B   1      16.835  53.726  60.0010  0.00  0.00     0.000 C
ATOM     12   O  GAD B   1      15.567  53.773  59.9290  0.00  0.00     0.000 OA
ATOM     13   O  GAD B   1      17.554  54.753  60.2900  0.00  0.00     0.000 OA
ENDBRANCH 5 11
BRANCH 1 14
ATOM     14  O3  ASG B   2      19.287  51.769  56.8770  0.00  0.00     0.000 O
BRANCH 14 17
ATOM     15  C1  ASG B   2      22.743  51.425  55.3880  0.00  0.00     0.000 C
ATOM     16  C2  ASG B   2      21.628  52.064  56.2270  0.00  0.00     0.000 C
ATOM     17  C3  ASG B   2      20.359  51.214  56.1060  0.00  0.00     0.000 C
ATOM     18  C4  ASG B   2      19.942  51.111  54.6520  0.00  0.00     0.000 C
ATOM     19  C5  ASG B   2      21.118  50.589  53.8320  0.00  0.00     0.000 C
ATOM     20  O5  ASG B   2      22.277  51.416  54.0520  0.00  0.00     0.000 O
ATOM     21   C  ASG B   2      20.852  50.611  52.3600  0.00  0.00     0.000 C
ATOM     22   O  ASG B   2      22.042  50.324  51.6680  0.00  0.00     0.000 O
ATOM     24  HD  ASG B   2      22.691  50.160  51.1180  0.00  0.00     0.000 HD
BRANCH 16 26
ATOM     24   N  ASG B   2      21.912  52.262  57.6300  0.00  0.00     0.000 N
ATOM     26  HD  ASG B   2      22.539  52.160  57.0410  0.00  0.00     0.000 HD
ATOM     26   C  ASG B   2      21.542  53.353  58.3260  0.00  0.00     0.000 C
ATOM     27   C  ASG B   2      21.611  53.238  59.8100  0.00  0.00     0.000 C
ATOM     28   O  ASG B   2      21.171  54.378  57.7680  0.00  0.00     0.000 OA
ENDBRANCH 16 26
BRANCH 18 29
ATOM     29   O  ASG B   2      19.514  52.456  54.2440  0.00  0.00     0.000 O
ATOM     30   O  ASG B   2      17.769  51.655  52.7090  0.00  0.00     0.000 OA
ATOM     31   O  ASG B   2      17.150  52.632  54.8440  0.00  0.00     0.000 OA
ATOM     32   O  ASG B   2      18.077  54.025  53.1000  0.00  0.00     0.000 OA
ATOM     33   S  ASG B   2      18.022  52.690  53.6950  0.00  0.00     0.000 S
ENDBRANCH 18 29
BRANCH 15 34
ATOM     34  O4  ASG B   3      23.953  52.126  55.4350  0.00  0.00     0.000 O
BRANCH 34 38
ATOM     35  C1  GCT B   3      25.936  50.116  58.3320  0.00  0.00     0.000 C
ATOM     36  C2  GCT B   3      26.577  51.431  57.9460  0.00  0.00     0.000 C
ATOM     37  C3  GCT B   3      25.588  52.318  57.2030  0.00  0.00     0.000 C
ATOM     38  C4  GCT B   3      25.114  51.594  55.9370  0.00  0.00     0.000 C
ATOM     39  C5  GCT B   3      25.023  50.065  56.1440  0.00  0.00     0.000 C
ATOM     40  O5  GCT B   3      24.792  49.856  57.5260  0.00  0.00     0.000 O
ATOM     41   O  GCT B   3      26.983  52.053  59.1570  0.00  0.00     0.000 O
ATOM     43  HD  GCT B   3      27.652  51.909  59.6880  0.00  0.00     0.000 HD
ATOM     43   O  GCT B   3      26.226  53.581  56.9210  0.00  0.00     0.000 O
ATOM     45  HD  GCT B   3      26.895  53.438  57.4510  0.00  0.00     0.000 HD
BRANCH 39 45
ATOM     45   C  GCT B   3      26.187  49.208  55.6960  0.00  0.00     0.000 C
ATOM     46   O  GCT B   3      26.116  47.944  55.8120  0.00  0.00     0.000 OA
ATOM     47   O  GCT B   3      27.176  49.783  55.2140  0.00  0.00     0.000 OA
ENDBRANCH 39 45
BRANCH 35 48
ATOM     48  O3  ASG B   4      26.869  49.277  58.7300  0.00  0.00     0.000 O
BRANCH 48 51
ATOM     49  C1  ASG B   4      27.113  47.679  62.0580  0.00  0.00     0.000 C
ATOM     50  C2  ASG B   4      27.375  48.661  60.9030  0.00  0.00     0.000 C
ATOM     51  C3  ASG B   4      26.354  48.481  59.7830  0.00  0.00     0.000 C
ATOM     52  C4  ASG B   4      26.235  47.021  59.3760  0.00  0.00     0.000 C
ATOM     53  C5  ASG B   4      25.932  46.203  60.6290  0.00  0.00     0.000 C
ATOM     54  O5  ASG B   4      27.018  46.353  61.5640  0.00  0.00     0.000 O
BRANCH 50 57
ATOM     55   N  ASG B   4      27.318  49.863  61.7030  0.00  0.00     0.000 N
ATOM     57  HD  ASG B   4      28.091  49.782  62.0860  0.00  0.00     0.000 HD
ATOM     57   O  ASG B   4      29.539  50.134  61.8020  0.00  0.00     0.000 OA
ATOM     58   C  ASG B   4      28.411  50.571  62.0050  0.00  0.00     0.000 C
ATOM     59   C  ASG B   4      28.163  51.898  62.6530  0.00  0.00     0.000 C
ENDBRANCH 50 57
BRANCH 52 60
ATOM     60   O  ASG B   4      27.549  46.726  58.7490  0.00  0.00     0.000 O
ATOM     61   O  ASG B   4      26.575  45.022  57.2060  0.00  0.00     0.000 OA
ATOM     62   O  ASG B   4      28.867  45.633  57.0020  0.00  0.00     0.000 OA
ATOM     63   O  ASG B   4      28.128  44.523  58.9880  0.00  0.00     0.000 OA
ATOM     64   S  ASG B   4      27.776  45.404  57.8700  0.00  0.00     0.000 S
ENDBRANCH 52 60
ATOM     65   O  ASG B   4      25.123  44.095  61.5120  0.00  0.00     0.000 O
ATOM     67  HD  ASG B   4      25.790  44.066  62.0640  0.00  0.00     0.000 HD
ATOM     67   O  ASG B   4      25.123  44.095  61.5120  0.00  0.00     0.000 O
ATOM     69  HD  ASG B   4      25.790  44.066  62.0640  0.00  0.00     0.000 HD
ENDBRANCH 48 51
ENDBRANCH 35 48
ENDBRANCH 34 38
ENDBRANCH 15 34
ENDBRANCH 14 17
ENDBRANCH 1 14
TORSDOF 12
ENDMDL
MODEL 92
REMARK VINA RESULT:      -6.5     23.439     30.334
ROOT
ATOM      1  C1  GAD B   1      17.161  26.926  66.5230  0.00  0.00     0.000 C
ATOM      2  C2  GAD B   1      16.990  25.542  67.1570  0.00  0.00     0.000 C
ATOM      3  C3  GAD B   1      16.953  25.664  68.6850  0.00  0.00     0.000 C
ATOM      4  C4  GAD B   1      17.801  26.806  69.2520  0.00  0.00     0.000 C
ATOM      5  C5  GAD B   1      18.414  27.742  68.4990  0.00  0.00     0.000 C
ATOM      6  O5  GAD B   1      18.292  27.620  67.0690  0.00  0.00     0.000 O
ATOM      7   O  GAD B   1      15.812  24.842  66.6110  0.00  0.00     0.000 O
ATOM      9  HD  GAD B   1      15.892  25.465  66.0150  0.00  0.00     0.000 HD
ATOM      9   O  GAD B   1      17.427  24.458  69.3250  0.00  0.00     0.000 O
ATOM     11  HD  GAD B   1      17.507  25.082  68.7300  0.00  0.00     0.000 HD
ENDROOT
BRANCH 5 11
ATOM     11   C  GAD B   1      19.147  28.911  69.0400  0.00  0.00     0.000 C
ATOM     12   O  GAD B   1      18.594  30.047  68.9110  0.00  0.00     0.000 OA
ATOM     13   O  GAD B   1      20.324  28.761  69.5370  0.00  0.00     0.000 OA
ENDBRANCH 5 11
BRANCH 1 14
ATOM     14  O3  ASG B   2      17.633  27.129  65.2790  0.00  0.00     0.000 O
BRANCH 14 17
ATOM     15  C1  ASG B   2      19.904  26.006  62.4750  0.00  0.00     0.000 C
ATOM     16  C2  ASG B   2      19.172  27.007  63.3800  0.00  0.00     0.000 C
ATOM     17  C3  ASG B   2      18.335  26.237  64.4060  0.00  0.00     0.000 C
ATOM     18  C4  ASG B   2      17.344  25.336  63.6940  0.00  0.00     0.000 C
ATOM     19  C5  ASG B   2      18.097  24.443  62.7130  0.00  0.00     0.000 C
ATOM     20  O5  ASG B   2      18.898  25.250  61.8270  0.00  0.00     0.000 O
ATOM     21   C  ASG B   2      17.184  23.637  61.8450  0.00  0.00     0.000 C
ATOM     22   O  ASG B   2      17.935  23.009  60.8360  0.00  0.00     0.000 O
ATOM     24  HD  ASG B   2      18.265  22.564  60.1700  0.00  0.00     0.000 HD
BRANCH 16 26
ATOM     24   N  ASG B   2      19.966  27.943  64.1430  0.00  0.00     0.000 N
ATOM     26  HD  ASG B   2      20.290  27.502  63.4710  0.00  0.00     0.000 HD
ATOM     26   C  ASG B   2      19.676  29.251  64.2660  0.00  0.00     0.000 C
ATOM     27   C  ASG B   2      20.392  29.982  65.3490  0.00  0.00     0.000 C
ATOM     28   O  ASG B   2      18.869  29.804  63.5290  0.00  0.00     0.000 OA
ENDBRANCH 16 26
BRANCH 18 29
ATOM     29   O  ASG B   2      16.377  26.222  63.0310  0.00  0.00     0.000 O
ATOM     30   O  ASG B   2      14.517  24.619  63.1550  0.00  0.00     0.000 OA
ATOM     31   O  ASG B   2      14.550  26.552  64.6230  0.00  0.00     0.000 OA
ATOM     32   O  ASG B   2      14.174  26.840  62.2530  0.00  0.00     0.000 OA
ATOM     33   S  ASG B   2      14.803  26.034  63.2990  0.00  0.00     0.000 S
ENDBRANCH 18 29
BRANCH 15 34
ATOM     34  O4  ASG B   3      20.706  26.610  61.5010  0.00  0.00     0.000 O
BRANCH 34 38
ATOM     35  C1  GCT B   3      21.213  27.626  57.6180  0.00  0.00     0.000 C
ATOM     36  C2  GCT B   3      20.627  28.729  58.4720  0.00  0.00     0.000 C
ATOM     37  C3  GCT B   3      20.866  28.456  59.9500  0.00  0.00     0.000 C
ATOM     38  C4  GCT B   3      20.211  27.121  60.3280  0.00  0.00     0.000 C
ATOM     39  C5  GCT B   3      20.267  26.100  59.1690  0.00  0.00     0.000 C
ATOM     40  O5  GCT B   3      21.396  26.440  58.3840  0.00  0.00     0.000 O
ATOM     41   O  GCT B   3      21.279  29.930  58.0820  0.00  0.00     0.000 O
ATOM     43  HD  GCT B   3      21.183  30.445  57.3920  0.00  0.00     0.000 HD
ATOM     43   O  GCT B   3      20.352  29.568  60.7130  0.00  0.00     0.000 O
ATOM     45  HD  GCT B   3      20.256  30.083  60.0230  0.00  0.00     0.000 HD
BRANCH 39 45
ATOM     45   C  GCT B   3      19.057  25.964  58.2710  0.00  0.00     0.000 C
ATOM     46   O  GCT B   3      18.124  26.825  58.3410  0.00  0.00     0.000 OA
ATOM     47   O  GCT B   3      19.029  25.007  57.4790  0.00  0.00     0.000 OA
ENDBRANCH 39 45
BRANCH 35 48
ATOM     48  O3  ASG B   4      20.769  27.748  56.3860  0.00  0.00     0.000 O
BRANCH 48 51
ATOM     49  C1  ASG B   4      22.570  27.973  53.1620  0.00  0.00     0.000 C
ATOM     50  C2  ASG B   4      21.690  28.376  54.3560  0.00  0.00     0.000 C
ATOM     51  C3  ASG B   4      21.792  27.356  55.4870  0.00  0.00     0.000 C
ATOM     52  C4  ASG B   4      21.577  25.942  54.9730  0.00  0.00     0.000 C
ATOM     53  C5  ASG B   4      22.556  25.699  53.8270  0.00  0.00     0.000 C
ATOM     54  O5  ASG B   4      22.288  26.640  52.7690  0.00  0.00     0.000 O
BRANCH 50 57
ATOM     55   N  ASG B   4      20.560  29.046  54.9580  0.00  0.00     0.000 N
ATOM     57  HD  ASG B   4      20.776  29.856  54.7380  0.00  0.00     0.000 HD
ATOM     57   O  ASG B   4      20.604  30.793  53.5580  0.00  0.00     0.000 OA
ATOM     58   C  ASG B   4      20.034  30.162  54.4420  0.00  0.00     0.000 C
ATOM     59   C  ASG B   4      18.742  30.611  55.0520  0.00  0.00     0.000 C
ENDBRANCH 50 57
BRANCH 52 60
ATOM     60   O  ASG B   4      20.146  25.930  54.5750  0.00  0.00     0.000 O
ATOM     61   O  ASG B   4      19.979  23.447  54.7640  0.00  0.00     0.000 OA
ATOM     62   O  ASG B   4      18.030  24.733  54.3000  0.00  0.00     0.000 OA
ATOM     63   O  ASG B   4      19.799  24.674  52.6910  0.00  0.00     0.000 OA
ATOM     64   S  ASG B   4      19.422  24.580  54.1050  0.00  0.00     0.000 S
ENDBRANCH 52 60
ATOM     65   O  ASG B   4      23.654  24.049  52.4300  0.00  0.00     0.000 O
ATOM     67  HD  ASG B   4      23.470  24.519  51.7260  0.00  0.00     0.000 HD
ATOM     67   O  ASG B   4      23.654  24.049  52.4300  0.00  0.00     0.000 O
ATOM     69  HD  ASG B   4      23.470  24.519  51.7260  0.00  0.00     0.000 HD
ENDBRANCH 48 51
ENDBRANCH 35 48
ENDBRANCH 34 38
ENDBRANCH 15 34
ENDBRANCH 14 17
ENDBRANCH 1 14
TORSDOF 12
ENDMDL
MODEL 93
REMARK VINA RESULT:      -6.5     41.890     46.046
ROOT
ATOM      1  C1  GAD B   1       6.553  54.886  74.9320  0.00  0.00     0.000 C
ATOM      2  C2  GAD B   1       5.252  55.667  74.7200  0.00  0.00     0.000 C
ATOM      3  C3  GAD B   1       5.019  56.630  75.8900  0.00  0.00     0.000 C
ATOM      4  C4  GAD B   1       5.552  56.133  77.2370  0.00  0.00     0.000 C
ATOM      5  C5  GAD B   1       6.305  55.026  77.3940  0.00  0.00     0.000 C
ATOM      6  O5  GAD B   1       6.579  54.244  76.2160  0.00  0.00     0.000 O
ATOM      7   O  GAD B   1       5.239  56.345  73.4090  0.00  0.00     0.000 O
ATOM      9  HD  GAD B   1       5.896  55.796  73.2770  0.00  0.00     0.000 HD
ATOM      9   O  GAD B   1       3.612  56.894  76.0880  0.00  0.00     0.000 O
ATOM     11  HD  GAD B   1       4.269  56.345  75.9560  0.00  0.00     0.000 HD
ENDROOT
BRANCH 5 11
ATOM     11   C  GAD B   1       6.913  54.595  78.6740  0.00  0.00     0.000 C
ATOM     12   O  GAD B   1       7.817  53.704  78.6100  0.00  0.00     0.000 OA
ATOM     13   O  GAD B   1       6.470  55.059  79.7890  0.00  0.00     0.000 OA
ENDBRANCH 5 11
BRANCH 1 14
ATOM     14  O3  ASG B   2       6.830  53.711  74.3360  0.00  0.00     0.000 O
BRANCH 14 17
ATOM     15  C1  ASG B   2       8.074  50.289  75.3470  0.00  0.00     0.000 C
ATOM     16  C2  ASG B   2       8.166  51.706  74.7620  0.00  0.00     0.000 C
ATOM     17  C3  ASG B   2       6.796  52.382  74.8670  0.00  0.00     0.000 C
ATOM     18  C4  ASG B   2       5.755  51.563  74.1260  0.00  0.00     0.000 C
ATOM     19  C5  ASG B   2       5.782  50.131  74.6510  0.00  0.00     0.000 C
ATOM     20  O5  ASG B   2       7.118  49.598  74.5640  0.00  0.00     0.000 O
ATOM     21   C  ASG B   2       4.905  49.210  73.8650  0.00  0.00     0.000 C
ATOM     22   O  ASG B   2       5.143  47.883  74.2660  0.00  0.00     0.000 O
ATOM     24  HD  ASG B   2       5.184  47.031  74.4130  0.00  0.00     0.000 HD
BRANCH 16 26
ATOM     24   N  ASG B   2       9.112  52.534  74.0510  0.00  0.00     0.000 N
ATOM     26  HD  ASG B   2       8.262  52.563  73.8910  0.00  0.00     0.000 HD
ATOM     26   C  ASG B   2       9.917  53.436  74.6440  0.00  0.00     0.000 C
ATOM     27   C  ASG B   2      11.050  53.944  73.8210  0.00  0.00     0.000 C
ATOM     28   O  ASG B   2       9.724  53.814  75.7930  0.00  0.00     0.000 OA
ENDBRANCH 16 26
BRANCH 18 29
ATOM     29   O  ASG B   2       6.093  51.654  72.6990  0.00  0.00     0.000 O
ATOM     30   O  ASG B   2       3.755  51.633  71.9380  0.00  0.00     0.000 OA
ATOM     31   O  ASG B   2       5.031  53.697  71.8760  0.00  0.00     0.000 OA
ATOM     32   O  ASG B   2       5.567  51.897  70.3540  0.00  0.00     0.000 OA
ATOM     33   S  ASG B   2       5.030  52.269  71.6630  0.00  0.00     0.000 S
ENDBRANCH 18 29
BRANCH 15 34
ATOM     34  O4  ASG B   3       9.281  49.584  75.3030  0.00  0.00     0.000 O
BRANCH 34 38
ATOM     35  C1  GCT B   3      10.866  49.139  78.9980  0.00  0.00     0.000 C
ATOM     36  C2  GCT B   3      11.584  48.354  77.9220  0.00  0.00     0.000 C
ATOM     37  C3  GCT B   3      11.237  48.888  76.5390  0.00  0.00     0.000 C
ATOM     38  C4  GCT B   3       9.722  48.779  76.3220  0.00  0.00     0.000 C
ATOM     39  C5  GCT B   3       8.932  48.997  77.6320  0.00  0.00     0.000 C
ATOM     40  O5  GCT B   3       9.737  49.819  78.4590  0.00  0.00     0.000 O
ATOM     41   O  GCT B   3      12.974  48.504  78.1730  0.00  0.00     0.000 O
ATOM     43  HD  GCT B   3      13.501  48.141  78.7560  0.00  0.00     0.000 HD
ATOM     43   O  GCT B   3      11.998  48.153  75.5580  0.00  0.00     0.000 O
ATOM     45  HD  GCT B   3      12.525  47.791  76.1420  0.00  0.00     0.000 HD
BRANCH 39 45
ATOM     45   C  GCT B   3       8.488  47.781  78.4160  0.00  0.00     0.000 C
ATOM     46   O  GCT B   3       8.830  46.622  78.0220  0.00  0.00     0.000 OA
ATOM     47   O  GCT B   3       7.807  47.969  79.4380  0.00  0.00     0.000 OA
ENDBRANCH 39 45
BRANCH 35 48
ATOM     48  O3  ASG B   4      10.971  48.502  80.1440  0.00  0.00     0.000 O
BRANCH 48 51
ATOM     49  C1  ASG B   4      12.138  49.995  83.3220  0.00  0.00     0.000 C
ATOM     50  C2  ASG B   4      12.166  49.227  81.9900  0.00  0.00     0.000 C
ATOM     51  C3  ASG B   4      10.875  49.439  81.2030  0.00  0.00     0.000 C
ATOM     52  C4  ASG B   4       9.654  49.183  82.0710  0.00  0.00     0.000 C
ATOM     53  C5  ASG B   4       9.769  50.053  83.3200  0.00  0.00     0.000 C
ATOM     54  O5  ASG B   4      10.958  49.683  84.0450  0.00  0.00     0.000 O
BRANCH 50 57
ATOM     55   N  ASG B   4      13.350  49.751  81.3480  0.00  0.00     0.000 N
ATOM     57  HD  ASG B   4      13.936  49.381  81.8680  0.00  0.00     0.000 HD
ATOM     57   O  ASG B   4      14.676  48.061  81.9820  0.00  0.00     0.000 OA
ATOM     58   C  ASG B   4      14.499  49.069  81.3050  0.00  0.00     0.000 C
ATOM     59   C  ASG B   4      15.562  49.647  80.4230  0.00  0.00     0.000 C
ENDBRANCH 50 57
BRANCH 52 60
ATOM     60   O  ASG B   4       9.711  47.721  82.3290  0.00  0.00     0.000 O
ATOM     61   O  ASG B   4       7.256  47.571  82.7600  0.00  0.00     0.000 OA
ATOM     62   O  ASG B   4       8.573  45.588  82.7070  0.00  0.00     0.000 OA
ATOM     63   O  ASG B   4       8.962  47.201  84.4300  0.00  0.00     0.000 OA
ATOM     64   S  ASG B   4       8.506  46.956  83.0590  0.00  0.00     0.000 S
ENDBRANCH 52 60
ATOM     65   O  ASG B   4       8.606  51.024  85.2140  0.00  0.00     0.000 O
ATOM     67  HD  ASG B   4       9.247  50.773  85.7400  0.00  0.00     0.000 HD
ATOM     67   O  ASG B   4       8.606  51.024  85.2140  0.00  0.00     0.000 O
ATOM     69  HD  ASG B   4       9.247  50.773  85.7400  0.00  0.00     0.000 HD
ENDBRANCH 48 51
ENDBRANCH 35 48
ENDBRANCH 34 38
ENDBRANCH 15 34
ENDBRANCH 14 17
ENDBRANCH 1 14
TORSDOF 12
ENDMDL
MODEL 94
REMARK VINA RESULT:      -6.5     39.143     42.221
ROOT
ATOM      1  C1  GAD B   1       6.203  49.769  75.8850  0.00  0.00     0.000 C
ATOM      2  C2  GAD B   1       5.242  48.959  75.0100  0.00  0.00     0.000 C
ATOM      3  C3  GAD B   1       4.670  47.781  75.8070  0.00  0.00     0.000 C
ATOM      4  C4  GAD B   1       5.622  47.202  76.8570  0.00  0.00     0.000 C
ATOM      5  C5  GAD B   1       6.806  47.751  77.1930  0.00  0.00     0.000 C
ATOM      6  O5  GAD B   1       7.211  48.933  76.4750  0.00  0.00     0.000 O
ATOM      7   O  GAD B   1       4.194  49.817  74.4260  0.00  0.00     0.000 O
ATOM      9  HD  GAD B   1       4.750  50.430  74.6810  0.00  0.00     0.000 HD
ATOM      9   O  GAD B   1       4.310  46.680  74.9430  0.00  0.00     0.000 O
ATOM     11  HD  GAD B   1       4.866  47.292  75.1980  0.00  0.00     0.000 HD
ENDROOT
BRANCH 5 11
ATOM     11   C  GAD B   1       7.686  47.261  78.2800  0.00  0.00     0.000 C
ATOM     12   O  GAD B   1       7.499  47.753  79.4360  0.00  0.00     0.000 OA
ATOM     13   O  GAD B   1       8.638  46.438  78.0180  0.00  0.00     0.000 OA
ENDBRANCH 5 11
BRANCH 1 14
ATOM     14  O3  ASG B   2       7.159  50.582  75.3980  0.00  0.00     0.000 O
BRANCH 14 17
ATOM     15  C1  ASG B   2      10.113  50.903  73.0640  0.00  0.00     0.000 C
ATOM     16  C2  ASG B   2       9.337  51.041  74.3820  0.00  0.00     0.000 C
ATOM     17  C3  ASG B   2       7.925  50.480  74.1920  0.00  0.00     0.000 C
ATOM     18  C4  ASG B   2       7.218  51.223  73.0750  0.00  0.00     0.000 C
ATOM     19  C5  ASG B   2       8.079  51.170  71.8170  0.00  0.00     0.000 C
ATOM     20  O5  ASG B   2       9.403  51.664  72.1050  0.00  0.00     0.000 O
ATOM     21   C  ASG B   2       7.540  52.017  70.7100  0.00  0.00     0.000 C
ATOM     22   O  ASG B   2       8.488  52.086  69.6730  0.00  0.00     0.000 O
ATOM     24  HD  ASG B   2       8.969  52.214  68.9640  0.00  0.00     0.000 HD
BRANCH 16 26
ATOM     24   N  ASG B   2       9.950  50.426  75.5370  0.00  0.00     0.000 N
ATOM     26  HD  ASG B   2      10.407  50.653  74.8370  0.00  0.00     0.000 HD
ATOM     26   C  ASG B   2       9.928  50.958  76.7730  0.00  0.00     0.000 C
ATOM     27   C  ASG B   2      10.300  50.042  77.8880  0.00  0.00     0.000 C
ATOM     28   O  ASG B   2       9.620  52.128  76.9650  0.00  0.00     0.000 OA
ENDBRANCH 16 26
BRANCH 18 29
ATOM     29   O  ASG B   2       7.000  52.593  73.5590  0.00  0.00     0.000 O
ATOM     30   O  ASG B   2       4.907  52.917  72.3100  0.00  0.00     0.000 OA
ATOM     31   O  ASG B   2       4.843  52.575  74.7120  0.00  0.00     0.000 OA
ATOM     32   O  ASG B   2       5.730  54.634  73.8060  0.00  0.00     0.000 OA
ATOM     33   S  ASG B   2       5.513  53.202  73.5970  0.00  0.00     0.000 S
ENDBRANCH 18 29
BRANCH 15 34
ATOM     34  O4  ASG B   3      11.425  51.384  73.1320  0.00  0.00     0.000 O
BRANCH 34 38
ATOM     35  C1  GCT B   3      15.143  49.973  73.8740  0.00  0.00     0.000 C
ATOM     36  C2  GCT B   3      15.000  50.655  72.5310  0.00  0.00     0.000 C
ATOM     37  C3  GCT B   3      13.751  51.525  72.4950  0.00  0.00     0.000 C
ATOM     38  C4  GCT B   3      12.519  50.649  72.7530  0.00  0.00     0.000 C
ATOM     39  C5  GCT B   3      12.824  49.494  73.7350  0.00  0.00     0.000 C
ATOM     40  O5  GCT B   3      13.894  49.932  74.5550  0.00  0.00     0.000 O
ATOM     41   O  GCT B   3      16.162  51.454  72.3580  0.00  0.00     0.000 O
ATOM     43  HD  GCT B   3      16.977  51.255  72.1440  0.00  0.00     0.000 HD
ATOM     43   O  GCT B   3      13.700  52.203  71.2220  0.00  0.00     0.000 O
ATOM     45  HD  GCT B   3      14.515  52.004  71.0080  0.00  0.00     0.000 HD
BRANCH 39 45
ATOM     45   C  GCT B   3      13.157  48.133  73.1630  0.00  0.00     0.000 C
ATOM     46   O  GCT B   3      13.404  48.017  71.9220  0.00  0.00     0.000 OA
ATOM     47   O  GCT B   3      13.189  47.170  73.9460  0.00  0.00     0.000 OA
ENDBRANCH 39 45
BRANCH 35 48
ATOM     48  O3  ASG B   4      16.065  49.038  73.7910  0.00  0.00     0.000 O
BRANCH 48 51
ATOM     49  C1  ASG B   4      18.224  48.548  76.7560  0.00  0.00     0.000 C
ATOM     50  C2  ASG B   4      17.657  49.168  75.4680  0.00  0.00     0.000 C
ATOM     51  C3  ASG B   4      16.324  48.529  75.0880  0.00  0.00     0.000 C
ATOM     52  C4  ASG B   4      16.420  47.012  75.0880  0.00  0.00     0.000 C
ATOM     53  C5  ASG B   4      16.955  46.570  76.4470  0.00  0.00     0.000 C
ATOM     54  O5  ASG B   4      18.266  47.135  76.6450  0.00  0.00     0.000 O
BRANCH 50 57
ATOM     55   N  ASG B   4      17.676  50.526  75.9600  0.00  0.00     0.000 N
ATOM     57  HD  ASG B   4      18.528  50.663  75.8880  0.00  0.00     0.000 HD
ATOM     57   O  ASG B   4      19.516  51.116  74.8290  0.00  0.00     0.000 OA
ATOM     58   C  ASG B   4      18.552  51.433  75.5180  0.00  0.00     0.000 C
ATOM     59   C  ASG B   4      18.306  52.842  75.9630  0.00  0.00     0.000 C
ENDBRANCH 50 57
BRANCH 52 60
ATOM     60   O  ASG B   4      17.323  46.722  73.9440  0.00  0.00     0.000 O
ATOM     61   O  ASG B   4      15.541  45.522  72.6740  0.00  0.00     0.000 OA
ATOM     62   O  ASG B   4      17.662  45.907  71.6630  0.00  0.00     0.000 OA
ATOM     63   O  ASG B   4      17.523  44.471  73.5710  0.00  0.00     0.000 OA
ATOM     64   S  ASG B   4      16.952  45.612  72.8490  0.00  0.00     0.000 S
ENDBRANCH 52 60
ATOM     65   O  ASG B   4      17.231  44.731  78.0040  0.00  0.00     0.000 O
ATOM     67  HD  ASG B   4      18.058  44.957  78.1280  0.00  0.00     0.000 HD
ATOM     67   O  ASG B   4      17.231  44.731  78.0040  0.00  0.00     0.000 O
ATOM     69  HD  ASG B   4      18.058  44.957  78.1280  0.00  0.00     0.000 HD
ENDBRANCH 48 51
ENDBRANCH 35 48
ENDBRANCH 34 38
ENDBRANCH 15 34
ENDBRANCH 14 17
ENDBRANCH 1 14
TORSDOF 12
ENDMDL
MODEL 95
REMARK VINA RESULT:      -6.5     26.114     30.954
ROOT
ATOM      1  C1  GAD B   1      17.988  28.940  64.1180  0.00  0.00     0.000 C
ATOM      2  C2  GAD B   1      18.869  29.015  65.3690  0.00  0.00     0.000 C
ATOM      3  C3  GAD B   1      18.841  30.434  65.9480  0.00  0.00     0.000 C
ATOM      4  C4  GAD B   1      18.679  31.543  64.9050  0.00  0.00     0.000 C
ATOM      5  C5  GAD B   1      18.419  31.325  63.6000  0.00  0.00     0.000 C
ATOM      6  O5  GAD B   1      18.339  29.955  63.1650  0.00  0.00     0.000 O
ATOM      7   O  GAD B   1      18.488  27.987  66.3560  0.00  0.00     0.000 O
ATOM      9  HD  GAD B   1      18.077  27.673  65.6620  0.00  0.00     0.000 HD
ATOM      9   O  GAD B   1      20.057  30.738  66.6680  0.00  0.00     0.000 O
ATOM     11  HD  GAD B   1      19.646  30.424  65.9740  0.00  0.00     0.000 HD
ENDROOT
BRANCH 5 11
ATOM     11   C  GAD B   1      18.155  32.390  62.6040  0.00  0.00     0.000 C
ATOM     12   O  GAD B   1      16.971  32.473  62.1510  0.00  0.00     0.000 OA
ATOM     13   O  GAD B   1      19.118  33.126  62.1740  0.00  0.00     0.000 OA
ENDBRANCH 5 11
BRANCH 1 14
ATOM     14  O3  ASG B   2      18.114  27.998  63.1650  0.00  0.00     0.000 O
BRANCH 14 17
ATOM     15  C1  ASG B   2      19.931  24.916  61.9470  0.00  0.00     0.000 C
ATOM     16  C2  ASG B   2      19.248  26.286  61.8330  0.00  0.00     0.000 C
ATOM     17  C3  ASG B   2      18.758  26.719  63.2180  0.00  0.00     0.000 C
ATOM     18  C4  ASG B   2      17.795  25.687  63.7730  0.00  0.00     0.000 C
ATOM     19  C5  ASG B   2      18.467  24.317  63.7530  0.00  0.00     0.000 C
ATOM     20  O5  ASG B   2      18.944  24.021  62.4260  0.00  0.00     0.000 O
ATOM     21   C  ASG B   2      17.535  23.209  64.1280  0.00  0.00     0.000 C
ATOM     22   O  ASG B   2      18.159  21.973  63.8820  0.00  0.00     0.000 O
ATOM     24  HD  ASG B   2      18.415  21.152  63.7840  0.00  0.00     0.000 HD
BRANCH 16 26
ATOM     24   N  ASG B   2      18.836  27.222  60.8120  0.00  0.00     0.000 N
ATOM     26  HD  ASG B   2      18.375  27.093  61.5340  0.00  0.00     0.000 HD
ATOM     26   C  ASG B   2      19.567  28.284  60.4250  0.00  0.00     0.000 C
ATOM     27   C  ASG B   2      19.158  28.930  59.1460  0.00  0.00     0.000 C
ATOM     28   O  ASG B   2      20.512  28.692  61.0890  0.00  0.00     0.000 OA
ENDBRANCH 16 26
BRANCH 18 29
ATOM     29   O  ASG B   2      16.592  25.743  62.9310  0.00  0.00     0.000 O
ATOM     30   O  ASG B   2      15.028  25.357  64.7870  0.00  0.00     0.000 OA
ATOM     31   O  ASG B   2      15.227  27.571  63.8120  0.00  0.00     0.000 OA
ATOM     32   O  ASG B   2      14.207  25.780  62.5490  0.00  0.00     0.000 OA
ATOM     33   S  ASG B   2      15.178  26.146  63.5790  0.00  0.00     0.000 S
ENDBRANCH 18 29
BRANCH 15 34
ATOM     34  O4  ASG B   3      20.422  24.430  60.7310  0.00  0.00     0.000 O
BRANCH 34 38
ATOM     35  C1  GCT B   3      20.274  21.838  57.6290  0.00  0.00     0.000 C
ATOM     36  C2  GCT B   3      19.256  22.954  57.5470  0.00  0.00     0.000 C
ATOM     37  C3  GCT B   3      19.638  24.104  58.4690  0.00  0.00     0.000 C
ATOM     38  C4  GCT B   3      19.712  23.589  59.9120  0.00  0.00     0.000 C
ATOM     39  C5  GCT B   3      20.217  22.130  59.9820  0.00  0.00     0.000 C
ATOM     40  O5  GCT B   3      21.024  21.926  58.8360  0.00  0.00     0.000 O
ATOM     41   O  GCT B   3      19.244  23.391  56.1950  0.00  0.00     0.000 O
ATOM     43  HD  GCT B   3      18.895  23.052  55.4790  0.00  0.00     0.000 HD
ATOM     43   O  GCT B   3      18.676  25.166  58.3020  0.00  0.00     0.000 O
ATOM     45  HD  GCT B   3      18.327  24.827  57.5850  0.00  0.00     0.000 HD
BRANCH 39 45
ATOM     45   C  GCT B   3      19.194  21.019  60.0780  0.00  0.00     0.000 C
ATOM     46   O  GCT B   3      19.578  19.808  60.0370  0.00  0.00     0.000 OA
ATOM     47   O  GCT B   3      18.002  21.340  60.2100  0.00  0.00     0.000 OA
ENDBRANCH 39 45
BRANCH 35 48
ATOM     48  O3  ASG B   4      19.793  20.766  57.0370  0.00  0.00     0.000 O
BRANCH 48 51
ATOM     49  C1  ASG B   4      22.029  19.729  54.2780  0.00  0.00     0.000 C
ATOM     50  C2  ASG B   4      21.055  20.585  55.1050  0.00  0.00     0.000 C
ATOM     51  C3  ASG B   4      20.867  20.010  56.5060  0.00  0.00     0.000 C
ATOM     52  C4  ASG B   4      20.539  18.527  56.4520  0.00  0.00     0.000 C
ATOM     53  C5  ASG B   4      21.623  17.830  55.6360  0.00  0.00     0.000 C
ATOM     54  O5  ASG B   4      21.628  18.369  54.2990  0.00  0.00     0.000 O
BRANCH 50 57
ATOM     55   N  ASG B   4      21.961  21.600  54.6170  0.00  0.00     0.000 N
ATOM     57  HD  ASG B   4      21.550  21.774  53.8750  0.00  0.00     0.000 HD
ATOM     57   O  ASG B   4      20.418  22.659  53.3870  0.00  0.00     0.000 OA
ATOM     58   C  ASG B   4      21.545  22.629  53.8710  0.00  0.00     0.000 C
ATOM     59   C  ASG B   4      22.559  23.703  53.6270  0.00  0.00     0.000 C
ENDBRANCH 50 57
BRANCH 52 60
ATOM     60   O  ASG B   4      19.186  18.493  55.8390  0.00  0.00     0.000 O
ATOM     61   O  ASG B   4      18.221  17.179  57.7290  0.00  0.00     0.000 OA
ATOM     62   O  ASG B   4      16.800  17.975  55.9920  0.00  0.00     0.000 OA
ATOM     63   O  ASG B   4      18.473  16.347  55.4750  0.00  0.00     0.000 OA
ATOM     64   S  ASG B   4      18.069  17.458  56.3410  0.00  0.00     0.000 S
ENDBRANCH 52 60
ATOM     65   O  ASG B   4      22.673  15.720  55.0640  0.00  0.00     0.000 O
ATOM     67  HD  ASG B   4      22.650  15.932  54.2250  0.00  0.00     0.000 HD
ATOM     67   O  ASG B   4      22.673  15.720  55.0640  0.00  0.00     0.000 O
ATOM     69  HD  ASG B   4      22.650  15.932  54.2250  0.00  0.00     0.000 HD
ENDBRANCH 48 51
ENDBRANCH 35 48
ENDBRANCH 34 38
ENDBRANCH 15 34
ENDBRANCH 14 17
ENDBRANCH 1 14
TORSDOF 12
ENDMDL
MODEL 96
REMARK VINA RESULT:      -6.5      7.397     10.855
ROOT
ATOM      1  C1  GAD B   1      17.979  27.126  33.3580  0.00  0.00     0.000 C
ATOM      2  C2  GAD B   1      17.251  27.523  34.6460  0.00  0.00     0.000 C
ATOM      3  C3  GAD B   1      15.735  27.527  34.4140  0.00  0.00     0.000 C
ATOM      4  C4  GAD B   1      15.311  27.914  32.9950  0.00  0.00     0.000 C
ATOM      5  C5  GAD B   1      16.167  28.087  31.9680  0.00  0.00     0.000 C
ATOM      6  O5  GAD B   1      17.572  27.942  32.2500  0.00  0.00     0.000 O
ATOM      7   O  GAD B   1      17.654  26.665  35.7780  0.00  0.00     0.000 O
ATOM      9  HD  GAD B   1      18.290  26.473  35.2230  0.00  0.00     0.000 HD
ATOM      9   O  GAD B   1      15.065  28.453  35.2980  0.00  0.00     0.000 O
ATOM     11  HD  GAD B   1      15.702  28.261  34.7440  0.00  0.00     0.000 HD
ENDROOT
BRANCH 5 11
ATOM     11   C  GAD B   1      15.761  28.357  30.5680  0.00  0.00     0.000 C
ATOM     12   O  GAD B   1      14.765  27.707  30.1230  0.00  0.00     0.000 OA
ATOM     13   O  GAD B   1      16.455  29.156  29.8370  0.00  0.00     0.000 OA
ENDBRANCH 5 11
BRANCH 1 14
ATOM     14  O3  ASG B   2      19.268  27.418  33.1030  0.00  0.00     0.000 O
BRANCH 14 17
ATOM     15  C1  ASG B   2      22.130  29.768  33.8540  0.00  0.00     0.000 C
ATOM     16  C2  ASG B   2      21.147  28.980  32.9760  0.00  0.00     0.000 C
ATOM     17  C3  ASG B   2      20.209  28.171  33.8770  0.00  0.00     0.000 C
ATOM     18  C4  ASG B   2      21.016  27.231  34.7540  0.00  0.00     0.000 C
ATOM     19  C5  ASG B   2      22.064  28.037  35.5150  0.00  0.00     0.000 C
ATOM     20  O5  ASG B   2      22.860  28.807  34.5930  0.00  0.00     0.000 O
ATOM     21   C  ASG B   2      23.015  27.173  36.2800  0.00  0.00     0.000 C
ATOM     22   O  ASG B   2      24.067  27.964  36.7750  0.00  0.00     0.000 O
ATOM     24  HD  ASG B   2      24.766  28.322  37.1410  0.00  0.00     0.000 HD
BRANCH 16 26
ATOM     24   N  ASG B   2      20.847  28.634  31.6060  0.00  0.00     0.000 N
ATOM     26  HD  ASG B   2      20.646  28.114  32.2690  0.00  0.00     0.000 HD
ATOM     26   C  ASG B   2      20.052  29.365  30.8030  0.00  0.00     0.000 C
ATOM     27   C  ASG B   2      20.128  29.054  29.3470  0.00  0.00     0.000 C
ATOM     28   O  ASG B   2      19.311  30.234  31.2460  0.00  0.00     0.000 OA
ENDBRANCH 16 26
BRANCH 18 29
ATOM     29   O  ASG B   2      21.608  26.230  33.8570  0.00  0.00     0.000 O
ATOM     30   O  ASG B   2      21.539  24.413  35.5110  0.00  0.00     0.000 OA
ATOM     31   O  ASG B   2      19.964  24.429  33.6640  0.00  0.00     0.000 OA
ATOM     32   O  ASG B   2      22.307  23.997  33.2530  0.00  0.00     0.000 OA
ATOM     33   S  ASG B   2      21.320  24.667  34.1000  0.00  0.00     0.000 S
ENDBRANCH 18 29
BRANCH 15 34
ATOM     34  O4  ASG B   3      23.032  30.550  33.1240  0.00  0.00     0.000 O
BRANCH 34 38
ATOM     35  C1  GCT B   3      22.397  34.008  35.1240  0.00  0.00     0.000 C
ATOM     36  C2  GCT B   3      21.748  33.959  33.7580  0.00  0.00     0.000 C
ATOM     37  C3  GCT B   3      21.647  32.524  33.2570  0.00  0.00     0.000 C
ATOM     38  C4  GCT B   3      23.054  31.921  33.1730  0.00  0.00     0.000 C
ATOM     39  C5  GCT B   3      23.984  32.458  34.2850  0.00  0.00     0.000 C
ATOM     40  O5  GCT B   3      23.148  32.825  35.3680  0.00  0.00     0.000 O
ATOM     41   O  GCT B   3      20.451  34.520  33.9060  0.00  0.00     0.000 O
ATOM     43  HD  GCT B   3      20.178  35.339  33.9810  0.00  0.00     0.000 HD
ATOM     43   O  GCT B   3      20.961  32.527  31.9880  0.00  0.00     0.000 O
ATOM     45  HD  GCT B   3      20.687  33.346  32.0630  0.00  0.00     0.000 HD
BRANCH 39 45
ATOM     45   C  GCT B   3      24.909  33.609  33.9550  0.00  0.00     0.000 C
ATOM     46   O  GCT B   3      25.756  34.000  34.8180  0.00  0.00     0.000 OA
ATOM     47   O  GCT B   3      24.812  34.125  32.8290  0.00  0.00     0.000 OA
ENDBRANCH 39 45
BRANCH 35 48
ATOM     48  O3  ASG B   4      22.709  35.254  35.4120  0.00  0.00     0.000 O
BRANCH 48 51
ATOM     49  C1  ASG B   4      21.805  37.220  38.4130  0.00  0.00     0.000 C
ATOM     50  C2  ASG B   4      21.807  36.722  36.9580  0.00  0.00     0.000 C
ATOM     51  C3  ASG B   4      22.620  35.439  36.8140  0.00  0.00     0.000 C
ATOM     52  C4  ASG B   4      23.993  35.583  37.4500  0.00  0.00     0.000 C
ATOM     53  C5  ASG B   4      23.802  36.037  38.8940  0.00  0.00     0.000 C
ATOM     54  O5  ASG B   4      23.133  37.314  38.9030  0.00  0.00     0.000 O
BRANCH 50 57
ATOM     55   N  ASG B   4      20.407  36.557  36.6400  0.00  0.00     0.000 N
ATOM     57  HD  ASG B   4      20.191  37.396  36.6330  0.00  0.00     0.000 HD
ATOM     57   O  ASG B   4      20.195  38.559  35.6580  0.00  0.00     0.000 OA
ATOM     58   C  ASG B   4      19.729  37.453  35.9160  0.00  0.00     0.000 C
ATOM     59   C  ASG B   4      18.355  37.037  35.4910  0.00  0.00     0.000 C
ENDBRANCH 50 57
BRANCH 52 60
ATOM     60   O  ASG B   4      24.678  36.571  36.5770  0.00  0.00     0.000 O
ATOM     61   O  ASG B   4      26.949  35.823  37.2940  0.00  0.00     0.000 OA
ATOM     62   O  ASG B   4      26.727  37.450  35.5700  0.00  0.00     0.000 OA
ATOM     63   O  ASG B   4      26.007  37.993  37.7850  0.00  0.00     0.000 OA
ATOM     64   S  ASG B   4      26.224  36.940  36.7880  0.00  0.00     0.000 S
ENDBRANCH 52 60
ATOM     65   O  ASG B   4      24.813  36.264  41.0860  0.00  0.00     0.000 O
ATOM     67  HD  ASG B   4      24.510  37.073  41.1460  0.00  0.00     0.000 HD
ATOM     67   O  ASG B   4      24.813  36.264  41.0860  0.00  0.00     0.000 O
ATOM     69  HD  ASG B   4      24.510  37.073  41.1460  0.00  0.00     0.000 HD
ENDBRANCH 48 51
ENDBRANCH 35 48
ENDBRANCH 34 38
ENDBRANCH 15 34
ENDBRANCH 14 17
ENDBRANCH 1 14
TORSDOF 12
ENDMDL
MODEL 97
REMARK VINA RESULT:      -6.5     22.030     28.602
ROOT
ATOM      1  C1  GAD B   1      19.711  29.092  65.1900  0.00  0.00     0.000 C
ATOM      2  C2  GAD B   1      20.379  27.868  65.8240  0.00  0.00     0.000 C
ATOM      3  C3  GAD B   1      21.148  28.282  67.0850  0.00  0.00     0.000 C
ATOM      4  C4  GAD B   1      21.739  29.693  67.0330  0.00  0.00     0.000 C
ATOM      5  C5  GAD B   1      21.493  30.584  66.0520  0.00  0.00     0.000 C
ATOM      6  O5  GAD B   1      20.655  30.149  64.9630  0.00  0.00     0.000 O
ATOM      7   O  GAD B   1      19.401  26.792  66.0780  0.00  0.00     0.000 O
ATOM      9  HD  GAD B   1      18.933  27.283  65.5390  0.00  0.00     0.000 HD
ATOM      9   O  GAD B   1      22.258  27.393  67.3460  0.00  0.00     0.000 O
ATOM     11  HD  GAD B   1      21.790  27.883  66.8060  0.00  0.00     0.000 HD
ENDROOT
BRANCH 5 11
ATOM     11   C  GAD B   1      21.972  31.986  66.0450  0.00  0.00     0.000 C
ATOM     12   O  GAD B   1      21.606  32.723  67.0130  0.00  0.00     0.000 OA
ATOM     13   O  GAD B   1      22.656  32.430  65.0510  0.00  0.00     0.000 OA
ENDBRANCH 5 11
BRANCH 1 14
ATOM     14  O3  ASG B   2      19.327  29.155  63.9010  0.00  0.00     0.000 O
BRANCH 14 17
ATOM     15  C1  ASG B   2      20.203  28.417  60.3000  0.00  0.00     0.000 C
ATOM     16  C2  ASG B   2      19.683  29.247  61.4820  0.00  0.00     0.000 C
ATOM     17  C3  ASG B   2      19.799  28.420  62.7660  0.00  0.00     0.000 C
ATOM     18  C4  ASG B   2      19.007  27.133  62.6260  0.00  0.00     0.000 C
ATOM     19  C5  ASG B   2      19.468  26.398  61.3720  0.00  0.00     0.000 C
ATOM     20  O5  ASG B   2      19.377  27.270  60.2280  0.00  0.00     0.000 O
ATOM     21   C  ASG B   2      18.630  25.200  61.0620  0.00  0.00     0.000 C
ATOM     22   O  ASG B   2      18.976  24.705  59.7920  0.00  0.00     0.000 O
ATOM     24  HD  ASG B   2      19.085  24.294  59.0370  0.00  0.00     0.000 HD
BRANCH 16 26
ATOM     24   N  ASG B   2      20.299  30.549  61.5940  0.00  0.00     0.000 N
ATOM     26  HD  ASG B   2      20.221  30.138  60.8360  0.00  0.00     0.000 HD
ATOM     26   C  ASG B   2      19.667  31.643  62.0600  0.00  0.00     0.000 C
ATOM     27   C  ASG B   2      20.538  32.796  62.4250  0.00  0.00     0.000 C
ATOM     28   O  ASG B   2      18.449  31.683  62.1750  0.00  0.00     0.000 OA
ENDBRANCH 16 26
BRANCH 18 29
ATOM     29   O  ASG B   2      17.591  27.519  62.5730  0.00  0.00     0.000 O
ATOM     30   O  ASG B   2      16.781  25.457  63.6390  0.00  0.00     0.000 OA
ATOM     31   O  ASG B   2      16.801  27.539  64.8870  0.00  0.00     0.000 OA
ATOM     32   O  ASG B   2      15.242  27.237  63.0640  0.00  0.00     0.000 OA
ATOM     33   S  ASG B   2      16.549  26.889  63.6220  0.00  0.00     0.000 S
ENDBRANCH 18 29
BRANCH 15 34
ATOM     34  O4  ASG B   3      20.145  29.087  59.0740  0.00  0.00     0.000 O
BRANCH 34 38
ATOM     35  C1  GCT B   3      21.142  27.775  55.3790  0.00  0.00     0.000 C
ATOM     36  C2  GCT B   3      19.902  28.642  55.4110  0.00  0.00     0.000 C
ATOM     37  C3  GCT B   3      19.834  29.442  56.7050  0.00  0.00     0.000 C
ATOM     38  C4  GCT B   3      19.806  28.474  57.8940  0.00  0.00     0.000 C
ATOM     39  C5  GCT B   3      20.643  27.203  57.6270  0.00  0.00     0.000 C
ATOM     40  O5  GCT B   3      21.646  27.567  56.6940  0.00  0.00     0.000 O
ATOM     41   O  GCT B   3      19.994  29.517  54.2960  0.00  0.00     0.000 O
ATOM     43  HD  GCT B   3      19.858  29.395  53.4490  0.00  0.00     0.000 HD
ATOM     43   O  GCT B   3      18.675  30.300  56.6530  0.00  0.00     0.000 O
ATOM     45  HD  GCT B   3      18.539  30.178  55.8070  0.00  0.00     0.000 HD
BRANCH 39 45
ATOM     45   C  GCT B   3      19.930  25.962  57.1350  0.00  0.00     0.000 C
ATOM     46   O  GCT B   3      18.677  26.001  56.9250  0.00  0.00     0.000 OA
ATOM     47   O  GCT B   3      20.612  24.942  56.9390  0.00  0.00     0.000 OA
ENDBRANCH 39 45
BRANCH 35 48
ATOM     48  O3  ASG B   4      21.043  26.912  54.3910  0.00  0.00     0.000 O
BRANCH 48 51
ATOM     49  C1  ASG B   4      24.158  27.553  52.5000  0.00  0.00     0.000 C
ATOM     50  C2  ASG B   4      22.844  27.819  53.2530  0.00  0.00     0.000 C
ATOM     51  C3  ASG B   4      22.345  26.559  53.9550  0.00  0.00     0.000 C
ATOM     52  C4  ASG B   4      22.317  25.373  53.0040  0.00  0.00     0.000 C
ATOM     53  C5  ASG B   4      23.704  25.230  52.3850  0.00  0.00     0.000 C
ATOM     54  O5  ASG B   4      24.019  26.428  51.6480  0.00  0.00     0.000 O
BRANCH 50 57
ATOM     55   N  ASG B   4      23.739  28.899  53.5990  0.00  0.00     0.000 N
ATOM     57  HD  ASG B   4      23.478  29.462  52.9960  0.00  0.00     0.000 HD
ATOM     57   O  ASG B   4      22.400  30.516  52.8200  0.00  0.00     0.000 OA
ATOM     58   C  ASG B   4      23.400  30.183  53.4490  0.00  0.00     0.000 C
ATOM     59   C  ASG B   4      24.344  31.177  54.0510  0.00  0.00     0.000 C
ENDBRANCH 50 57
BRANCH 52 60
ATOM     60   O  ASG B   4      21.243  25.726  52.0400  0.00  0.00     0.000 O
ATOM     61   O  ASG B   4      20.832  23.341  51.4290  0.00  0.00     0.000 OA
ATOM     62   O  ASG B   4      19.425  25.049  50.5500  0.00  0.00     0.000 OA
ATOM     63   O  ASG B   4      21.733  25.002  49.9230  0.00  0.00     0.000 OA
ATOM     64   S  ASG B   4      20.731  24.676  50.9430  0.00  0.00     0.000 S
ENDBRANCH 52 60
ATOM     65   O  ASG B   4      25.235  23.782  51.1840  0.00  0.00     0.000 O
ATOM     67  HD  ASG B   4      25.431  24.431  50.6440  0.00  0.00     0.000 HD
ATOM     67   O  ASG B   4      25.235  23.782  51.1840  0.00  0.00     0.000 O
ATOM     69  HD  ASG B   4      25.431  24.431  50.6440  0.00  0.00     0.000 HD
ENDBRANCH 48 51
ENDBRANCH 35 48
ENDBRANCH 34 38
ENDBRANCH 15 34
ENDBRANCH 14 17
ENDBRANCH 1 14
TORSDOF 12
ENDMDL
MODEL 98
REMARK VINA RESULT:      -6.4     19.387     23.382
ROOT
ATOM      1  C1  GAD B   1      20.742  50.920  45.5900  0.00  0.00     0.000 C
ATOM      2  C2  GAD B   1      20.522  51.309  44.1250  0.00  0.00     0.000 C
ATOM      3  C3  GAD B   1      21.325  50.380  43.2070  0.00  0.00     0.000 C
ATOM      4  C4  GAD B   1      22.639  49.874  43.8080  0.00  0.00     0.000 C
ATOM      5  C5  GAD B   1      23.017  50.075  45.0860  0.00  0.00     0.000 C
ATOM      6  O5  GAD B   1      22.139  50.859  45.9160  0.00  0.00     0.000 O
ATOM      7   O  GAD B   1      19.086  51.346  43.7880  0.00  0.00     0.000 O
ATOM      9  HD  GAD B   1      19.027  51.341  44.6520  0.00  0.00     0.000 HD
ATOM      9   O  GAD B   1      21.677  51.033  41.9670  0.00  0.00     0.000 O
ATOM     11  HD  GAD B   1      21.618  51.028  42.8310  0.00  0.00     0.000 HD
ENDROOT
BRANCH 5 11
ATOM     11   C  GAD B   1      24.234  49.501  45.7060  0.00  0.00     0.000 C
ATOM     12   O  GAD B   1      25.284  49.471  44.9910  0.00  0.00     0.000 OA
ATOM     13   O  GAD B   1      24.179  48.989  46.8840  0.00  0.00     0.000 OA
ENDBRANCH 5 11
BRANCH 1 14
ATOM     14  O3  ASG B   2      20.534  51.751  46.6290  0.00  0.00     0.000 O
BRANCH 14 17
ATOM     15  C1  ASG B   2      17.925  54.165  47.9110  0.00  0.00     0.000 C
ATOM     16  C2  ASG B   2      19.259  53.733  47.2870  0.00  0.00     0.000 C
ATOM     17  C3  ASG B   2      19.305  52.204  47.2090  0.00  0.00     0.000 C
ATOM     18  C4  ASG B   2      19.147  51.610  48.5960  0.00  0.00     0.000 C
ATOM     19  C5  ASG B   2      17.874  52.160  49.2310  0.00  0.00     0.000 C
ATOM     20  O5  ASG B   2      17.894  53.601  49.2090  0.00  0.00     0.000 O
ATOM     21   C  ASG B   2      17.721  51.759  50.6630  0.00  0.00     0.000 C
ATOM     22   O  ASG B   2      16.650  52.470  51.2350  0.00  0.00     0.000 O
ATOM     24  HD  ASG B   2      16.024  52.830  51.7120  0.00  0.00     0.000 HD
BRANCH 16 26
ATOM     24   N  ASG B   2      19.544  54.354  46.0130  0.00  0.00     0.000 N
ATOM     26  HD  ASG B   2      19.038  54.729  46.6080  0.00  0.00     0.000 HD
ATOM     26   C  ASG B   2      20.781  54.677  45.5930  0.00  0.00     0.000 C
ATOM     27   C  ASG B   2      20.920  54.984  44.1420  0.00  0.00     0.000 C
ATOM     28   O  ASG B   2      21.733  54.715  46.3620  0.00  0.00     0.000 OA
ENDBRANCH 16 26
BRANCH 18 29
ATOM     29   O  ASG B   2      20.359  51.970  49.3440  0.00  0.00     0.000 O
ATOM     30   O  ASG B   2      20.259  50.019  50.8370  0.00  0.00     0.000 OA
ATOM     31   O  ASG B   2      21.914  50.104  49.0640  0.00  0.00     0.000 OA
ATOM     32   O  ASG B   2      22.105  51.581  50.9680  0.00  0.00     0.000 OA
ATOM     33   S  ASG B   2      21.206  50.828  50.0930  0.00  0.00     0.000 S
ENDBRANCH 18 29
BRANCH 15 34
ATOM     34  O4  ASG B   3      17.779  55.552  48.0230  0.00  0.00     0.000 O
BRANCH 34 38
ATOM     35  C1  GCT B   3      15.172  58.104  49.7690  0.00  0.00     0.000 C
ATOM     36  C2  GCT B   3      16.619  58.356  50.1350  0.00  0.00     0.000 C
ATOM     37  C3  GCT B   3      17.554  57.681  49.1420  0.00  0.00     0.000 C
ATOM     38  C4  GCT B   3      17.285  56.171  49.1430  0.00  0.00     0.000 C
ATOM     39  C5  GCT B   3      15.794  55.847  49.3880  0.00  0.00     0.000 C
ATOM     40  O5  GCT B   3      15.056  56.965  48.9250  0.00  0.00     0.000 O
ATOM     41   O  GCT B   3      16.803  59.764  50.1070  0.00  0.00     0.000 O
ATOM     43  HD  GCT B   3      16.578  60.390  50.6610  0.00  0.00     0.000 HD
ATOM     43   O  GCT B   3      18.914  58.008  49.4950  0.00  0.00     0.000 O
ATOM     45  HD  GCT B   3      18.689  58.635  50.0490  0.00  0.00     0.000 HD
BRANCH 39 45
ATOM     45   C  GCT B   3      15.354  55.506  50.7950  0.00  0.00     0.000 C
ATOM     46   O  GCT B   3      16.208  55.504  51.7360  0.00  0.00     0.000 OA
ATOM     47   O  GCT B   3      14.152  55.251  50.9790  0.00  0.00     0.000 OA
ENDBRANCH 39 45
BRANCH 35 48
ATOM     48  O3  ASG B   4      14.401  58.466  50.7720  0.00  0.00     0.000 O
BRANCH 48 51
ATOM     49  C1  ASG B   4      11.452  60.350  49.5700  0.00  0.00     0.000 C
ATOM     50  C2  ASG B   4      12.918  60.003  49.8770  0.00  0.00     0.000 C
ATOM     51  C3  ASG B   4      13.061  58.548  50.3170  0.00  0.00     0.000 C
ATOM     52  C4  ASG B   4      12.071  58.206  51.4190  0.00  0.00     0.000 C
ATOM     53  C5  ASG B   4      10.672  58.572  50.9300  0.00  0.00     0.000 C
ATOM     54  O5  ASG B   4      10.621  59.987  50.6610  0.00  0.00     0.000 O
BRANCH 50 57
ATOM     55   N  ASG B   4      13.244  60.496  48.5590  0.00  0.00     0.000 N
ATOM     57  HD  ASG B   4      13.267  61.340  48.7550  0.00  0.00     0.000 HD
ATOM     57   O  ASG B   4      14.260  62.352  49.2950  0.00  0.00     0.000 OA
ATOM     58   C  ASG B   4      13.988  61.591  48.3710  0.00  0.00     0.000 C
ATOM     59   C  ASG B   4      14.417  61.848  46.9590  0.00  0.00     0.000 C
ENDBRANCH 50 57
BRANCH 52 60
ATOM     60   O  ASG B   4      12.550  59.005  52.5760  0.00  0.00     0.000 O
ATOM     61   O  ASG B   4      13.012  56.974  53.9520  0.00  0.00     0.000 OA
ATOM     62   O  ASG B   4      13.616  59.126  54.7740  0.00  0.00     0.000 OA
ATOM     63   O  ASG B   4      11.304  58.606  54.4560  0.00  0.00     0.000 OA
ATOM     64   S  ASG B   4      12.686  58.359  54.0370  0.00  0.00     0.000 S
ENDBRANCH 52 60
ATOM     65   O  ASG B   4       8.286  58.286  51.2530  0.00  0.00     0.000 O
ATOM     67  HD  ASG B   4       8.170  59.141  51.1760  0.00  0.00     0.000 HD
ATOM     67   O  ASG B   4       8.286  58.286  51.2530  0.00  0.00     0.000 O
ATOM     69  HD  ASG B   4       8.170  59.141  51.1760  0.00  0.00     0.000 HD
ENDBRANCH 48 51
ENDBRANCH 35 48
ENDBRANCH 34 38
ENDBRANCH 15 34
ENDBRANCH 14 17
ENDBRANCH 1 14
TORSDOF 12
ENDMDL
MODEL 99
REMARK VINA RESULT:      -6.4     29.464     33.894
ROOT
ATOM      1  C1  GAD B   1      17.624  27.082  62.9980  0.00  0.00     0.000 C
ATOM      2  C2  GAD B   1      17.761  28.128  61.8870  0.00  0.00     0.000 C
ATOM      3  C3  GAD B   1      16.618  29.146  61.9780  0.00  0.00     0.000 C
ATOM      4  C4  GAD B   1      15.300  28.575  62.5080  0.00  0.00     0.000 C
ATOM      5  C5  GAD B   1      15.158  27.332  63.0110  0.00  0.00     0.000 C
ATOM      6  O5  GAD B   1      16.320  26.481  62.9980  0.00  0.00     0.000 O
ATOM      7   O  GAD B   1      19.093  28.761  61.9050  0.00  0.00     0.000 O
ATOM      9  HD  GAD B   1      19.257  28.076  62.4100  0.00  0.00     0.000 HD
ATOM      9   O  GAD B   1      16.315  29.722  60.6880  0.00  0.00     0.000 O
ATOM     11  HD  GAD B   1      16.478  29.038  61.1930  0.00  0.00     0.000 HD
ENDROOT
BRANCH 5 11
ATOM     11   C  GAD B   1      13.916  26.807  63.6230  0.00  0.00     0.000 C
ATOM     12   O  GAD B   1      13.103  27.660  64.0980  0.00  0.00     0.000 OA
ATOM     13   O  GAD B   1      13.734  25.538  63.7280  0.00  0.00     0.000 OA
ENDBRANCH 5 11
BRANCH 1 14
ATOM     14  O3  ASG B   2      18.189  25.861  62.9540  0.00  0.00     0.000 O
BRANCH 14 17
ATOM     15  C1  ASG B   2      17.294  22.262  62.2330  0.00  0.00     0.000 C
ATOM     16  C2  ASG B   2      17.695  23.469  63.0920  0.00  0.00     0.000 C
ATOM     17  C3  ASG B   2      17.819  24.704  62.1960  0.00  0.00     0.000 C
ATOM     18  C4  ASG B   2      18.848  24.455  61.1100  0.00  0.00     0.000 C
ATOM     19  C5  ASG B   2      18.482  23.179  60.3590  0.00  0.00     0.000 C
ATOM     20  O5  ASG B   2      18.333  22.086  61.2870  0.00  0.00     0.000 O
ATOM     21   C  ASG B   2      19.530  22.763  59.3770  0.00  0.00     0.000 C
ATOM     22   O  ASG B   2      19.226  21.481  58.8860  0.00  0.00     0.000 O
ATOM     24  HD  ASG B   2      19.164  20.708  58.5000  0.00  0.00     0.000 HD
BRANCH 16 26
ATOM     24   N  ASG B   2      16.832  23.688  64.2300  0.00  0.00     0.000 N
ATOM     26  HD  ASG B   2      16.948  22.904  63.8820  0.00  0.00     0.000 HD
ATOM     26   C  ASG B   2      17.251  24.188  65.4070  0.00  0.00     0.000 C
ATOM     27   C  ASG B   2      16.185  24.663  66.3340  0.00  0.00     0.000 C
ATOM     28   O  ASG B   2      18.440  24.248  65.6960  0.00  0.00     0.000 OA
ENDBRANCH 16 26
BRANCH 18 29
ATOM     29   O  ASG B   2      20.151  24.367  61.7830  0.00  0.00     0.000 O
ATOM     30   O  ASG B   2      21.407  25.373  59.9240  0.00  0.00     0.000 OA
ATOM     31   O  ASG B   2      20.994  26.657  61.9420  0.00  0.00     0.000 OA
ATOM     32   O  ASG B   2      22.522  24.783  61.9910  0.00  0.00     0.000 OA
ATOM     33   S  ASG B   2      21.335  25.374  61.3730  0.00  0.00     0.000 S
ENDBRANCH 18 29
BRANCH 15 34
ATOM     34  O4  ASG B   3      17.149  21.076  62.9610  0.00  0.00     0.000 O
BRANCH 34 38
ATOM     35  C1  GCT B   3      17.129  17.134  62.0540  0.00  0.00     0.000 C
ATOM     36  C2  GCT B   3      18.048  17.498  63.2000  0.00  0.00     0.000 C
ATOM     37  C3  GCT B   3      17.692  18.865  63.7670  0.00  0.00     0.000 C
ATOM     38  C4  GCT B   3      17.820  19.918  62.6600  0.00  0.00     0.000 C
ATOM     39  C5  GCT B   3      17.432  19.354  61.2740  0.00  0.00     0.000 C
ATOM     40  O5  GCT B   3      16.517  18.298  61.5100  0.00  0.00     0.000 O
ATOM     41   O  GCT B   3      17.876  16.494  64.1900  0.00  0.00     0.000 O
ATOM     43  HD  GCT B   3      18.164  15.679  64.2470  0.00  0.00     0.000 HD
ATOM     43   O  GCT B   3      18.550  19.131  64.8970  0.00  0.00     0.000 O
ATOM     45  HD  GCT B   3      18.839  18.317  64.9540  0.00  0.00     0.000 HD
BRANCH 39 45
ATOM     45   C  GCT B   3      18.536  18.864  60.3630  0.00  0.00     0.000 C
ATOM     46   O  GCT B   3      18.243  18.396  59.2180  0.00  0.00     0.000 OA
ATOM     47   O  GCT B   3      19.706  18.955  60.7710  0.00  0.00     0.000 OA
ENDBRANCH 39 45
BRANCH 35 48
ATOM     48  O3  ASG B   4      17.616  16.089  61.4210  0.00  0.00     0.000 O
BRANCH 48 51
ATOM     49  C1  ASG B   4      15.276  13.327  60.6540  0.00  0.00     0.000 C
ATOM     50  C2  ASG B   4      16.222  14.240  61.4510  0.00  0.00     0.000 C
ATOM     51  C3  ASG B   4      16.584  15.491  60.6550  0.00  0.00     0.000 C
ATOM     52  C4  ASG B   4      17.056  15.135  59.2550  0.00  0.00     0.000 C
ATOM     53  C5  ASG B   4      15.984  14.270  58.5980  0.00  0.00     0.000 C
ATOM     54  O5  ASG B   4      15.814  13.064  59.3680  0.00  0.00     0.000 O
BRANCH 50 57
ATOM     55   N  ASG B   4      17.456  13.748  62.0190  0.00  0.00     0.000 N
ATOM     57  HD  ASG B   4      17.222  13.783  62.8520  0.00  0.00     0.000 HD
ATOM     57   O  ASG B   4      16.500  12.913  63.8640  0.00  0.00     0.000 OA
ATOM     58   C  ASG B   4      17.486  13.024  63.1420  0.00  0.00     0.000 C
ATOM     59   C  ASG B   4      18.809  12.409  63.4810  0.00  0.00     0.000 C
ENDBRANCH 50 57
BRANCH 52 60
ATOM     60   O  ASG B   4      18.350  14.444  59.4910  0.00  0.00     0.000 O
ATOM     61   O  ASG B   4      19.490  15.670  57.6390  0.00  0.00     0.000 OA
ATOM     62   O  ASG B   4      20.745  14.216  59.0460  0.00  0.00     0.000 OA
ATOM     63   O  ASG B   4      19.047  13.295  57.6360  0.00  0.00     0.000 OA
ATOM     64   S  ASG B   4      19.517  14.461  58.3910  0.00  0.00     0.000 S
ENDBRANCH 52 60
ATOM     65   O  ASG B   4      15.112  13.373  56.5210  0.00  0.00     0.000 O
ATOM     67  HD  ASG B   4      15.044  12.590  56.8840  0.00  0.00     0.000 HD
ATOM     67   O  ASG B   4      15.112  13.373  56.5210  0.00  0.00     0.000 O
ATOM     69  HD  ASG B   4      15.044  12.590  56.8840  0.00  0.00     0.000 HD
ENDBRANCH 48 51
ENDBRANCH 35 48
ENDBRANCH 34 38
ENDBRANCH 15 34
ENDBRANCH 14 17
ENDBRANCH 1 14
TORSDOF 12
ENDMDL
MODEL 100
REMARK VINA RESULT:      -6.4     23.157     27.234
ROOT
ATOM      1  C1  GAD B   1      19.862  29.492  61.9930  0.00  0.00     0.000 C
ATOM      2  C2  GAD B   1      19.874  30.934  62.5080  0.00  0.00     0.000 C
ATOM      3  C3  GAD B   1      18.759  31.134  63.5420  0.00  0.00     0.000 C
ATOM      4  C4  GAD B   1      17.509  30.284  63.2990  0.00  0.00     0.000 C
ATOM      5  C5  GAD B   1      17.418  29.317  62.3640  0.00  0.00     0.000 C
ATOM      6  O5  GAD B   1      18.562  29.114  61.5140  0.00  0.00     0.000 O
ATOM      7   O  GAD B   1      21.205  31.311  63.0220  0.00  0.00     0.000 O
ATOM      9  HD  GAD B   1      21.421  30.596  62.5840  0.00  0.00     0.000 HD
ATOM      9   O  GAD B   1      18.309  32.507  63.5790  0.00  0.00     0.000 O
ATOM     11  HD  GAD B   1      18.526  31.791  63.1410  0.00  0.00     0.000 HD
ENDROOT
BRANCH 5 11
ATOM     11   C  GAD B   1      16.253  28.418  62.1910  0.00  0.00     0.000 C
ATOM     12   O  GAD B   1      15.666  28.447  61.0650  0.00  0.00     0.000 OA
ATOM     13   O  GAD B   1      15.827  27.715  63.1800  0.00  0.00     0.000 OA
ENDBRANCH 5 11
BRANCH 1 14
ATOM     14  O3  ASG B   2      20.408  29.106  60.8240  0.00  0.00     0.000 O
BRANCH 14 17
ATOM     15  C1  ASG B   2      19.625  27.169  57.6760  0.00  0.00     0.000 C
ATOM     16  C2  ASG B   2      20.335  27.475  59.0020  0.00  0.00     0.000 C
ATOM     17  C3  ASG B   2      19.777  28.779  59.5800  0.00  0.00     0.000 C
ATOM     18  C4  ASG B   2      19.980  29.912  58.5930  0.00  0.00     0.000 C
ATOM     19  C5  ASG B   2      19.369  29.518  57.2510  0.00  0.00     0.000 C
ATOM     20  O5  ASG B   2      19.910  28.256  56.8140  0.00  0.00     0.000 O
ATOM     21   C  ASG B   2      19.666  30.505  56.1680  0.00  0.00     0.000 C
ATOM     22   O  ASG B   2      19.259  29.975  54.9300  0.00  0.00     0.000 O
ATOM     24  HD  ASG B   2      19.058  29.780  54.1110  0.00  0.00     0.000 HD
BRANCH 16 26
ATOM     24   N  ASG B   2      20.260  26.450  60.0180  0.00  0.00     0.000 N
ATOM     26  HD  ASG B   2      20.133  26.279  59.1780  0.00  0.00     0.000 HD
ATOM     26   C  ASG B   2      21.282  26.117  60.8280  0.00  0.00     0.000 C
ATOM     27   C  ASG B   2      20.931  25.299  62.0230  0.00  0.00     0.000 C
ATOM     28   O  ASG B   2      22.431  26.470  60.5940  0.00  0.00     0.000 OA
ENDBRANCH 16 26
BRANCH 18 29
ATOM     29   O  ASG B   2      21.428  30.143  58.5140  0.00  0.00     0.000 O
ATOM     30   O  ASG B   2      21.223  32.543  58.0270  0.00  0.00     0.000 OA
ATOM     31   O  ASG B   2      21.948  31.811  60.2250  0.00  0.00     0.000 OA
ATOM     32   O  ASG B   2      23.401  31.524  58.3140  0.00  0.00     0.000 OA
ATOM     33   S  ASG B   2      22.023  31.609  58.7970  0.00  0.00     0.000 S
ENDBRANCH 18 29
BRANCH 15 34
ATOM     34  O4  ASG B   3      20.060  25.988  57.0640  0.00  0.00     0.000 O
BRANCH 34 38
ATOM     35  C1  GCT B   3      22.469  23.892  54.5820  0.00  0.00     0.000 C
ATOM     36  C2  GCT B   3      23.213  24.745  55.5860  0.00  0.00     0.000 C
ATOM     37  C3  GCT B   3      22.300  25.147  56.7370  0.00  0.00     0.000 C
ATOM     38  C4  GCT B   3      21.109  25.938  56.1820  0.00  0.00     0.000 C
ATOM     39  C5  GCT B   3      20.682  25.438  54.7830  0.00  0.00     0.000 C
ATOM     40  O5  GCT B   3      21.064  24.076  54.7070  0.00  0.00     0.000 O
ATOM     41   O  GCT B   3      24.292  23.956  56.0660  0.00  0.00     0.000 O
ATOM     43  HD  GCT B   3      25.055  23.742  55.7180  0.00  0.00     0.000 HD
ATOM     43   O  GCT B   3      23.074  25.898  57.6960  0.00  0.00     0.000 O
ATOM     45  HD  GCT B   3      23.837  25.684  57.3480  0.00  0.00     0.000 HD
BRANCH 39 45
ATOM     45   C  GCT B   3      21.203  26.173  53.5670  0.00  0.00     0.000 C
ATOM     46   O  GCT B   3      20.872  25.776  52.4050  0.00  0.00     0.000 OA
ATOM     47   O  GCT B   3      21.933  27.159  53.7560  0.00  0.00     0.000 OA
ENDBRANCH 39 45
BRANCH 35 48
ATOM     48  O3  ASG B   4      23.190  23.782  53.4870  0.00  0.00     0.000 O
BRANCH 48 51
ATOM     49  C1  ASG B   4      24.771  20.500  52.8390  0.00  0.00     0.000 C
ATOM     50  C2  ASG B   4      24.525  21.891  53.4480  0.00  0.00     0.000 C
ATOM     51  C3  ASG B   4      23.157  22.436  53.0460  0.00  0.00     0.000 C
ATOM     52  C4  ASG B   4      22.947  22.341  51.5430  0.00  0.00     0.000 C
ATOM     53  C5  ASG B   4      23.187  20.894  51.1210  0.00  0.00     0.000 C
ATOM     54  O5  ASG B   4      24.544  20.528  51.4390  0.00  0.00     0.000 O
BRANCH 50 57
ATOM     55   N  ASG B   4      25.578  22.831  53.1420  0.00  0.00     0.000 N
ATOM     57  HD  ASG B   4      25.849  22.968  53.9530  0.00  0.00     0.000 HD
ATOM     57   O  ASG B   4      26.807  22.339  54.9470  0.00  0.00     0.000 OA
ATOM     58   C  ASG B   4      26.698  22.909  53.8660  0.00  0.00     0.000 C
ATOM     59   C  ASG B   4      27.778  23.777  53.2980  0.00  0.00     0.000 C
ENDBRANCH 50 57
BRANCH 52 60
ATOM     60   O  ASG B   4      23.925  23.316  50.9940  0.00  0.00     0.000 O
ATOM     61   O  ASG B   4      22.192  24.476  49.6220  0.00  0.00     0.000 OA
ATOM     62   O  ASG B   4      24.407  25.346  49.7170  0.00  0.00     0.000 OA
ATOM     63   O  ASG B   4      24.035  23.209  48.7090  0.00  0.00     0.000 OA
ATOM     64   S  ASG B   4      23.587  24.195  49.6970  0.00  0.00     0.000 S
ENDBRANCH 52 60
ATOM     65   O  ASG B   4      22.868  19.219  49.3970  0.00  0.00     0.000 O
ATOM     67  HD  ASG B   4      23.698  18.981  49.4700  0.00  0.00     0.000 HD
ATOM     67   O  ASG B   4      22.868  19.219  49.3970  0.00  0.00     0.000 O
ATOM     69  HD  ASG B   4      23.698  18.981  49.4700  0.00  0.00     0.000 HD
ENDBRANCH 48 51
ENDBRANCH 35 48
ENDBRANCH 34 38
ENDBRANCH 15 34
ENDBRANCH 14 17
ENDBRANCH 1 14
TORSDOF 12
ENDMDL
