MODEL 1
REMARK VINA RESULT:      -7.2      0.000      0.000
ROOT
ATOM      1  C1  NAG B   1      10.836   3.677  16.8420  0.00  0.00     0.000 C
ATOM      2  C2  NAG B   1       9.380   3.398  17.2050  0.00  0.00     0.000 C
ATOM      3  C3  NAG B   1       9.131   1.924  17.4490  0.00  0.00     0.000 C
ATOM      4  C4  NAG B   1       9.554   1.221  16.1630  0.00  0.00     0.000 C
ATOM      5  C5  NAG B   1      11.056   1.439  15.9410  0.00  0.00     0.000 C
ATOM      6  O5  NAG B   1      11.362   2.843  15.7980  0.00  0.00     0.000 O
ATOM      7   O  NAG B   1       7.745   1.648  17.7550  0.00  0.00     0.000 O
ATOM      9  HD  NAG B   1       7.867   2.422  18.1240  0.00  0.00     0.000 HD
ATOM      9   O  NAG B   1       9.279  -0.167  16.2530  0.00  0.00     0.000 O
ATOM     11  HD  NAG B   1       9.401   0.607  16.6220  0.00  0.00     0.000 HD
ATOM     11   C  NAG B   1      11.530   0.628  14.7290  0.00  0.00     0.000 C
ATOM     12   O  NAG B   1      12.646   1.250  14.0940  0.00  0.00     0.000 O
ATOM     14  HD  NAG B   1      12.768   2.024  14.4620  0.00  0.00     0.000 HD
ENDROOT
BRANCH 2 16
ATOM     14   N  NAG B   1       8.522   4.597  17.1760  0.00  0.00     0.000 N
ATOM     16  HD  NAG B   1       7.699   4.857  17.2430  0.00  0.00     0.000 HD
ATOM     16   C  NAG B   1       8.059   5.196  18.2860  0.00  0.00     0.000 C
ATOM     17   C  NAG B   1       8.389   4.627  19.6410  0.00  0.00     0.000 C
ATOM     18   O  NAG B   1       7.386   6.224  18.2230  0.00  0.00     0.000 OA
ENDBRANCH 2 16
BRANCH 1 19
ATOM     19  O4  BDP B   2      10.790   4.992  16.3080  0.00  0.00     0.000 O
BRANCH 19 23
ATOM     20  C1  BDP B   2      12.328   6.893  12.9960  0.00  0.00     0.000 C
ATOM     21  C2  BDP B   2      11.277   5.833  12.7370  0.00  0.00     0.000 C
ATOM     22  C3  BDP B   2      10.499   5.514  13.9930  0.00  0.00     0.000 C
ATOM     23  C4  BDP B   2      11.490   5.157  15.0970  0.00  0.00     0.000 C
ATOM     24  C5  BDP B   2      12.480   6.291  15.2730  0.00  0.00     0.000 C
ATOM     25  O5  BDP B   2      13.181   6.501  14.0620  0.00  0.00     0.000 O
ATOM     26   O  BDP B   2      10.392   6.260  11.7240  0.00  0.00     0.000 O
ATOM     28  HD  BDP B   2      11.015   6.857  11.6500  0.00  0.00     0.000 HD
ATOM     28   O  BDP B   2       9.582   4.442  13.7220  0.00  0.00     0.000 O
ATOM     30  HD  BDP B   2      10.205   5.039  13.6480  0.00  0.00     0.000 HD
BRANCH 24 30
ATOM     30   C  BDP B   2      13.484   6.002  16.3300  0.00  0.00     0.000 C
ATOM     31   O  BDP B   2      14.109   4.919  16.2480  0.00  0.00     0.000 OA
ATOM     32   O  BDP B   2      13.648   6.851  17.2530  0.00  0.00     0.000 OA
ENDBRANCH 24 30
BRANCH 20 33
ATOM     33  O3  NAG B   3      13.071   6.936  11.8020  0.00  0.00     0.000 O
BRANCH 33 36
ATOM     34  C1  NAG B   3      14.931  10.096  10.9630  0.00  0.00     0.000 C
ATOM     35  C2  NAG B   3      13.754   9.148  11.0930  0.00  0.00     0.000 C
ATOM     36  C3  NAG B   3      14.138   7.883  11.8770  0.00  0.00     0.000 C
ATOM     37  C4  NAG B   3      15.391   7.267  11.2580  0.00  0.00     0.000 C
ATOM     38  C5  NAG B   3      16.477   8.326  11.0960  0.00  0.00     0.000 C
ATOM     39  O5  NAG B   3      15.989   9.404  10.3160  0.00  0.00     0.000 O
ATOM     40   O  NAG B   3      15.879   6.205  12.0930  0.00  0.00     0.000 O
ATOM     42  HD  NAG B   3      16.608   6.670  12.0450  0.00  0.00     0.000 HD
ATOM     42   C  NAG B   3      17.721   7.827  10.3640  0.00  0.00     0.000 C
ATOM     43   O  NAG B   3      17.384   7.508   9.0090  0.00  0.00     0.000 O
ATOM     45  HD  NAG B   3      18.113   7.973   8.9610  0.00  0.00     0.000 HD
BRANCH 35 47
ATOM     45   N  NAG B   3      12.645   9.906  11.6570  0.00  0.00     0.000 N
ATOM     47  HD  NAG B   3      13.374  10.371  11.6050  0.00  0.00     0.000 HD
ATOM     47   C  NAG B   3      11.403   9.787  11.2290  0.00  0.00     0.000 C
ATOM     48   C  NAG B   3      10.385  10.657  11.9060  0.00  0.00     0.000 C
ATOM     49   O  NAG B   3      11.101   9.028  10.3110  0.00  0.00     0.000 OA
ENDBRANCH 35 47
BRANCH 34 50
ATOM     50  O4  BDP B   4      14.438  11.128  10.1350  0.00  0.00     0.000 O
BRANCH 50 54
ATOM     51  C1  BDP B   4      14.403  15.173   9.7010  0.00  0.00     0.000 C
ATOM     52  C2  BDP B   4      15.457  14.457   8.8640  0.00  0.00     0.000 C
ATOM     53  C3  BDP B   4      15.125  12.997   8.8220  0.00  0.00     0.000 C
ATOM     54  C4  BDP B   4      14.995  12.446  10.2710  0.00  0.00     0.000 C
ATOM     55  C5  BDP B   4      14.086  13.307  11.1380  0.00  0.00     0.000 C
ATOM     56  O5  BDP B   4      14.447  14.681  11.0280  0.00  0.00     0.000 O
ATOM     57   O  BDP B   4      15.470  14.972   7.5490  0.00  0.00     0.000 O
ATOM     59  HD  BDP B   4      16.167  15.485   7.5230  0.00  0.00     0.000 HD
ATOM     59   O  BDP B   4      16.238  12.331   8.1910  0.00  0.00     0.000 O
ATOM     61  HD  BDP B   4      16.935  12.844   8.1650  0.00  0.00     0.000 HD
BRANCH 55 61
ATOM     61   C  BDP B   4      14.217  12.871  12.5870  0.00  0.00     0.000 C
ATOM     62   O  BDP B   4      15.357  12.920  13.1180  0.00  0.00     0.000 OA
ATOM     63   O  BDP B   4      13.173  12.481  13.1940  0.00  0.00     0.000 OA
ENDBRANCH 55 61
BRANCH 51 64
ATOM     64  O3  NAG B   5      14.714  16.579   9.6680  0.00  0.00     0.000 O
BRANCH 64 67
ATOM     65  C1  NAG B   5      12.229  19.235   9.0640  0.00  0.00     0.000 C
ATOM     66  C2  NAG B   5      13.259  18.165   8.7470  0.00  0.00     0.000 C
ATOM     67  C3  NAG B   5      13.608  17.390  10.0120  0.00  0.00     0.000 C
ATOM     68  C4  NAG B   5      14.005  18.341  11.1490  0.00  0.00     0.000 C
ATOM     69  C5  NAG B   5      12.959  19.430  11.3290  0.00  0.00     0.000 C
ATOM     70  O5  NAG B   5      12.715  20.086  10.0770  0.00  0.00     0.000 O
ATOM     71   O  NAG B   5      14.168  17.588  12.3310  0.00  0.00     0.000 O
ATOM     73  HD  NAG B   5      14.858  18.104  12.4210  0.00  0.00     0.000 HD
ATOM     73   C  NAG B   5      13.334  20.502  12.3620  0.00  0.00     0.000 C
ATOM     74   O  NAG B   5      14.502  21.219  11.9120  0.00  0.00     0.000 O
ATOM     76  HD  NAG B   5      15.192  21.735  12.0010  0.00  0.00     0.000 HD
BRANCH 66 78
ATOM     76   N  NAG B   5      13.591  18.020   7.3170  0.00  0.00     0.000 N
ATOM     78  HD  NAG B   5      13.262  17.526   7.9480  0.00  0.00     0.000 HD
ATOM     78   C  NAG B   5      13.235  16.997   6.5240  0.00  0.00     0.000 C
ATOM     79   C  NAG B   5      13.709  17.147   5.1030  0.00  0.00     0.000 C
ATOM     80   O  NAG B   5      12.565  15.985   6.9390  0.00  0.00     0.000 OA
ENDBRANCH 66 78
BRANCH 65 81
ATOM     81  O4  BDP B   6      11.932  19.997   7.8880  0.00  0.00     0.000 O
BRANCH 81 85
ATOM     82  C1  BDP B   6       8.454  21.730   6.0800  0.00  0.00     0.000 C
ATOM     83  C2  BDP B   6       9.434  22.674   6.7730  0.00  0.00     0.000 C
ATOM     84  C3  BDP B   6      10.804  22.036   7.0150  0.00  0.00     0.000 C
ATOM     85  C4  BDP B   6      10.688  20.682   7.7190  0.00  0.00     0.000 C
ATOM     86  C5  BDP B   6       9.648  19.833   6.9490  0.00  0.00     0.000 C
ATOM     87  O5  BDP B   6       8.363  20.525   6.8260  0.00  0.00     0.000 O
ATOM     88   O  BDP B   6       9.575  23.787   5.8940  0.00  0.00     0.000 O
ATOM     90  HD  BDP B   6      10.184  24.315   5.5790  0.00  0.00     0.000 HD
ATOM     90   O  BDP B   6      11.625  22.934   7.7650  0.00  0.00     0.000 O
ATOM     92  HD  BDP B   6      12.235  23.462   7.4500  0.00  0.00     0.000 HD
BRANCH 86 92
ATOM     92   C  BDP B   6       9.309  18.581   7.7210  0.00  0.00     0.000 C
ATOM     93   O  BDP B   6       9.803  17.471   7.3580  0.00  0.00     0.000 OA
ATOM     94   O  BDP B   6       8.550  18.703   8.7330  0.00  0.00     0.000 OA
ENDBRANCH 86 92
BRANCH 82 95
ATOM     95  O3  NAG B   7       7.152  22.349   6.0790  0.00  0.00     0.000 O
BRANCH 95 98
ATOM     96  C1  NAG B   7       3.932  21.771   4.4550  0.00  0.00     0.000 C
ATOM     97  C2  NAG B   7       5.108  22.594   4.9630  0.00  0.00     0.000 C
ATOM     98  C3  NAG B   7       6.021  21.587   5.6590  0.00  0.00     0.000 C
ATOM     99  C4  NAG B   7       5.273  20.915   6.8070  0.00  0.00     0.000 C
ATOM    100  C5  NAG B   7       3.960  20.301   6.3180  0.00  0.00     0.000 C
ATOM    101  O5  NAG B   7       3.229  21.287   5.6050  0.00  0.00     0.000 O
BRANCH 97 104
ATOM    102   N  NAG B   7       5.942  23.229   3.9330  0.00  0.00     0.000 N
ATOM    104  HD  NAG B   7       6.613  23.441   3.4290  0.00  0.00     0.000 HD
ATOM    104   O  NAG B   7       7.024  24.918   2.8820  0.00  0.00     0.000 OA
ATOM    105   C  NAG B   7       6.248  24.531   3.7780  0.00  0.00     0.000 C
ATOM    106   C  NAG B   7       5.655  25.531   4.7110  0.00  0.00     0.000 C
ENDBRANCH 97 104
ATOM    107   O  NAG B   7       2.146  18.958   6.9570  0.00  0.00     0.000 O
ATOM    109  HD  NAG B   7       2.696  19.146   6.3160  0.00  0.00     0.000 HD
ATOM    109   O  NAG B   7       2.146  18.958   6.9570  0.00  0.00     0.000 O
ATOM    111  HD  NAG B   7       2.696  19.146   6.3160  0.00  0.00     0.000 HD
ENDBRANCH 95 98
ENDBRANCH 82 95
ENDBRANCH 81 85
ENDBRANCH 65 81
ENDBRANCH 64 67
ENDBRANCH 51 64
ENDBRANCH 50 54
ENDBRANCH 34 50
ENDBRANCH 33 36
ENDBRANCH 20 33
ENDBRANCH 19 23
ENDBRANCH 1 19
TORSDOF 19
ENDMDL
MODEL 2
REMARK VINA RESULT:      -6.9      7.466     16.913
ROOT
ATOM      1  C1  NAG B   1       7.647  21.306   6.0710  0.00  0.00     0.000 C
ATOM      2  C2  NAG B   1       6.153  21.506   5.8260  0.00  0.00     0.000 C
ATOM      3  C3  NAG B   1       5.836  21.638   4.3510  0.00  0.00     0.000 C
ATOM      4  C4  NAG B   1       6.668  22.818   3.8590  0.00  0.00     0.000 C
ATOM      5  C5  NAG B   1       8.157  22.484   4.0170  0.00  0.00     0.000 C
ATOM      6  O5  NAG B   1       8.495  22.253   5.4020  0.00  0.00     0.000 O
ATOM      7   O  NAG B   1       4.428  21.867   4.1140  0.00  0.00     0.000 O
ATOM      9  HD  NAG B   1       4.419  21.341   4.8020  0.00  0.00     0.000 HD
ATOM      9   O  NAG B   1       6.378  23.086   2.4970  0.00  0.00     0.000 O
ATOM     11  HD  NAG B   1       6.369  22.560   3.1850  0.00  0.00     0.000 HD
ATOM     11   C  NAG B   1       9.012  23.599   3.4030  0.00  0.00     0.000 C
ATOM     12   O  NAG B   1      10.277  23.700   4.0540  0.00  0.00     0.000 O
ATOM     14  HD  NAG B   1      10.268  23.174   4.7420  0.00  0.00     0.000 HD
ENDROOT
BRANCH 2 16
ATOM     14   N  NAG B   1       5.372  21.586   7.0730  0.00  0.00     0.000 N
ATOM     16  HD  NAG B   1       4.581  21.758   7.3810  0.00  0.00     0.000 HD
ATOM     16   C  NAG B   1       4.546  20.609   7.4870  0.00  0.00     0.000 C
ATOM     17   C  NAG B   1       4.366  19.372   6.6480  0.00  0.00     0.000 C
ATOM     18   O  NAG B   1       3.947  20.690   8.5590  0.00  0.00     0.000 OA
ENDBRANCH 2 16
BRANCH 1 19
ATOM     19  O4  BDP B   2       7.785  21.570   7.4600  0.00  0.00     0.000 O
BRANCH 19 23
ATOM     20  C1  BDP B   2      11.252  19.449   8.1120  0.00  0.00     0.000 C
ATOM     21  C2  BDP B   2       9.982  18.636   7.9740  0.00  0.00     0.000 C
ATOM     22  C3  BDP B   2       8.879  19.448   7.3340  0.00  0.00     0.000 C
ATOM     23  C4  BDP B   2       8.711  20.743   8.1240  0.00  0.00     0.000 C
ATOM     24  C5  BDP B   2      10.039  21.472   8.1840  0.00  0.00     0.000 C
ATOM     25  O5  BDP B   2      11.000  20.654   8.8220  0.00  0.00     0.000 O
ATOM     26   O  BDP B   2      10.224  17.475   7.2090  0.00  0.00     0.000 O
ATOM     28  HD  BDP B   2      11.036  17.743   7.3500  0.00  0.00     0.000 HD
ATOM     28   O  BDP B   2       7.672  18.670   7.3100  0.00  0.00     0.000 O
ATOM     30  HD  BDP B   2       8.483  18.937   7.4510  0.00  0.00     0.000 HD
BRANCH 24 30
ATOM     30   C  BDP B   2       9.948  22.742   8.9520  0.00  0.00     0.000 C
ATOM     31   O  BDP B   2       9.769  22.653  10.1890  0.00  0.00     0.000 OA
ATOM     32   O  BDP B   2      10.046  23.833   8.3230  0.00  0.00     0.000 OA
ENDBRANCH 24 30
BRANCH 20 33
ATOM     33  O3  NAG B   3      12.100  18.629   8.8790  0.00  0.00     0.000 O
BRANCH 33 36
ATOM     34  C1  NAG B   3      15.702  17.748   8.2480  0.00  0.00     0.000 C
ATOM     35  C2  NAG B   3      14.201  17.552   8.3410  0.00  0.00     0.000 C
ATOM     36  C3  NAG B   3      13.478  18.884   8.5990  0.00  0.00     0.000 C
ATOM     37  C4  NAG B   3      14.109  19.576   9.8050  0.00  0.00     0.000 C
ATOM     38  C5  NAG B   3      15.625  19.642   9.6450  0.00  0.00     0.000 C
ATOM     39  O5  NAG B   3      16.149  18.338   9.4610  0.00  0.00     0.000 O
ATOM     40   O  NAG B   3      13.584  20.906   9.9370  0.00  0.00     0.000 O
ATOM     42  HD  NAG B   3      14.426  21.106   9.9270  0.00  0.00     0.000 HD
ATOM     42   C  NAG B   3      16.351  20.202  10.8650  0.00  0.00     0.000 C
ATOM     43   O  NAG B   3      16.187  19.307  11.9720  0.00  0.00     0.000 O
ATOM     45  HD  NAG B   3      17.030  19.508  11.9610  0.00  0.00     0.000 HD
BRANCH 35 47
ATOM     45   N  NAG B   3      13.627  16.221   8.1910  0.00  0.00     0.000 N
ATOM     47  HD  NAG B   3      13.610  16.501   9.0100  0.00  0.00     0.000 HD
ATOM     47   C  NAG B   3      12.896  15.868   7.1520  0.00  0.00     0.000 C
ATOM     48   C  NAG B   3      12.365  14.466   7.1630  0.00  0.00     0.000 C
ATOM     49   O  NAG B   3      12.642  16.651   6.2390  0.00  0.00     0.000 OA
ENDBRANCH 35 47
BRANCH 34 50
ATOM     50  O4  BDP B   4      16.203  16.433   8.1270  0.00  0.00     0.000 O
BRANCH 50 54
ATOM     51  C1  BDP B   4      18.925  14.089   6.2160  0.00  0.00     0.000 C
ATOM     52  C2  BDP B   4      19.512  14.980   7.3040  0.00  0.00     0.000 C
ATOM     53  C3  BDP B   4      18.394  15.492   8.1600  0.00  0.00     0.000 C
ATOM     54  C4  BDP B   4      17.335  16.204   7.2700  0.00  0.00     0.000 C
ATOM     55  C5  BDP B   4      16.919  15.356   6.0760  0.00  0.00     0.000 C
ATOM     56  O5  BDP B   4      18.067  14.859   5.3940  0.00  0.00     0.000 O
ATOM     57   O  BDP B   4      20.416  14.247   8.1040  0.00  0.00     0.000 O
ATOM     59  HD  BDP B   4      21.199  14.497   7.8330  0.00  0.00     0.000 HD
ATOM     59   O  BDP B   4      18.962  16.476   9.0490  0.00  0.00     0.000 O
ATOM     61  HD  BDP B   4      19.746  16.726   8.7780  0.00  0.00     0.000 HD
BRANCH 55 61
ATOM     61   C  BDP B   4      16.100  16.206   5.1200  0.00  0.00     0.000 C
ATOM     62   O  BDP B   4      15.151  15.654   4.5030  0.00  0.00     0.000 OA
ATOM     63   O  BDP B   4      16.408  17.430   4.9900  0.00  0.00     0.000 OA
ENDBRANCH 55 61
BRANCH 51 64
ATOM     64  O3  NAG B   5      20.028  13.564   5.4530  0.00  0.00     0.000 O
BRANCH 64 67
ATOM     65  C1  NAG B   5      19.852  10.132   4.1160  0.00  0.00     0.000 C
ATOM     66  C2  NAG B   5      20.032  11.245   5.1340  0.00  0.00     0.000 C
ATOM     67  C3  NAG B   5      19.625  12.579   4.5210  0.00  0.00     0.000 C
ATOM     68  C4  NAG B   5      20.345  12.814   3.1860  0.00  0.00     0.000 C
ATOM     69  C5  NAG B   5      20.186  11.610   2.2710  0.00  0.00     0.000 C
ATOM     70  O5  NAG B   5      20.598  10.418   2.9550  0.00  0.00     0.000 O
ATOM     71   O  NAG B   5      19.822  13.982   2.5900  0.00  0.00     0.000 O
ATOM     73  HD  NAG B   5      20.659  14.123   2.4170  0.00  0.00     0.000 HD
ATOM     73   C  NAG B   5      20.980  11.703   0.9600  0.00  0.00     0.000 C
ATOM     74   O  NAG B   5      22.393  11.730   1.2520  0.00  0.00     0.000 O
ATOM     76  HD  NAG B   5      23.229  11.871   1.0780  0.00  0.00     0.000 HD
BRANCH 66 78
ATOM     76   N  NAG B   5      19.292  10.687   6.2830  0.00  0.00     0.000 N
ATOM     78  HD  NAG B   5      20.063  11.055   6.1390  0.00  0.00     0.000 HD
ATOM     78   C  NAG B   5      19.633  10.810   7.5760  0.00  0.00     0.000 C
ATOM     79   C  NAG B   5      18.665  10.145   8.5170  0.00  0.00     0.000 C
ATOM     80   O  NAG B   5      20.686  11.427   7.9700  0.00  0.00     0.000 OA
ENDBRANCH 66 78
BRANCH 65 81
ATOM     81  O4  BDP B   6      20.277   8.881   4.6730  0.00  0.00     0.000 O
BRANCH 81 85
ATOM     82  C1  BDP B   6      19.682   4.686   4.0320  0.00  0.00     0.000 C
ATOM     83  C2  BDP B   6      20.833   5.357   3.2880  0.00  0.00     0.000 C
ATOM     84  C3  BDP B   6      21.213   6.717   3.8800  0.00  0.00     0.000 C
ATOM     85  C4  BDP B   6      19.996   7.632   4.0380  0.00  0.00     0.000 C
ATOM     86  C5  BDP B   6      18.892   6.833   4.7710  0.00  0.00     0.000 C
ATOM     87  O5  BDP B   6      18.579   5.579   4.0840  0.00  0.00     0.000 O
ATOM     88   O  BDP B   6      21.936   4.462   3.4050  0.00  0.00     0.000 O
ATOM     90  HD  BDP B   6      22.789   4.470   3.5530  0.00  0.00     0.000 HD
ATOM     90   O  BDP B   6      22.214   7.333   3.0660  0.00  0.00     0.000 O
ATOM     92  HD  BDP B   6      23.067   7.341   3.2140  0.00  0.00     0.000 HD
BRANCH 86 92
ATOM     92   C  BDP B   6      17.587   7.591   4.7500  0.00  0.00     0.000 C
ATOM     93   O  BDP B   6      16.837   7.513   3.7300  0.00  0.00     0.000 OA
ATOM     94   O  BDP B   6      17.284   8.265   5.7820  0.00  0.00     0.000 OA
ENDBRANCH 86 92
BRANCH 82 95
ATOM     95  O3  NAG B   7      19.276   3.523   3.2850  0.00  0.00     0.000 O
BRANCH 95 98
ATOM     96  C1  NAG B   7      17.099   0.781   4.3250  0.00  0.00     0.000 C
ATOM     97  C2  NAG B   7      18.410   1.442   3.9190  0.00  0.00     0.000 C
ATOM     98  C3  NAG B   7      18.038   2.889   3.6040  0.00  0.00     0.000 C
ATOM     99  C4  NAG B   7      17.018   2.928   2.4690  0.00  0.00     0.000 C
ATOM    100  C5  NAG B   7      15.807   2.051   2.7930  0.00  0.00     0.000 C
ATOM    101  O5  NAG B   7      16.261   0.759   3.1640  0.00  0.00     0.000 O
BRANCH 97 104
ATOM    102   N  NAG B   7      19.797   1.314   4.3850  0.00  0.00     0.000 N
ATOM    104  HD  NAG B   7      20.583   0.996   4.5620  0.00  0.00     0.000 HD
ATOM    104   O  NAG B   7      21.489   1.252   5.8900  0.00  0.00     0.000 OA
ATOM    105   C  NAG B   7      20.285   1.450   5.6330  0.00  0.00     0.000 C
ATOM    106   C  NAG B   7      19.358   1.833   6.7360  0.00  0.00     0.000 C
ENDBRANCH 97 104
ATOM    107   O  NAG B   7      13.664   1.440   2.0600  0.00  0.00     0.000 O
ATOM    109  HD  NAG B   7      14.150   1.623   2.7530  0.00  0.00     0.000 HD
ATOM    109   O  NAG B   7      13.664   1.440   2.0600  0.00  0.00     0.000 O
ATOM    111  HD  NAG B   7      14.150   1.623   2.7530  0.00  0.00     0.000 HD
ENDBRANCH 95 98
ENDBRANCH 82 95
ENDBRANCH 81 85
ENDBRANCH 65 81
ENDBRANCH 64 67
ENDBRANCH 51 64
ENDBRANCH 50 54
ENDBRANCH 34 50
ENDBRANCH 33 36
ENDBRANCH 20 33
ENDBRANCH 19 23
ENDBRANCH 1 19
TORSDOF 19
ENDMDL
MODEL 3
REMARK VINA RESULT:      -6.9      6.681     12.437
ROOT
ATOM      1  C1  NAG B   1       3.039   7.053  18.8470  0.00  0.00     0.000 C
ATOM      2  C2  NAG B   1       1.804   6.223  19.1870  0.00  0.00     0.000 C
ATOM      3  C3  NAG B   1       1.034   5.824  17.9450  0.00  0.00     0.000 C
ATOM      4  C4  NAG B   1       0.680   7.133  17.2460  0.00  0.00     0.000 C
ATOM      5  C5  NAG B   1       1.973   7.841  16.8210  0.00  0.00     0.000 C
ATOM      6  O5  NAG B   1       2.793   8.160  17.9650  0.00  0.00     0.000 O
ATOM      7   O  NAG B   1      -0.159   5.071  18.2620  0.00  0.00     0.000 O
ATOM      9  HD  NAG B   1       0.395   4.809  18.8730  0.00  0.00     0.000 HD
ATOM      9   O  NAG B   1      -0.124   6.877  16.1070  0.00  0.00     0.000 O
ATOM     11  HD  NAG B   1       0.431   6.615  16.7180  0.00  0.00     0.000 HD
ATOM     11   C  NAG B   1       1.639   9.091  15.9960  0.00  0.00     0.000 C
ATOM     12   O  NAG B   1       2.649  10.088  16.1350  0.00  0.00     0.000 O
ATOM     14  HD  NAG B   1       3.203   9.826  16.7470  0.00  0.00     0.000 HD
ENDROOT
BRANCH 2 16
ATOM     14   N  NAG B   1       2.216   5.069  20.0050  0.00  0.00     0.000 N
ATOM     16  HD  NAG B   1       2.765   4.827  20.6300  0.00  0.00     0.000 HD
ATOM     16   C  NAG B   1       1.808   4.883  21.2720  0.00  0.00     0.000 C
ATOM     17   C  NAG B   1       0.908   5.897  21.9280  0.00  0.00     0.000 C
ATOM     18   O  NAG B   1       2.133   3.881  21.9070  0.00  0.00     0.000 OA
ENDBRANCH 2 16
BRANCH 1 19
ATOM     19  O4  BDP B   2       3.401   7.622  20.0980  0.00  0.00     0.000 O
BRANCH 19 23
ATOM     20  C1  BDP B   2       7.338   8.477  19.2560  0.00  0.00     0.000 C
ATOM     21  C2  BDP B   2       7.006   7.022  19.5150  0.00  0.00     0.000 C
ATOM     22  C3  BDP B   2       5.520   6.769  19.3940  0.00  0.00     0.000 C
ATOM     23  C4  BDP B   2       4.787   7.751  20.3040  0.00  0.00     0.000 C
ATOM     24  C5  BDP B   2       5.189   9.168  19.9450  0.00  0.00     0.000 C
ATOM     25  O5  BDP B   2       6.586   9.322  20.1150  0.00  0.00     0.000 O
ATOM     26   O  BDP B   2       7.705   6.192  18.6130  0.00  0.00     0.000 O
ATOM     28  HD  BDP B   2       8.105   6.947  18.4740  0.00  0.00     0.000 HD
ATOM     28   O  BDP B   2       5.242   5.403  19.7380  0.00  0.00     0.000 O
ATOM     30  HD  BDP B   2       5.643   6.158  19.6000  0.00  0.00     0.000 HD
BRANCH 24 30
ATOM     30   C  BDP B   2       4.518  10.177  20.8050  0.00  0.00     0.000 C
ATOM     31   O  BDP B   2       3.747  10.989  20.2420  0.00  0.00     0.000 OA
ATOM     32   O  BDP B   2       4.762  10.169  22.0450  0.00  0.00     0.000 OA
ENDBRANCH 24 30
BRANCH 20 33
ATOM     33  O3  NAG B   3       8.702   8.578  19.5870  0.00  0.00     0.000 O
BRANCH 33 36
ATOM     34  C1  NAG B   3      10.969  11.001  17.8150  0.00  0.00     0.000 C
ATOM     35  C2  NAG B   3      10.219   9.709  18.0760  0.00  0.00     0.000 C
ATOM     36  C3  NAG B   3       9.235   9.860  19.2460  0.00  0.00     0.000 C
ATOM     37  C4  NAG B   3       9.973  10.426  20.4570  0.00  0.00     0.000 C
ATOM     38  C5  NAG B   3      10.761  11.673  20.0610  0.00  0.00     0.000 C
ATOM     39  O5  NAG B   3      11.654  11.365  19.0050  0.00  0.00     0.000 O
ATOM     40   O  NAG B   3       9.035  10.762  21.4910  0.00  0.00     0.000 O
ATOM     42  HD  NAG B   3       9.433  11.529  21.4320  0.00  0.00     0.000 HD
ATOM     42   C  NAG B   3      11.635  12.232  21.1810  0.00  0.00     0.000 C
ATOM     43   O  NAG B   3      12.668  11.291  21.4980  0.00  0.00     0.000 O
ATOM     45  HD  NAG B   3      13.066  12.058  21.4390  0.00  0.00     0.000 HD
BRANCH 35 47
ATOM     45   N  NAG B   3      10.440   8.480  17.3240  0.00  0.00     0.000 N
ATOM     47  HD  NAG B   3      10.684   8.413  18.1530  0.00  0.00     0.000 HD
ATOM     47   C  NAG B   3       9.604   8.042  16.4030  0.00  0.00     0.000 C
ATOM     48   C  NAG B   3       9.972   6.749  15.7390  0.00  0.00     0.000 C
ATOM     49   O  NAG B   3       8.570   8.644  16.1230  0.00  0.00     0.000 OA
ENDBRANCH 35 47
BRANCH 34 50
ATOM     50  O4  BDP B   4      11.892  10.652  16.8030  0.00  0.00     0.000 O
BRANCH 50 54
ATOM     51  C1  BDP B   4      13.701  11.912  13.3840  0.00  0.00     0.000 C
ATOM     52  C2  BDP B   4      14.127  12.666  14.6390  0.00  0.00     0.000 C
ATOM     53  C3  BDP B   4      13.694  11.882  15.8390  0.00  0.00     0.000 C
ATOM     54  C4  BDP B   4      12.165  11.605  15.7620  0.00  0.00     0.000 C
ATOM     55  C5  BDP B   4      11.746  11.035  14.4140  0.00  0.00     0.000 C
ATOM     56  O5  BDP B   4      12.289  11.816  13.3530  0.00  0.00     0.000 O
ATOM     57   O  BDP B   4      15.530  12.822  14.6640  0.00  0.00     0.000 O
ATOM     59  HD  BDP B   4      15.661  13.647  14.4340  0.00  0.00     0.000 HD
ATOM     59   O  BDP B   4      13.938  12.712  16.9930  0.00  0.00     0.000 O
ATOM     61  HD  BDP B   4      14.069  13.536  16.7630  0.00  0.00     0.000 HD
BRANCH 55 61
ATOM     61   C  BDP B   4      10.232  11.042  14.3150  0.00  0.00     0.000 C
ATOM     62   O  BDP B   4       9.692  10.301  13.4520  0.00  0.00     0.000 OA
ATOM     63   O  BDP B   4       9.582  11.792  15.1060  0.00  0.00     0.000 OA
ENDBRANCH 55 61
BRANCH 51 64
ATOM     64  O3  NAG B   5      14.188  12.658  12.2520  0.00  0.00     0.000 O
BRANCH 64 67
ATOM     65  C1  NAG B   5      15.068  10.832   9.1720  0.00  0.00     0.000 C
ATOM     66  C2  NAG B   5      15.198  11.350  10.5940  0.00  0.00     0.000 C
ATOM     67  C3  NAG B   5      13.901  12.026  11.0200  0.00  0.00     0.000 C
ATOM     68  C4  NAG B   5      13.467  13.081   9.9940  0.00  0.00     0.000 C
ATOM     69  C5  NAG B   5      13.456  12.495   8.5910  0.00  0.00     0.000 C
ATOM     70  O5  NAG B   5      14.725  11.889   8.3050  0.00  0.00     0.000 O
ATOM     71   O  NAG B   5      12.191  13.565  10.3550  0.00  0.00     0.000 O
ATOM     73  HD  NAG B   5      12.550  14.323  10.1380  0.00  0.00     0.000 HD
ATOM     73   C  NAG B   5      13.156  13.513   7.4820  0.00  0.00     0.000 C
ATOM     74   O  NAG B   5      14.207  14.500   7.4340  0.00  0.00     0.000 O
ATOM     76  HD  NAG B   5      14.566  15.258   7.2170  0.00  0.00     0.000 HD
BRANCH 66 78
ATOM     76   N  NAG B   5      15.639  10.144  11.3210  0.00  0.00     0.000 N
ATOM     78  HD  NAG B   5      15.901  10.965  11.2300  0.00  0.00     0.000 HD
ATOM     78   C  NAG B   5      16.577  10.100  12.2800  0.00  0.00     0.000 C
ATOM     79   C  NAG B   5      16.792   8.723  12.8460  0.00  0.00     0.000 C
ATOM     80   O  NAG B   5      17.233  11.131  12.6700  0.00  0.00     0.000 OA
ENDBRANCH 66 78
BRANCH 65 81
ATOM     81  O4  BDP B   6      16.302  10.236   8.7490  0.00  0.00     0.000 O
BRANCH 81 85
ATOM     82  C1  BDP B   6      17.716   7.237   6.0360  0.00  0.00     0.000 C
ATOM     83  C2  BDP B   6      17.468   8.634   5.4750  0.00  0.00     0.000 C
ATOM     84  C3  BDP B   6      17.368   9.704   6.5660  0.00  0.00     0.000 C
ATOM     85  C4  BDP B   6      16.367   9.317   7.6570  0.00  0.00     0.000 C
ATOM     86  C5  BDP B   6      16.699   7.877   8.1170  0.00  0.00     0.000 C
ATOM     87  O5  BDP B   6      16.714   6.936   6.9960  0.00  0.00     0.000 O
ATOM     88   O  BDP B   6      18.585   8.912   4.6360  0.00  0.00     0.000 O
ATOM     90  HD  BDP B   6      19.129   9.557   4.4400  0.00  0.00     0.000 HD
ATOM     90   O  BDP B   6      17.022  10.960   5.9760  0.00  0.00     0.000 O
ATOM     92  HD  BDP B   6      17.565  11.605   5.7800  0.00  0.00     0.000 HD
BRANCH 86 92
ATOM     92   C  BDP B   6      15.611   7.345   9.0190  0.00  0.00     0.000 C
ATOM     93   O  BDP B   6      14.402   7.650   8.7850  0.00  0.00     0.000 OA
ATOM     94   O  BDP B   6      15.961   6.585   9.9740  0.00  0.00     0.000 OA
ENDBRANCH 86 92
BRANCH 82 95
ATOM     95  O3  NAG B   7      17.595   6.288   4.9580  0.00  0.00     0.000 O
BRANCH 95 98
ATOM     96  C1  NAG B   7      19.359   3.228   4.0260  0.00  0.00     0.000 C
ATOM     97  C2  NAG B   7      18.767   4.615   3.8120  0.00  0.00     0.000 C
ATOM     98  C3  NAG B   7      18.095   4.963   5.1390  0.00  0.00     0.000 C
ATOM     99  C4  NAG B   7      17.012   3.936   5.4580  0.00  0.00     0.000 C
ATOM    100  C5  NAG B   7      17.579   2.516   5.4240  0.00  0.00     0.000 C
ATOM    101  O5  NAG B   7      18.262   2.323   4.1950  0.00  0.00     0.000 O
BRANCH 97 104
ATOM    102   N  NAG B   7      19.708   5.720   3.5870  0.00  0.00     0.000 N
ATOM    104  HD  NAG B   7      20.139   6.467   3.6680  0.00  0.00     0.000 HD
ATOM    104   O  NAG B   7      20.651   7.457   2.4810  0.00  0.00     0.000 OA
ATOM    105   C  NAG B   7      19.839   6.511   2.5050  0.00  0.00     0.000 C
ATOM    106   C  NAG B   7      18.981   6.256   1.3130  0.00  0.00     0.000 C
ENDBRANCH 97 104
ATOM    107   O  NAG B   7      17.077   0.268   5.8690  0.00  0.00     0.000 O
ATOM    109  HD  NAG B   7      17.688   0.880   5.9160  0.00  0.00     0.000 HD
ATOM    109   O  NAG B   7      17.077   0.268   5.8690  0.00  0.00     0.000 O
ATOM    111  HD  NAG B   7      17.688   0.880   5.9160  0.00  0.00     0.000 HD
ENDBRANCH 95 98
ENDBRANCH 82 95
ENDBRANCH 81 85
ENDBRANCH 65 81
ENDBRANCH 64 67
ENDBRANCH 51 64
ENDBRANCH 50 54
ENDBRANCH 34 50
ENDBRANCH 33 36
ENDBRANCH 20 33
ENDBRANCH 19 23
ENDBRANCH 1 19
TORSDOF 19
ENDMDL
MODEL 4
REMARK VINA RESULT:      -6.8      1.506      1.846
ROOT
ATOM      1  C1  NAG B   1      10.920   3.552  17.0950  0.00  0.00     0.000 C
ATOM      2  C2  NAG B   1       9.429   3.324  17.3270  0.00  0.00     0.000 C
ATOM      3  C3  NAG B   1       9.096   1.851  17.4480  0.00  0.00     0.000 C
ATOM      4  C4  NAG B   1       9.588   1.213  16.1520  0.00  0.00     0.000 C
ATOM      5  C5  NAG B   1      11.111   1.371  16.0610  0.00  0.00     0.000 C
ATOM      6  O5  NAG B   1      11.490   2.764  16.0380  0.00  0.00     0.000 O
ATOM      7   O  NAG B   1       7.679   1.625  17.6280  0.00  0.00     0.000 O
ATOM      9  HD  NAG B   1       7.806   2.366  18.0580  0.00  0.00     0.000 HD
ATOM      9   O  NAG B   1       9.244  -0.162  16.1250  0.00  0.00     0.000 O
ATOM     11  HD  NAG B   1       9.372   0.579  16.5540  0.00  0.00     0.000 HD
ATOM     11   C  NAG B   1      11.642   0.618  14.8350  0.00  0.00     0.000 C
ATOM     12   O  NAG B   1      12.831   1.224  14.3310  0.00  0.00     0.000 O
ATOM     14  HD  NAG B   1      12.958   1.965  14.7600  0.00  0.00     0.000 HD
ENDROOT
BRANCH 2 16
ATOM     14   N  NAG B   1       8.512   4.478  17.3110  0.00  0.00     0.000 N
ATOM     16  HD  NAG B   1       7.685   4.702  17.4330  0.00  0.00     0.000 HD
ATOM     16   C  NAG B   1       8.108   5.110  18.4260  0.00  0.00     0.000 C
ATOM     17   C  NAG B   1       8.574   4.628  19.7740  0.00  0.00     0.000 C
ATOM     18   O  NAG B   1       7.381   6.102  18.3700  0.00  0.00     0.000 OA
ENDBRANCH 2 16
BRANCH 1 19
ATOM     19  O4  BDP B   2      10.976   4.901  16.6510  0.00  0.00     0.000 O
BRANCH 19 23
ATOM     20  C1  BDP B   2      12.319   6.842  13.2790  0.00  0.00     0.000 C
ATOM     21  C2  BDP B   2      11.266   5.775  13.0670  0.00  0.00     0.000 C
ATOM     22  C3  BDP B   2      10.558   5.438  14.3590  0.00  0.00     0.000 C
ATOM     23  C4  BDP B   2      11.609   5.082  15.4070  0.00  0.00     0.000 C
ATOM     24  C5  BDP B   2      12.596   6.224  15.5400  0.00  0.00     0.000 C
ATOM     25  O5  BDP B   2      13.231   6.450  14.2950  0.00  0.00     0.000 O
ATOM     26   O  BDP B   2      10.324   6.200  12.1050  0.00  0.00     0.000 O
ATOM     28  HD  BDP B   2      10.937   6.804  12.0030  0.00  0.00     0.000 HD
ATOM     28   O  BDP B   2       9.638   4.359  14.1290  0.00  0.00     0.000 O
ATOM     30  HD  BDP B   2      10.251   4.963  14.0270  0.00  0.00     0.000 HD
BRANCH 24 30
ATOM     30   C  BDP B   2      13.658   5.936  16.5400  0.00  0.00     0.000 C
ATOM     31   O  BDP B   2      14.356   4.913  16.3570  0.00  0.00     0.000 OA
ATOM     32   O  BDP B   2      13.793   6.727  17.5170  0.00  0.00     0.000 OA
ENDBRANCH 24 30
BRANCH 20 33
ATOM     33  O3  NAG B   3      12.997   6.902  12.0480  0.00  0.00     0.000 O
BRANCH 33 36
ATOM     34  C1  NAG B   3      14.525  10.215  11.1310  0.00  0.00     0.000 C
ATOM     35  C2  NAG B   3      13.440   9.178  11.3510  0.00  0.00     0.000 C
ATOM     36  C3  NAG B   3      13.996   7.924  12.0430  0.00  0.00     0.000 C
ATOM     37  C4  NAG B   3      15.215   7.420  11.2730  0.00  0.00     0.000 C
ATOM     38  C5  NAG B   3      16.199   8.562  11.0340  0.00  0.00     0.000 C
ATOM     39  O5  NAG B   3      15.553   9.623  10.3500  0.00  0.00     0.000 O
ATOM     40   O  NAG B   3      15.865   6.375  12.0120  0.00  0.00     0.000 O
ATOM     42  HD  NAG B   3      16.550   6.894  11.9030  0.00  0.00     0.000 HD
ATOM     42   C  NAG B   3      17.388   8.179  10.1570  0.00  0.00     0.000 C
ATOM     43   O  NAG B   3      16.930   7.874   8.8350  0.00  0.00     0.000 O
ATOM     45  HD  NAG B   3      17.614   8.393   8.7260  0.00  0.00     0.000 HD
BRANCH 35 47
ATOM     45   N  NAG B   3      12.344   9.787  12.0950  0.00  0.00     0.000 N
ATOM     47  HD  NAG B   3      13.038  10.302  12.0410  0.00  0.00     0.000 HD
ATOM     47   C  NAG B   3      11.079   9.636  11.7590  0.00  0.00     0.000 C
ATOM     48   C  NAG B   3      10.077  10.347  12.6200  0.00  0.00     0.000 C
ATOM     49   O  NAG B   3      10.738   8.973  10.7820  0.00  0.00     0.000 OA
ENDBRANCH 35 47
BRANCH 34 50
ATOM     50  O4  BDP B   4      13.873  11.230  10.3980  0.00  0.00     0.000 O
BRANCH 50 54
ATOM     51  C1  BDP B   4      13.428  15.270  10.2040  0.00  0.00     0.000 C
ATOM     52  C2  BDP B   4      14.447  14.699   9.2250  0.00  0.00     0.000 C
ATOM     53  C3  BDP B   4      14.246  13.217   9.1320  0.00  0.00     0.000 C
ATOM     54  C4  BDP B   4      14.320  12.588  10.5530  0.00  0.00     0.000 C
ATOM     55  C5  BDP B   4      13.434  13.314  11.5560  0.00  0.00     0.000 C
ATOM     56  O5  BDP B   4      13.655  14.720  11.4890  0.00  0.00     0.000 O
ATOM     57   O  BDP B   4      14.275  15.274   7.9470  0.00  0.00     0.000 O
ATOM     59  HD  BDP B   4      14.916  15.853   7.8800  0.00  0.00     0.000 HD
ATOM     59   O  BDP B   4      15.342  12.692   8.3560  0.00  0.00     0.000 O
ATOM     61  HD  BDP B   4      15.983  13.270   8.2890  0.00  0.00     0.000 HD
BRANCH 55 61
ATOM     61   C  BDP B   4      13.755  12.824  12.9560  0.00  0.00     0.000 C
ATOM     62   O  BDP B   4      12.845  12.242  13.6020  0.00  0.00     0.000 OA
ATOM     63   O  BDP B   4      14.924  13.022  13.4080  0.00  0.00     0.000 OA
ENDBRANCH 55 61
BRANCH 51 64
ATOM     64  O3  NAG B   5      13.605  16.699  10.2200  0.00  0.00     0.000 O
BRANCH 64 67
ATOM     65  C1  NAG B   5      11.235  19.447   9.5680  0.00  0.00     0.000 C
ATOM     66  C2  NAG B   5      12.394  18.493   9.3310  0.00  0.00     0.000 C
ATOM     67  C3  NAG B   5      12.387  17.397  10.3880  0.00  0.00     0.000 C
ATOM     68  C4  NAG B   5      12.331  17.994  11.8010  0.00  0.00     0.000 C
ATOM     69  C5  NAG B   5      11.199  19.004  11.9130  0.00  0.00     0.000 C
ATOM     70  O5  NAG B   5      11.311  19.982  10.8690  0.00  0.00     0.000 O
ATOM     71   O  NAG B   5      12.173  16.943  12.7300  0.00  0.00     0.000 O
ATOM     73  HD  NAG B   5      12.757  17.407  13.1710  0.00  0.00     0.000 HD
ATOM     73   C  NAG B   5      11.146  19.747  13.2560  0.00  0.00     0.000 C
ATOM     74   O  NAG B   5      12.337  20.546  13.4140  0.00  0.00     0.000 O
ATOM     76  HD  NAG B   5      12.921  21.009  13.8540  0.00  0.00     0.000 HD
BRANCH 66 78
ATOM     76   N  NAG B   5      13.264  18.656   8.1510  0.00  0.00     0.000 N
ATOM     78  HD  NAG B   5      12.658  18.101   8.4230  0.00  0.00     0.000 HD
ATOM     78   C  NAG B   5      13.161  17.981   6.9950  0.00  0.00     0.000 C
ATOM     79   C  NAG B   5      14.187  18.386   5.9710  0.00  0.00     0.000 C
ATOM     80   O  NAG B   5      12.280  17.073   6.7870  0.00  0.00     0.000 OA
ENDBRANCH 66 78
BRANCH 65 81
ATOM     81  O4  BDP B   6      11.265  20.507   8.6030  0.00  0.00     0.000 O
BRANCH 81 85
ATOM     82  C1  BDP B   6       8.468  23.079   6.6210  0.00  0.00     0.000 C
ATOM     83  C2  BDP B   6       9.209  23.641   7.8300  0.00  0.00     0.000 C
ATOM     84  C3  BDP B   6      10.447  22.822   8.2040  0.00  0.00     0.000 C
ATOM     85  C4  BDP B   6      10.126  21.333   8.3460  0.00  0.00     0.000 C
ATOM     86  C5  BDP B   6       9.350  20.891   7.0820  0.00  0.00     0.000 C
ATOM     87  O5  BDP B   6       8.160  21.713   6.8580  0.00  0.00     0.000 O
ATOM     88   O  BDP B   6       9.603  24.958   7.4560  0.00  0.00     0.000 O
ATOM     90  HD  BDP B   6      10.281  25.495   7.5170  0.00  0.00     0.000 HD
ATOM     90   O  BDP B   6      11.019  23.340   9.4080  0.00  0.00     0.000 O
ATOM     92  HD  BDP B   6      11.697  23.876   9.4690  0.00  0.00     0.000 HD
BRANCH 86 92
ATOM     92   C  BDP B   6       8.797  19.498   7.2600  0.00  0.00     0.000 C
ATOM     93   O  BDP B   6       9.395  18.516   6.7250  0.00  0.00     0.000 OA
ATOM     94   O  BDP B   6       7.752  19.368   7.9700  0.00  0.00     0.000 OA
ENDBRANCH 86 92
BRANCH 82 95
ATOM     95  O3  NAG B   7       7.225  23.794   6.4760  0.00  0.00     0.000 O
BRANCH 95 98
ATOM     96  C1  NAG B   7       5.467  25.560   3.8060  0.00  0.00     0.000 C
ATOM     97  C2  NAG B   7       5.999  25.341   5.2160  0.00  0.00     0.000 C
ATOM     98  C3  NAG B   7       6.672  23.970   5.1730  0.00  0.00     0.000 C
ATOM     99  C4  NAG B   7       5.651  22.903   4.7890  0.00  0.00     0.000 C
ATOM    100  C5  NAG B   7       4.943  23.268   3.4840  0.00  0.00     0.000 C
ATOM    101  O5  NAG B   7       4.436  24.590   3.5900  0.00  0.00     0.000 O
BRANCH 97 104
ATOM    102   N  NAG B   7       7.072  26.219   5.7030  0.00  0.00     0.000 N
ATOM    104  HD  NAG B   7       7.818  26.504   6.0380  0.00  0.00     0.000 HD
ATOM    104   O  NAG B   7       8.045  27.777   7.0280  0.00  0.00     0.000 OA
ATOM    105   C  NAG B   7       7.029  27.143   6.6820  0.00  0.00     0.000 C
ATOM    106   C  NAG B   7       5.736  27.401   7.3770  0.00  0.00     0.000 C
ENDBRANCH 97 104
ATOM    107   O  NAG B   7       3.445  22.480   1.8590  0.00  0.00     0.000 O
ATOM    109  HD  NAG B   7       4.172  22.931   1.9930  0.00  0.00     0.000 HD
ATOM    109   O  NAG B   7       3.445  22.480   1.8590  0.00  0.00     0.000 O
ATOM    111  HD  NAG B   7       4.172  22.931   1.9930  0.00  0.00     0.000 HD
ENDBRANCH 95 98
ENDBRANCH 82 95
ENDBRANCH 81 85
ENDBRANCH 65 81
ENDBRANCH 64 67
ENDBRANCH 51 64
ENDBRANCH 50 54
ENDBRANCH 34 50
ENDBRANCH 33 36
ENDBRANCH 20 33
ENDBRANCH 19 23
ENDBRANCH 1 19
TORSDOF 19
ENDMDL
MODEL 5
REMARK VINA RESULT:      -6.8      2.108      3.354
ROOT
ATOM      1  C1  NAG B   1       9.406   3.636  18.1380  0.00  0.00     0.000 C
ATOM      2  C2  NAG B   1       8.376   2.705  18.7710  0.00  0.00     0.000 C
ATOM      3  C3  NAG B   1       7.381   3.463  19.6260  0.00  0.00     0.000 C
ATOM      4  C4  NAG B   1       8.216   4.200  20.6680  0.00  0.00     0.000 C
ATOM      5  C5  NAG B   1       9.130   5.208  19.9590  0.00  0.00     0.000 C
ATOM      6  O5  NAG B   1      10.038   4.542  19.0560  0.00  0.00     0.000 O
ATOM      7   O  NAG B   1       6.425   2.583  20.2600  0.00  0.00     0.000 O
ATOM      9  HD  NAG B   1       6.561   2.193  19.4990  0.00  0.00     0.000 HD
ATOM      9   O  NAG B   1       7.370   4.878  21.5810  0.00  0.00     0.000 O
ATOM     11  HD  NAG B   1       7.506   4.488  20.8200  0.00  0.00     0.000 HD
ATOM     11   C  NAG B   1       9.878   6.055  20.9960  0.00  0.00     0.000 C
ATOM     12   O  NAG B   1      11.138   6.496  20.4910  0.00  0.00     0.000 O
ATOM     14  HD  NAG B   1      11.274   6.107  19.7300  0.00  0.00     0.000 HD
ENDROOT
BRANCH 2 16
ATOM     14   N  NAG B   1       7.593   1.878  17.8340  0.00  0.00     0.000 N
ATOM     16  HD  NAG B   1       7.607   1.539  17.0380  0.00  0.00     0.000 HD
ATOM     16   C  NAG B   1       7.837   0.573  17.6270  0.00  0.00     0.000 C
ATOM     17   C  NAG B   1       8.973  -0.103  18.3470  0.00  0.00     0.000 C
ATOM     18   O  NAG B   1       7.130  -0.097  16.8740  0.00  0.00     0.000 OA
ENDBRANCH 2 16
BRANCH 1 19
ATOM     19  O4  BDP B   2      10.425   2.745  17.7050  0.00  0.00     0.000 O
BRANCH 19 23
ATOM     20  C1  BDP B   2      11.752   5.212  14.6900  0.00  0.00     0.000 C
ATOM     21  C2  BDP B   2      10.752   4.145  14.2950  0.00  0.00     0.000 C
ATOM     22  C3  BDP B   2      10.032   3.594  15.5050  0.00  0.00     0.000 C
ATOM     23  C4  BDP B   2      11.076   3.131  16.5180  0.00  0.00     0.000 C
ATOM     24  C5  BDP B   2      12.008   4.281  16.8430  0.00  0.00     0.000 C
ATOM     25  O5  BDP B   2      12.658   4.713  15.6630  0.00  0.00     0.000 O
ATOM     26   O  BDP B   2       9.813   4.668  13.3800  0.00  0.00     0.000 O
ATOM     28  HD  BDP B   2      10.401   5.305  13.3840  0.00  0.00     0.000 HD
ATOM     28   O  BDP B   2       9.167   2.524  15.0940  0.00  0.00     0.000 O
ATOM     30  HD  BDP B   2       9.754   3.161  15.0980  0.00  0.00     0.000 HD
BRANCH 24 30
ATOM     30   C  BDP B   2      13.060   3.893  17.8200  0.00  0.00     0.000 C
ATOM     31   O  BDP B   2      13.184   4.605  18.8430  0.00  0.00     0.000 OA
ATOM     32   O  BDP B   2      13.772   2.881  17.5660  0.00  0.00     0.000 OA
ENDBRANCH 24 30
BRANCH 20 33
ATOM     33  O3  NAG B   3      12.453   5.479  13.4990  0.00  0.00     0.000 O
BRANCH 33 36
ATOM     34  C1  NAG B   3      14.111   8.813  12.9610  0.00  0.00     0.000 C
ATOM     35  C2  NAG B   3      13.001   7.778  12.9740  0.00  0.00     0.000 C
ATOM     36  C3  NAG B   3      13.446   6.491  13.6850  0.00  0.00     0.000 C
ATOM     37  C4  NAG B   3      14.762   6.008  13.0810  0.00  0.00     0.000 C
ATOM     38  C5  NAG B   3      15.775   7.150  13.0400  0.00  0.00     0.000 C
ATOM     39  O5  NAG B   3      15.240   8.244  12.3150  0.00  0.00     0.000 O
ATOM     40   O  NAG B   3      15.293   4.927  13.8620  0.00  0.00     0.000 O
ATOM     42  HD  NAG B   3      15.989   5.443  13.8780  0.00  0.00     0.000 HD
ATOM     42   C  NAG B   3      17.079   6.792  12.3310  0.00  0.00     0.000 C
ATOM     43   O  NAG B   3      16.819   6.547  10.9430  0.00  0.00     0.000 O
ATOM     45  HD  NAG B   3      17.514   7.064  10.9590  0.00  0.00     0.000 HD
BRANCH 35 47
ATOM     45   N  NAG B   3      11.682   7.903  12.3670  0.00  0.00     0.000 N
ATOM     47  HD  NAG B   3      12.139   7.244  12.0390  0.00  0.00     0.000 HD
ATOM     47   C  NAG B   3      10.607   8.242  13.0500  0.00  0.00     0.000 C
ATOM     48   C  NAG B   3       9.324   8.305  12.2760  0.00  0.00     0.000 C
ATOM     49   O  NAG B   3      10.647   8.466  14.2580  0.00  0.00     0.000 OA
ENDBRANCH 35 47
BRANCH 34 50
ATOM     50  O4  BDP B   4      13.577   9.864  12.1840  0.00  0.00     0.000 O
BRANCH 50 54
ATOM     51  C1  BDP B   4      13.604  13.893  11.6140  0.00  0.00     0.000 C
ATOM     52  C2  BDP B   4      14.795  13.161  11.0050  0.00  0.00     0.000 C
ATOM     53  C3  BDP B   4      14.482  11.697  10.9540  0.00  0.00     0.000 C
ATOM     54  C4  BDP B   4      14.094  11.192  12.3740  0.00  0.00     0.000 C
ATOM     55  C5  BDP B   4      13.039  12.071  13.0320  0.00  0.00     0.000 C
ATOM     56  O5  BDP B   4      13.408  13.444  12.9420  0.00  0.00     0.000 O
ATOM     57   O  BDP B   4      15.044  13.632   9.6980  0.00  0.00     0.000 O
ATOM     59  HD  BDP B   4      15.732  14.151   9.7810  0.00  0.00     0.000 HD
ATOM     59   O  BDP B   4      15.694  11.022  10.5580  0.00  0.00     0.000 O
ATOM     61  HD  BDP B   4      16.382  11.541  10.6410  0.00  0.00     0.000 HD
BRANCH 55 61
ATOM     61   C  BDP B   4      12.907  11.684  14.4950  0.00  0.00     0.000 C
ATOM     62   O  BDP B   4      11.758  11.417  14.9340  0.00  0.00     0.000 OA
ATOM     63   O  BDP B   4      13.959  11.647  15.2030  0.00  0.00     0.000 OA
ENDBRANCH 55 61
BRANCH 51 64
ATOM     64  O3  NAG B   5      13.910  15.300  11.5890  0.00  0.00     0.000 O
BRANCH 64 67
ATOM     65  C1  NAG B   5      11.909  18.124  10.3170  0.00  0.00     0.000 C
ATOM     66  C2  NAG B   5      12.992  17.059  10.3470  0.00  0.00     0.000 C
ATOM     67  C3  NAG B   5      12.751  16.108  11.5120  0.00  0.00     0.000 C
ATOM     68  C4  NAG B   5      12.578  16.879  12.8270  0.00  0.00     0.000 C
ATOM     69  C5  NAG B   5      11.542  17.981  12.6710  0.00  0.00     0.000 C
ATOM     70  O5  NAG B   5      11.874  18.809  11.5470  0.00  0.00     0.000 O
ATOM     71   O  NAG B   5      12.208  15.968  13.8400  0.00  0.00     0.000 O
ATOM     73  HD  NAG B   5      12.774  16.435  14.2990  0.00  0.00     0.000 HD
ATOM     73   C  NAG B   5      11.393  18.888  13.9010  0.00  0.00     0.000 C
ATOM     74   O  NAG B   5      12.626  19.604  14.1250  0.00  0.00     0.000 O
ATOM     76  HD  NAG B   5      13.192  20.071  14.5850  0.00  0.00     0.000 HD
BRANCH 66 78
ATOM     76   N  NAG B   5      12.936  16.492   8.9860  0.00  0.00     0.000 N
ATOM     78  HD  NAG B   5      13.532  16.849   9.5030  0.00  0.00     0.000 HD
ATOM     78   C  NAG B   5      13.991  16.200   8.2080  0.00  0.00     0.000 C
ATOM     79   C  NAG B   5      13.610  15.614   6.8760  0.00  0.00     0.000 C
ATOM     80   O  NAG B   5      15.205  16.411   8.5630  0.00  0.00     0.000 OA
ENDBRANCH 66 78
BRANCH 65 81
ATOM     81  O4  BDP B   6      12.157  19.049   9.2500  0.00  0.00     0.000 O
BRANCH 81 85
ATOM     82  C1  BDP B   6      10.072  22.008   6.9570  0.00  0.00     0.000 C
ATOM     83  C2  BDP B   6      10.682  22.446   8.2860  0.00  0.00     0.000 C
ATOM     84  C3  BDP B   6      11.727  21.460   8.8140  0.00  0.00     0.000 C
ATOM     85  C4  BDP B   6      11.193  20.026   8.8520  0.00  0.00     0.000 C
ATOM     86  C5  BDP B   6      10.572  19.714   7.4690  0.00  0.00     0.000 C
ATOM     87  O5  BDP B   6       9.552  20.694   7.0950  0.00  0.00     0.000 O
ATOM     88   O  BDP B   6      11.302  23.702   8.0240  0.00  0.00     0.000 O
ATOM     90  HD  BDP B   6      12.026  24.140   8.2070  0.00  0.00     0.000 HD
ATOM     90   O  BDP B   6      12.167  21.876  10.1090  0.00  0.00     0.000 O
ATOM     92  HD  BDP B   6      12.892  22.314  10.2920  0.00  0.00     0.000 HD
BRANCH 86 92
ATOM     92   C  BDP B   6       9.818  18.407   7.5110  0.00  0.00     0.000 C
ATOM     93   O  BDP B   6      10.423  17.328   7.2300  0.00  0.00     0.000 OA
ATOM     94   O  BDP B   6       8.596  18.446   7.8530  0.00  0.00     0.000 OA
ENDBRANCH 86 92
BRANCH 82 95
ATOM     95  O3  NAG B   7       8.973  22.889   6.6500  0.00  0.00     0.000 O
BRANCH 95 98
ATOM     96  C1  NAG B   7       7.668  23.814   3.3670  0.00  0.00     0.000 C
ATOM     97  C2  NAG B   7       8.380  24.033   4.6950  0.00  0.00     0.000 C
ATOM     98  C3  NAG B   7       8.252  22.702   5.4330  0.00  0.00     0.000 C
ATOM     99  C4  NAG B   7       6.777  22.363   5.6390  0.00  0.00     0.000 C
ATOM    100  C5  NAG B   7       6.020  22.391   4.3100  0.00  0.00     0.000 C
ATOM    101  O5  NAG B   7       6.279  23.625   3.6590  0.00  0.00     0.000 O
BRANCH 97 104
ATOM    102   N  NAG B   7       9.590  24.764   5.0960  0.00  0.00     0.000 N
ATOM    104  HD  NAG B   7      10.153  25.400   5.2640  0.00  0.00     0.000 HD
ATOM    104   O  NAG B   7      11.759  25.408   4.9980  0.00  0.00     0.000 OA
ATOM    105   C  NAG B   7      10.836  24.675   4.5930  0.00  0.00     0.000 C
ATOM    106   C  NAG B   7      11.113  23.684   3.5140  0.00  0.00     0.000 C
ENDBRANCH 97 104
ATOM    107   O  NAG B   7       3.956  21.922   3.3000  0.00  0.00     0.000 O
ATOM    109  HD  NAG B   7       4.816  21.887   3.2030  0.00  0.00     0.000 HD
ATOM    109   O  NAG B   7       3.956  21.922   3.3000  0.00  0.00     0.000 O
ATOM    111  HD  NAG B   7       4.816  21.887   3.2030  0.00  0.00     0.000 HD
ENDBRANCH 95 98
ENDBRANCH 82 95
ENDBRANCH 81 85
ENDBRANCH 65 81
ENDBRANCH 64 67
ENDBRANCH 51 64
ENDBRANCH 50 54
ENDBRANCH 34 50
ENDBRANCH 33 36
ENDBRANCH 20 33
ENDBRANCH 19 23
ENDBRANCH 1 19
TORSDOF 19
ENDMDL
MODEL 6
REMARK VINA RESULT:      -6.8      0.913      2.112
ROOT
ATOM      1  C1  NAG B   1       9.988   4.715  16.4640  0.00  0.00     0.000 C
ATOM      2  C2  NAG B   1       9.297   3.610  17.2580  0.00  0.00     0.000 C
ATOM      3  C3  NAG B   1       8.081   4.125  18.0010  0.00  0.00     0.000 C
ATOM      4  C4  NAG B   1       8.596   5.249  18.8960  0.00  0.00     0.000 C
ATOM      5  C5  NAG B   1       9.154   6.376  18.0170  0.00  0.00     0.000 C
ATOM      6  O5  NAG B   1      10.259   5.910  17.2130  0.00  0.00     0.000 O
ATOM      7   O  NAG B   1       7.444   3.092  18.7870  0.00  0.00     0.000 O
ATOM      9  HD  NAG B   1       7.725   2.654  18.0950  0.00  0.00     0.000 HD
ATOM      9   O  NAG B   1       7.545   5.747  19.7060  0.00  0.00     0.000 O
ATOM     11  HD  NAG B   1       7.826   5.309  19.0140  0.00  0.00     0.000 HD
ATOM     11   C  NAG B   1       9.551   7.572  18.8900  0.00  0.00     0.000 C
ATOM     12   O  NAG B   1      10.613   8.317  18.2960  0.00  0.00     0.000 O
ATOM     14  HD  NAG B   1      10.894   7.878  17.6040  0.00  0.00     0.000 HD
ENDROOT
BRANCH 2 16
ATOM     14   N  NAG B   1       8.999   2.498  16.3380  0.00  0.00     0.000 N
ATOM     16  HD  NAG B   1       9.316   2.057  15.6630  0.00  0.00     0.000 HD
ATOM     16   C  NAG B   1       9.521   1.267  16.4790  0.00  0.00     0.000 C
ATOM     17   C  NAG B   1      10.481   0.983  17.6040  0.00  0.00     0.000 C
ATOM     18   O  NAG B   1       9.209   0.351  15.7200  0.00  0.00     0.000 OA
ENDBRANCH 2 16
BRANCH 1 19
ATOM     19  O4  BDP B   2      11.255   4.150  16.1580  0.00  0.00     0.000 O
BRANCH 19 23
ATOM     20  C1  BDP B   2      12.366   6.645  13.0790  0.00  0.00     0.000 C
ATOM     21  C2  BDP B   2      11.268   5.647  12.7740  0.00  0.00     0.000 C
ATOM     22  C3  BDP B   2      10.662   5.094  14.0440  0.00  0.00     0.000 C
ATOM     23  C4  BDP B   2      11.786   4.541  14.9150  0.00  0.00     0.000 C
ATOM     24  C5  BDP B   2      12.814   5.628  15.1610  0.00  0.00     0.000 C
ATOM     25  O5  BDP B   2      13.348   6.064  13.9250  0.00  0.00     0.000 O
ATOM     26   O  BDP B   2      10.262   6.251  11.9900  0.00  0.00     0.000 O
ATOM     28  HD  BDP B   2      10.881   6.854  11.9430  0.00  0.00     0.000 HD
ATOM     28   O  BDP B   2       9.695   4.087  13.7070  0.00  0.00     0.000 O
ATOM     30  HD  BDP B   2      10.314   4.690  13.6600  0.00  0.00     0.000 HD
BRANCH 24 30
ATOM     30   C  BDP B   2      13.947   5.151  15.9970  0.00  0.00     0.000 C
ATOM     31   O  BDP B   2      14.614   4.184  15.5630  0.00  0.00     0.000 OA
ATOM     32   O  BDP B   2      14.171   5.735  17.0950  0.00  0.00     0.000 OA
ENDBRANCH 24 30
BRANCH 20 33
ATOM     33  O3  NAG B   3      12.939   6.914  11.8230  0.00  0.00     0.000 O
BRANCH 33 36
ATOM     34  C1  NAG B   3      14.473  10.286  11.1670  0.00  0.00     0.000 C
ATOM     35  C2  NAG B   3      13.387   9.235  11.2970  0.00  0.00     0.000 C
ATOM     36  C3  NAG B   3      13.937   7.935  11.9040  0.00  0.00     0.000 C
ATOM     37  C4  NAG B   3      15.166   7.490  11.1170  0.00  0.00     0.000 C
ATOM     38  C5  NAG B   3      16.151   8.647  10.9740  0.00  0.00     0.000 C
ATOM     39  O5  NAG B   3      15.512   9.753  10.3590  0.00  0.00     0.000 O
ATOM     40   O  NAG B   3      15.809   6.395  11.7870  0.00  0.00     0.000 O
ATOM     42  HD  NAG B   3      16.494   6.921  11.7260  0.00  0.00     0.000 HD
ATOM     42   C  NAG B   3      17.353   8.329  10.0880  0.00  0.00     0.000 C
ATOM     43   O  NAG B   3      16.913   8.119   8.7410  0.00  0.00     0.000 O
ATOM     45  HD  NAG B   3      17.598   8.645   8.6790  0.00  0.00     0.000 HD
BRANCH 35 47
ATOM     45   N  NAG B   3      12.282   9.806  12.0560  0.00  0.00     0.000 N
ATOM     47  HD  NAG B   3      12.972  10.329  12.0270  0.00  0.00     0.000 HD
ATOM     47   C  NAG B   3      11.019   9.660  11.7050  0.00  0.00     0.000 C
ATOM     48   C  NAG B   3      10.007  10.330  12.5860  0.00  0.00     0.000 C
ATOM     49   O  NAG B   3      10.691   9.033  10.7000  0.00  0.00     0.000 OA
ENDBRANCH 35 47
BRANCH 34 50
ATOM     50  O4  BDP B   4      13.828  11.351  10.4990  0.00  0.00     0.000 O
BRANCH 50 54
ATOM     51  C1  BDP B   4      13.794  15.390  10.0090  0.00  0.00     0.000 C
ATOM     52  C2  BDP B   4      14.811  14.657   9.1420  0.00  0.00     0.000 C
ATOM     53  C3  BDP B   4      14.472  13.198   9.1340  0.00  0.00     0.000 C
ATOM     54  C4  BDP B   4      14.395  12.668  10.5950  0.00  0.00     0.000 C
ATOM     55  C5  BDP B   4      13.524  13.545  11.4840  0.00  0.00     0.000 C
ATOM     56  O5  BDP B   4      13.886  14.916  11.3410  0.00  0.00     0.000 O
ATOM     57   O  BDP B   4      14.777  15.152   7.8210  0.00  0.00     0.000 O
ATOM     59  HD  BDP B   4      15.474  15.662   7.7610  0.00  0.00     0.000 HD
ATOM     59   O  BDP B   4      15.557  12.518   8.4710  0.00  0.00     0.000 O
ATOM     61  HD  BDP B   4      16.255  13.027   8.4110  0.00  0.00     0.000 HD
BRANCH 55 61
ATOM     61   C  BDP B   4      13.709  13.130  12.9330  0.00  0.00     0.000 C
ATOM     62   O  BDP B   4      12.827  12.397  13.4540  0.00  0.00     0.000 OA
ATOM     63   O  BDP B   4      14.741  13.537  13.5480  0.00  0.00     0.000 OA
ENDBRANCH 55 61
BRANCH 51 64
ATOM     64  O3  NAG B   5      14.110  16.794   9.9440  0.00  0.00     0.000 O
BRANCH 64 67
ATOM     65  C1  NAG B   5      11.734  19.496   9.1380  0.00  0.00     0.000 C
ATOM     66  C2  NAG B   5      12.776  18.415   8.9080  0.00  0.00     0.000 C
ATOM     67  C3  NAG B   5      12.986  17.616  10.1880  0.00  0.00     0.000 C
ATOM     68  C4  NAG B   5      13.280  18.544  11.3750  0.00  0.00     0.000 C
ATOM     69  C5  NAG B   5      12.236  19.646  11.4670  0.00  0.00     0.000 C
ATOM     70  O5  NAG B   5      12.129  20.325  10.2070  0.00  0.00     0.000 O
ATOM     71   O  NAG B   5      13.314  17.771  12.5560  0.00  0.00     0.000 O
ATOM     73  HD  NAG B   5      13.998  18.275  12.7220  0.00  0.00     0.000 HD
ATOM     73   C  NAG B   5      12.521  20.698  12.5490  0.00  0.00     0.000 C
ATOM     74   O  NAG B   5      13.739  21.403  12.2300  0.00  0.00     0.000 O
ATOM     76  HD  NAG B   5      14.423  21.906  12.3960  0.00  0.00     0.000 HD
BRANCH 66 78
ATOM     76   N  NAG B   5      13.303  18.247   7.5400  0.00  0.00     0.000 N
ATOM     78  HD  NAG B   5      12.828  17.788   8.1010  0.00  0.00     0.000 HD
ATOM     78   C  NAG B   5      12.959  17.280   6.6750  0.00  0.00     0.000 C
ATOM     79   C  NAG B   5      13.657  17.387   5.3470  0.00  0.00     0.000 C
ATOM     80   O  NAG B   5      12.122  16.349   6.9570  0.00  0.00     0.000 OA
ENDBRANCH 66 78
BRANCH 65 81
ATOM     81  O4  BDP B   6      11.567  20.280   7.9500  0.00  0.00     0.000 O
BRANCH 81 85
ATOM     82  C1  BDP B   6       8.179  21.866   5.8600  0.00  0.00     0.000 C
ATOM     83  C2  BDP B   6       9.190  22.861   6.4220  0.00  0.00     0.000 C
ATOM     84  C3  BDP B   6      10.531  22.212   6.7750  0.00  0.00     0.000 C
ATOM     85  C4  BDP B   6      10.354  20.980   7.6650  0.00  0.00     0.000 C
ATOM     86  C5  BDP B   6       9.287  20.070   7.0110  0.00  0.00     0.000 C
ATOM     87  O5  BDP B   6       8.033  20.786   6.7710  0.00  0.00     0.000 O
ATOM     88   O  BDP B   6       9.384  23.828   5.3940  0.00  0.00     0.000 O
ATOM     90  HD  BDP B   6      10.017  24.281   5.0140  0.00  0.00     0.000 HD
ATOM     90   O  BDP B   6      11.381  23.177   7.3990  0.00  0.00     0.000 O
ATOM     92  HD  BDP B   6      12.015  23.630   7.0190  0.00  0.00     0.000 HD
BRANCH 86 92
ATOM     92   C  BDP B   6       8.891  18.958   7.9520  0.00  0.00     0.000 C
ATOM     93   O  BDP B   6       9.265  17.771   7.7080  0.00  0.00     0.000 OA
ATOM     94   O  BDP B   6       8.207  19.271   8.9760  0.00  0.00     0.000 OA
ENDBRANCH 86 92
BRANCH 82 95
ATOM     95  O3  NAG B   7       6.903  22.528   5.7490  0.00  0.00     0.000 O
BRANCH 95 98
ATOM     96  C1  NAG B   7       3.538  21.956   4.4500  0.00  0.00     0.000 C
ATOM     97  C2  NAG B   7       4.745  22.781   4.8770  0.00  0.00     0.000 C
ATOM     98  C3  NAG B   7       5.749  21.761   5.4090  0.00  0.00     0.000 C
ATOM     99  C4  NAG B   7       5.144  21.004   6.5890  0.00  0.00     0.000 C
ATOM    100  C5  NAG B   7       3.799  20.384   6.2080  0.00  0.00     0.000 C
ATOM    101  O5  NAG B   7       2.974  21.389   5.6380  0.00  0.00     0.000 O
BRANCH 97 104
ATOM    102   N  NAG B   7       5.653  23.524   3.9930  0.00  0.00     0.000 N
ATOM    104  HD  NAG B   7       6.346  23.940   3.6820  0.00  0.00     0.000 HD
ATOM    104   O  NAG B   7       6.374  25.271   2.7430  0.00  0.00     0.000 OA
ATOM    105   C  NAG B   7       5.481  24.736   3.4300  0.00  0.00     0.000 C
ATOM    106   C  NAG B   7       4.197  25.459   3.6470  0.00  0.00     0.000 C
ENDBRANCH 97 104
ATOM    107   O  NAG B   7       2.094  18.958   6.9580  0.00  0.00     0.000 O
ATOM    109  HD  NAG B   7       2.567  19.198   6.2730  0.00  0.00     0.000 HD
ATOM    109   O  NAG B   7       2.094  18.958   6.9580  0.00  0.00     0.000 O
ATOM    111  HD  NAG B   7       2.567  19.198   6.2730  0.00  0.00     0.000 HD
ENDBRANCH 95 98
ENDBRANCH 82 95
ENDBRANCH 81 85
ENDBRANCH 65 81
ENDBRANCH 64 67
ENDBRANCH 51 64
ENDBRANCH 50 54
ENDBRANCH 34 50
ENDBRANCH 33 36
ENDBRANCH 20 33
ENDBRANCH 19 23
ENDBRANCH 1 19
TORSDOF 19
ENDMDL
MODEL 7
REMARK VINA RESULT:      -6.8      2.574     17.961
ROOT
ATOM      1  C1  NAG B   1       7.243  25.613   2.7870  0.00  0.00     0.000 C
ATOM      2  C2  NAG B   1       5.746  25.872   2.9310  0.00  0.00     0.000 C
ATOM      3  C3  NAG B   1       5.408  27.340   2.7670  0.00  0.00     0.000 C
ATOM      4  C4  NAG B   1       6.229  28.068   3.8270  0.00  0.00     0.000 C
ATOM      5  C5  NAG B   1       7.721  27.867   3.5340  0.00  0.00     0.000 C
ATOM      6  O5  NAG B   1       8.077  26.469   3.5840  0.00  0.00     0.000 O
ATOM      7   O  NAG B   1       3.996  27.598   2.9410  0.00  0.00     0.000 O
ATOM      9  HD  NAG B   1       3.999  26.819   2.5620  0.00  0.00     0.000 HD
ATOM      9   O  NAG B   1       5.920  29.452   3.8180  0.00  0.00     0.000 O
ATOM     11  HD  NAG B   1       5.922  28.673   3.4390  0.00  0.00     0.000 HD
ATOM     11   C  NAG B   1       8.562  28.702   4.5070  0.00  0.00     0.000 C
ATOM     12   O  NAG B   1       9.835  28.101   4.7380  0.00  0.00     0.000 O
ATOM     14  HD  NAG B   1       9.838  27.323   4.3600  0.00  0.00     0.000 HD
ENDROOT
BRANCH 2 16
ATOM     14   N  NAG B   1       5.073  24.956   1.9920  0.00  0.00     0.000 N
ATOM     16  HD  NAG B   1       5.087  24.144   1.6930  0.00  0.00     0.000 HD
ATOM     16   C  NAG B   1       4.164  24.045   2.3790  0.00  0.00     0.000 C
ATOM     17   C  NAG B   1       3.812  23.906   3.8360  0.00  0.00     0.000 C
ATOM     18   O  NAG B   1       3.587  23.331   1.5590  0.00  0.00     0.000 OA
ENDBRANCH 2 16
BRANCH 1 19
ATOM     19  O4  BDP B   2       7.398  24.306   3.3220  0.00  0.00     0.000 O
BRANCH 19 23
ATOM     20  C1  BDP B   2       9.584  22.602   6.3660  0.00  0.00     0.000 C
ATOM     21  C2  BDP B   2       8.422  23.480   6.7820  0.00  0.00     0.000 C
ATOM     22  C3  BDP B   2       7.462  23.699   5.6340  0.00  0.00     0.000 C
ATOM     23  C4  BDP B   2       8.251  24.228   4.4400  0.00  0.00     0.000 C
ATOM     24  C5  BDP B   2       9.375  23.266   4.1110  0.00  0.00     0.000 C
ATOM     25  O5  BDP B   2      10.237  23.144   5.2260  0.00  0.00     0.000 O
ATOM     26   O  BDP B   2       7.736  22.900   7.8710  0.00  0.00     0.000 O
ATOM     28  HD  BDP B   2       8.447  22.407   7.8520  0.00  0.00     0.000 HD
ATOM     28   O  BDP B   2       6.431  24.609   6.0460  0.00  0.00     0.000 O
ATOM     30  HD  BDP B   2       7.142  24.115   6.0270  0.00  0.00     0.000 HD
BRANCH 24 30
ATOM     30   C  BDP B   2      10.193  23.729   2.9590  0.00  0.00     0.000 C
ATOM     31   O  BDP B   2      10.099  23.083   1.8900  0.00  0.00     0.000 OA
ATOM     32   O  BDP B   2      10.940  24.737   3.1190  0.00  0.00     0.000 OA
ENDBRANCH 24 30
BRANCH 20 33
ATOM     33  O3  NAG B   3      10.459  22.652   7.4670  0.00  0.00     0.000 O
BRANCH 33 36
ATOM     34  C1  NAG B   3      12.699  19.742   8.2790  0.00  0.00     0.000 C
ATOM     35  C2  NAG B   3      11.442  20.590   8.2690  0.00  0.00     0.000 C
ATOM     36  C3  NAG B   3      11.573  21.773   7.2970  0.00  0.00     0.000 C
ATOM     37  C4  NAG B   3      12.858  22.538   7.6030  0.00  0.00     0.000 C
ATOM     38  C5  NAG B   3      14.042  21.578   7.6730  0.00  0.00     0.000 C
ATOM     39  O5  NAG B   3      13.793  20.572   8.6410  0.00  0.00     0.000 O
ATOM     40   O  NAG B   3      13.099  23.520   6.5830  0.00  0.00     0.000 O
ATOM     42  HD  NAG B   3      13.862  23.112   6.5450  0.00  0.00     0.000 HD
ATOM     42   C  NAG B   3      15.349  22.239   8.1040  0.00  0.00     0.000 C
ATOM     43   O  NAG B   3      15.231  22.698   9.4560  0.00  0.00     0.000 O
ATOM     45  HD  NAG B   3      15.994  22.290   9.4180  0.00  0.00     0.000 HD
BRANCH 35 47
ATOM     45   N  NAG B   3      10.245  20.408   9.0800  0.00  0.00     0.000 N
ATOM     47  HD  NAG B   3      10.621  21.178   9.2080  0.00  0.00     0.000 HD
ATOM     47   C  NAG B   3       9.167  19.790   8.6400  0.00  0.00     0.000 C
ATOM     48   C  NAG B   3       8.015  19.707   9.5980  0.00  0.00     0.000 C
ATOM     49   O  NAG B   3       9.099  19.330   7.5030  0.00  0.00     0.000 OA
ENDBRANCH 35 47
BRANCH 34 50
ATOM     50  O4  BDP B   4      12.450  18.788   9.2900  0.00  0.00     0.000 O
BRANCH 50 54
ATOM     51  C1  BDP B   4      13.204  14.965  10.4610  0.00  0.00     0.000 C
ATOM     52  C2  BDP B   4      14.282  15.970  10.8530  0.00  0.00     0.000 C
ATOM     53  C3  BDP B   4      13.724  17.352  10.7070  0.00  0.00     0.000 C
ATOM     54  C4  BDP B   4      13.178  17.548   9.2630  0.00  0.00     0.000 C
ATOM     55  C5  BDP B   4      12.257  16.415   8.8330  0.00  0.00     0.000 C
ATOM     56  O5  BDP B   4      12.862  15.153   9.1000  0.00  0.00     0.000 O
ATOM     57   O  BDP B   4      14.679  15.765  12.1920  0.00  0.00     0.000 O
ATOM     59  HD  BDP B   4      15.441  15.358  12.1330  0.00  0.00     0.000 HD
ATOM     59   O  BDP B   4      14.821  18.270  10.8960  0.00  0.00     0.000 O
ATOM     61  HD  BDP B   4      15.583  17.862  10.8370  0.00  0.00     0.000 HD
BRANCH 55 61
ATOM     61   C  BDP B   4      11.981  16.531   7.3440  0.00  0.00     0.000 C
ATOM     62   O  BDP B   4      10.790  16.708   6.9760  0.00  0.00     0.000 OA
ATOM     63   O  BDP B   4      12.961  16.446   6.5430  0.00  0.00     0.000 OA
ENDBRANCH 55 61
BRANCH 51 64
ATOM     64  O3  NAG B   5      13.750  13.649  10.6740  0.00  0.00     0.000 O
BRANCH 64 67
ATOM     65  C1  NAG B   5      12.081  10.720  12.1690  0.00  0.00     0.000 C
ATOM     66  C2  NAG B   5      12.956  11.960  12.0870  0.00  0.00     0.000 C
ATOM     67  C3  NAG B   5      12.751  12.650  10.7440  0.00  0.00     0.000 C
ATOM     68  C4  NAG B   5      12.933  11.663   9.5830  0.00  0.00     0.000 C
ATOM     69  C5  NAG B   5      12.090  10.416   9.8010  0.00  0.00     0.000 C
ATOM     70  O5  NAG B   5      12.369   9.857  11.0930  0.00  0.00     0.000 O
ATOM     71   O  NAG B   5      12.585  12.312   8.3790  0.00  0.00     0.000 O
ATOM     73  HD  NAG B   5      13.291  11.900   8.0940  0.00  0.00     0.000 HD
ATOM     73   C  NAG B   5      12.306   9.316   8.7520  0.00  0.00     0.000 C
ATOM     74   O  NAG B   5      13.663   8.832   8.8300  0.00  0.00     0.000 O
ATOM     76  HD  NAG B   5      14.369   8.421   8.5450  0.00  0.00     0.000 HD
BRANCH 66 78
ATOM     76   N  NAG B   5      12.582  12.674  13.3230  0.00  0.00     0.000 N
ATOM     78  HD  NAG B   5      13.310  12.411  12.9340  0.00  0.00     0.000 HD
ATOM     78   C  NAG B   5      13.423  13.324  14.1430  0.00  0.00     0.000 C
ATOM     79   C  NAG B   5      12.737  13.971  15.3150  0.00  0.00     0.000 C
ATOM     80   O  NAG B   5      14.690  13.379  13.9510  0.00  0.00     0.000 OA
ENDBRANCH 66 78
BRANCH 65 81
ATOM     81  O4  BDP B   6      12.305  10.041  13.4110  0.00  0.00     0.000 O
BRANCH 81 85
ATOM     82  C1  BDP B   6      10.536   6.995  15.8520  0.00  0.00     0.000 C
ATOM     83  C2  BDP B   6      11.335   6.546  14.6320  0.00  0.00     0.000 C
ATOM     84  C3  BDP B   6      12.245   7.646  14.0790  0.00  0.00     0.000 C
ATOM     85  C4  BDP B   6      11.485   8.952  13.8410  0.00  0.00     0.000 C
ATOM     86  C5  BDP B   6      10.692   9.282  15.1280  0.00  0.00     0.000 C
ATOM     87  O5  BDP B   6       9.819   8.178  15.5290  0.00  0.00     0.000 O
ATOM     88   O  BDP B   6      12.129   5.450  15.0800  0.00  0.00     0.000 O
ATOM     90  HD  BDP B   6      12.931   5.132  15.0030  0.00  0.00     0.000 HD
ATOM     90   O  BDP B   6      12.871   7.191  12.8760  0.00  0.00     0.000 O
ATOM     92  HD  BDP B   6      13.673   6.872  12.8000  0.00  0.00     0.000 HD
BRANCH 86 92
ATOM     92   C  BDP B   6       9.736  10.425  14.8830  0.00  0.00     0.000 C
ATOM     93   O  BDP B   6      10.103  11.611  15.1420  0.00  0.00     0.000 OA
ATOM     94   O  BDP B   6       8.597  10.142  14.3990  0.00  0.00     0.000 OA
ENDBRANCH 86 92
BRANCH 82 95
ATOM     95  O3  NAG B   7       9.577   5.968  16.1700  0.00  0.00     0.000 O
BRANCH 95 98
ATOM     96  C1  NAG B   7       8.703   3.714  18.9080  0.00  0.00     0.000 C
ATOM     97  C2  NAG B   7       8.823   4.163  17.4580  0.00  0.00     0.000 C
ATOM     98  C3  NAG B   7       9.406   5.573  17.5300  0.00  0.00     0.000 C
ATOM     99  C4  NAG B   7       8.470   6.482  18.3220  0.00  0.00     0.000 C
ATOM    100  C5  NAG B   7       8.161   5.885  19.6960  0.00  0.00     0.000 C
ATOM    101  O5  NAG B   7       7.718   4.548  19.5270  0.00  0.00     0.000 O
BRANCH 97 104
ATOM    102   N  NAG B   7       9.600   3.691  16.3040  0.00  0.00     0.000 N
ATOM    104  HD  NAG B   7       9.886   3.567  15.4960  0.00  0.00     0.000 HD
ATOM    104   O  NAG B   7      10.433   2.184  14.8330  0.00  0.00     0.000 OA
ATOM    105   C  NAG B   7       9.791   2.430  15.8730  0.00  0.00     0.000 C
ATOM    106   C  NAG B   7       9.207   1.302  16.6520  0.00  0.00     0.000 C
ENDBRANCH 97 104
ATOM    107   O  NAG B   7       7.117   6.313  21.7520  0.00  0.00     0.000 O
ATOM    109  HD  NAG B   7       7.804   5.952  21.3690  0.00  0.00     0.000 HD
ATOM    109   O  NAG B   7       7.117   6.313  21.7520  0.00  0.00     0.000 O
ATOM    111  HD  NAG B   7       7.804   5.952  21.3690  0.00  0.00     0.000 HD
ENDBRANCH 95 98
ENDBRANCH 82 95
ENDBRANCH 81 85
ENDBRANCH 65 81
ENDBRANCH 64 67
ENDBRANCH 51 64
ENDBRANCH 50 54
ENDBRANCH 34 50
ENDBRANCH 33 36
ENDBRANCH 20 33
ENDBRANCH 19 23
ENDBRANCH 1 19
TORSDOF 19
ENDMDL
MODEL 8
REMARK VINA RESULT:      -6.7      5.262     17.583
ROOT
ATOM      1  C1  NAG B   1      17.718  19.337   1.0900  0.00  0.00     0.000 C
ATOM      2  C2  NAG B   1      17.447  20.838   1.0330  0.00  0.00     0.000 C
ATOM      3  C3  NAG B   1      18.625  21.603   0.4640  0.00  0.00     0.000 C
ATOM      4  C4  NAG B   1      19.807  21.259   1.3650  0.00  0.00     0.000 C
ATOM      5  C5  NAG B   1      20.097  19.756   1.2640  0.00  0.00     0.000 C
ATOM      6  O5  NAG B   1      18.965  18.977   1.7060  0.00  0.00     0.000 O
ATOM      7   O  NAG B   1      18.390  23.029   0.4430  0.00  0.00     0.000 O
ATOM      9  HD  NAG B   1      17.603  22.708   0.2820  0.00  0.00     0.000 HD
ATOM      9   O  NAG B   1      20.952  21.997   0.9700  0.00  0.00     0.000 O
ATOM     11  HD  NAG B   1      20.164  21.676   0.8090  0.00  0.00     0.000 HD
ATOM     11   C  NAG B   1      21.366  19.414   2.0540  0.00  0.00     0.000 C
ATOM     12   O  NAG B   1      21.326  18.074   2.5420  0.00  0.00     0.000 O
ATOM     14  HD  NAG B   1      20.538  17.752   2.3810  0.00  0.00     0.000 HD
ENDROOT
BRANCH 2 16
ATOM     14   N  NAG B   1      16.153  20.948   0.3360  0.00  0.00     0.000 N
ATOM     16  HD  NAG B   1      15.352  20.620   0.3150  0.00  0.00     0.000 HD
ATOM     16   C  NAG B   1      15.102  21.617   0.8410  0.00  0.00     0.000 C
ATOM     17   C  NAG B   1      15.207  22.274   2.1920  0.00  0.00     0.000 C
ATOM     18   O  NAG B   1      14.053  21.729   0.2070  0.00  0.00     0.000 OA
ENDBRANCH 2 16
BRANCH 1 19
ATOM     19  O4  BDP B   2      16.701  18.857   1.9580  0.00  0.00     0.000 O
BRANCH 19 23
ATOM     20  C1  BDP B   2      16.567  16.537   5.3550  0.00  0.00     0.000 C
ATOM     21  C2  BDP B   2      17.150  17.927   5.5120  0.00  0.00     0.000 C
ATOM     22  C3  BDP B   2      16.771  18.813   4.3470  0.00  0.00     0.000 C
ATOM     23  C4  BDP B   2      17.170  18.109   3.0540  0.00  0.00     0.000 C
ATOM     24  C5  BDP B   2      16.521  16.740   3.0040  0.00  0.00     0.000 C
ATOM     25  O5  BDP B   2      16.953  15.971   4.1110  0.00  0.00     0.000 O
ATOM     26   O  BDP B   2      16.707  18.510   6.7180  0.00  0.00     0.000 O
ATOM     28  HD  BDP B   2      16.452  17.691   6.8370  0.00  0.00     0.000 HD
ATOM     28   O  BDP B   2      17.421  20.086   4.4910  0.00  0.00     0.000 O
ATOM     30  HD  BDP B   2      17.166  19.267   4.6100  0.00  0.00     0.000 HD
BRANCH 24 30
ATOM     30   C  BDP B   2      16.880  15.992   1.7700  0.00  0.00     0.000 C
ATOM     31   O  BDP B   2      18.088  15.706   1.6020  0.00  0.00     0.000 OA
ATOM     32   O  BDP B   2      15.957  15.694   0.9590  0.00  0.00     0.000 OA
ENDBRANCH 24 30
BRANCH 20 33
ATOM     33  O3  NAG B   3      17.156  15.802   6.4000  0.00  0.00     0.000 O
BRANCH 33 36
ATOM     34  C1  NAG B   3      15.869  12.448   7.5180  0.00  0.00     0.000 C
ATOM     35  C2  NAG B   3      16.015  13.958   7.4770  0.00  0.00     0.000 C
ATOM     36  C3  NAG B   3      16.877  14.404   6.2860  0.00  0.00     0.000 C
ATOM     37  C4  NAG B   3      18.195  13.634   6.2990  0.00  0.00     0.000 C
ATOM     38  C5  NAG B   3      17.932  12.136   6.4280  0.00  0.00     0.000 C
ATOM     39  O5  NAG B   3      17.167  11.878   7.5930  0.00  0.00     0.000 O
ATOM     40   O  NAG B   3      18.925  13.889   5.0890  0.00  0.00     0.000 O
ATOM     42  HD  NAG B   3      18.918  13.024   5.0490  0.00  0.00     0.000 HD
ATOM     42   C  NAG B   3      19.199  11.298   6.5800  0.00  0.00     0.000 C
ATOM     43   O  NAG B   3      19.837  11.616   7.8220  0.00  0.00     0.000 O
ATOM     45  HD  NAG B   3      19.830  10.750   7.7820  0.00  0.00     0.000 HD
BRANCH 35 47
ATOM     45   N  NAG B   3      15.457  14.883   8.4550  0.00  0.00     0.000 N
ATOM     47  HD  NAG B   3      16.323  14.896   8.4400  0.00  0.00     0.000 HD
ATOM     47   C  NAG B   3      14.360  15.581   8.2370  0.00  0.00     0.000 C
ATOM     48   C  NAG B   3      13.934  16.504   9.3410  0.00  0.00     0.000 C
ATOM     49   O  NAG B   3      13.737  15.502   7.1810  0.00  0.00     0.000 OA
ENDBRANCH 35 47
BRANCH 34 50
ATOM     50  O4  BDP B   4      15.158  12.214   8.7150  0.00  0.00     0.000 O
BRANCH 50 54
ATOM     51  C1  BDP B   4      12.688   9.504  10.4790  0.00  0.00     0.000 C
ATOM     52  C2  BDP B   4      13.714   8.898   9.5270  0.00  0.00     0.000 C
ATOM     53  C3  BDP B   4      14.772   9.921   9.2480  0.00  0.00     0.000 C
ATOM     54  C4  BDP B   4      14.114  11.226   8.7140  0.00  0.00     0.000 C
ATOM     55  C5  BDP B   4      12.957  11.691   9.5890  0.00  0.00     0.000 C
ATOM     56  O5  BDP B   4      12.067  10.611   9.8530  0.00  0.00     0.000 O
ATOM     57   O  BDP B   4      14.308   7.757  10.1080  0.00  0.00     0.000 O
ATOM     59  HD  BDP B   4      13.926   7.088   9.7140  0.00  0.00     0.000 HD
ATOM     59   O  BDP B   4      15.609   9.385   8.2030  0.00  0.00     0.000 O
ATOM     61  HD  BDP B   4      15.227   8.716   7.8090  0.00  0.00     0.000 HD
BRANCH 55 61
ATOM     61   C  BDP B   4      12.203  12.798   8.8740  0.00  0.00     0.000 C
ATOM     62   O  BDP B   4      11.731  13.736   9.5680  0.00  0.00     0.000 OA
ATOM     63   O  BDP B   4      12.084  12.726   7.6120  0.00  0.00     0.000 OA
ENDBRANCH 55 61
BRANCH 51 64
ATOM     64  O3  NAG B   5      11.723   8.477  10.7760  0.00  0.00     0.000 O
BRANCH 64 67
ATOM     65  C1  NAG B   5      10.560   7.564  14.1540  0.00  0.00     0.000 C
ATOM     66  C2  NAG B   5      11.415   7.540  12.8990  0.00  0.00     0.000 C
ATOM     67  C3  NAG B   5      11.042   8.707  11.9940  0.00  0.00     0.000 C
ATOM     68  C4  NAG B   5       9.529   8.741  11.7340  0.00  0.00     0.000 C
ATOM     69  C5  NAG B   5       8.758   8.668  13.0430  0.00  0.00     0.000 C
ATOM     70  O5  NAG B   5       9.194   7.534  13.8060  0.00  0.00     0.000 O
ATOM     71   O  NAG B   5       9.220   9.919  11.0220  0.00  0.00     0.000 O
ATOM     73  HD  NAG B   5       8.710   9.375  10.5820  0.00  0.00     0.000 HD
ATOM     73   C  NAG B   5       7.235   8.569  12.8740  0.00  0.00     0.000 C
ATOM     74   O  NAG B   5       6.902   7.332  12.2090  0.00  0.00     0.000 O
ATOM     76  HD  NAG B   5       6.393   6.788  11.7680  0.00  0.00     0.000 HD
BRANCH 66 78
ATOM     76   N  NAG B   5      12.817   7.585  13.3570  0.00  0.00     0.000 N
ATOM     78  HD  NAG B   5      12.305   7.035  12.9280  0.00  0.00     0.000 HD
ATOM     78   C  NAG B   5      13.793   6.737  12.9980  0.00  0.00     0.000 C
ATOM     79   C  NAG B   5      15.125   7.056  13.6200  0.00  0.00     0.000 C
ATOM     80   O  NAG B   5      13.606   5.744  12.2070  0.00  0.00     0.000 OA
ENDBRANCH 66 78
BRANCH 65 81
ATOM     81  O4  BDP B   6      10.875   6.442  14.9880  0.00  0.00     0.000 O
BRANCH 81 85
ATOM     82  C1  BDP B   6      11.215   5.821  19.2140  0.00  0.00     0.000 C
ATOM     83  C2  BDP B   6      10.115   5.063  18.4760  0.00  0.00     0.000 C
ATOM     84  C3  BDP B   6      10.330   5.028  16.9600  0.00  0.00     0.000 C
ATOM     85  C4  BDP B   6      10.576   6.425  16.3850  0.00  0.00     0.000 C
ATOM     86  C5  BDP B   6      11.680   7.101  17.2330  0.00  0.00     0.000 C
ATOM     87  O5  BDP B   6      11.339   7.121  18.6570  0.00  0.00     0.000 O
ATOM     88   O  BDP B   6      10.153   3.736  18.9940  0.00  0.00     0.000 O
ATOM     90  HD  BDP B   6      10.101   2.914  18.7270  0.00  0.00     0.000 HD
ATOM     90   O  BDP B   6       9.207   4.406  16.3310  0.00  0.00     0.000 O
ATOM     92  HD  BDP B   6       9.155   3.583  16.0640  0.00  0.00     0.000 HD
BRANCH 86 92
ATOM     92   C  BDP B   6      11.805   8.561  16.8720  0.00  0.00     0.000 C
ATOM     93   O  BDP B   6      10.890   9.369  17.2150  0.00  0.00     0.000 OA
ATOM     94   O  BDP B   6      12.852   8.923  16.2500  0.00  0.00     0.000 OA
ENDBRANCH 86 92
BRANCH 82 95
ATOM     95  O3  NAG B   7      10.820   5.966  20.5920  0.00  0.00     0.000 O
BRANCH 95 98
ATOM     96  C1  NAG B   7      12.074   4.915  23.8580  0.00  0.00     0.000 C
ATOM     97  C2  NAG B   7      11.022   5.174  22.7870  0.00  0.00     0.000 C
ATOM     98  C3  NAG B   7      11.795   5.782  21.6180  0.00  0.00     0.000 C
ATOM     99  C4  NAG B   7      12.473   7.076  22.0600  0.00  0.00     0.000 C
ATOM    100  C5  NAG B   7      13.339   6.843  23.2990  0.00  0.00     0.000 C
ATOM    101  O5  NAG B   7      12.559   6.191  24.2900  0.00  0.00     0.000 O
BRANCH 97 104
ATOM    102   N  NAG B   7      10.356   3.987  22.2330  0.00  0.00     0.000 N
ATOM    104  HD  NAG B   7      10.081   3.374  21.6870  0.00  0.00     0.000 HD
ATOM    104   O  NAG B   7       8.616   2.666  21.6380  0.00  0.00     0.000 OA
ATOM    105   C  NAG B   7       9.043   3.693  22.2000  0.00  0.00     0.000 C
ATOM    106   C  NAG B   7       8.075   4.630  22.8400  0.00  0.00     0.000 C
ENDBRANCH 97 104
ATOM    107   O  NAG B   7      14.900   7.849  24.7320  0.00  0.00     0.000 O
ATOM    109  HD  NAG B   7      14.683   7.117  24.3230  0.00  0.00     0.000 HD
ATOM    109   O  NAG B   7      14.900   7.849  24.7320  0.00  0.00     0.000 O
ATOM    111  HD  NAG B   7      14.683   7.117  24.3230  0.00  0.00     0.000 HD
ENDBRANCH 95 98
ENDBRANCH 82 95
ENDBRANCH 81 85
ENDBRANCH 65 81
ENDBRANCH 64 67
ENDBRANCH 51 64
ENDBRANCH 50 54
ENDBRANCH 34 50
ENDBRANCH 33 36
ENDBRANCH 20 33
ENDBRANCH 19 23
ENDBRANCH 1 19
TORSDOF 19
ENDMDL
MODEL 9
REMARK VINA RESULT:      -6.6      7.141     17.014
ROOT
ATOM      1  C1  NAG B   1       7.646  21.263   5.9660  0.00  0.00     0.000 C
ATOM      2  C2  NAG B   1       6.137  21.379   5.7740  0.00  0.00     0.000 C
ATOM      3  C3  NAG B   1       5.766  21.561   4.3160  0.00  0.00     0.000 C
ATOM      4  C4  NAG B   1       6.508  22.813   3.8590  0.00  0.00     0.000 C
ATOM      5  C5  NAG B   1       8.019  22.566   3.9590  0.00  0.00     0.000 C
ATOM      6  O5  NAG B   1       8.413  22.292   5.3200  0.00  0.00     0.000 O
ATOM      7   O  NAG B   1       4.339  21.711   4.1310  0.00  0.00     0.000 O
ATOM      9  HD  NAG B   1       4.384  21.154   4.7920  0.00  0.00     0.000 HD
ATOM      9   O  NAG B   1       6.159  23.126   2.5210  0.00  0.00     0.000 O
ATOM     11  HD  NAG B   1       6.204  22.568   3.1820  0.00  0.00     0.000 HD
ATOM     11   C  NAG B   1       8.783  23.761   3.3760  0.00  0.00     0.000 C
ATOM     12   O  NAG B   1      10.060  23.911   3.9950  0.00  0.00     0.000 O
ATOM     14  HD  NAG B   1      10.105  23.354   4.6570  0.00  0.00     0.000 HD
ENDROOT
BRANCH 2 16
ATOM     14   N  NAG B   1       5.397  20.230   6.3250  0.00  0.00     0.000 N
ATOM     16  HD  NAG B   1       5.428  19.621   6.9400  0.00  0.00     0.000 HD
ATOM     16   C  NAG B   1       4.640  20.306   7.4330  0.00  0.00     0.000 C
ATOM     17   C  NAG B   1       4.541  21.605   8.1880  0.00  0.00     0.000 C
ATOM     18   O  NAG B   1       3.997  19.336   7.8340  0.00  0.00     0.000 OA
ENDBRANCH 2 16
BRANCH 1 19
ATOM     19  O4  BDP B   2       7.812  21.470   7.3620  0.00  0.00     0.000 O
BRANCH 19 23
ATOM     20  C1  BDP B   2      11.394  19.474   7.7120  0.00  0.00     0.000 C
ATOM     21  C2  BDP B   2      10.143  18.621   7.7440  0.00  0.00     0.000 C
ATOM     22  C3  BDP B   2       8.952  19.375   7.1970  0.00  0.00     0.000 C
ATOM     23  C4  BDP B   2       8.829  20.696   7.9520  0.00  0.00     0.000 C
ATOM     24  C5  BDP B   2      10.132  21.464   7.8400  0.00  0.00     0.000 C
ATOM     25  O5  BDP B   2      11.182  20.699   8.4000  0.00  0.00     0.000 O
ATOM     26   O  BDP B   2      10.338  17.437   7.0010  0.00  0.00     0.000 O
ATOM     28  HD  BDP B   2      11.151  17.732   7.0430  0.00  0.00     0.000 HD
ATOM     28   O  BDP B   2       7.775  18.564   7.3340  0.00  0.00     0.000 O
ATOM     30  HD  BDP B   2       8.588  18.859   7.3760  0.00  0.00     0.000 HD
BRANCH 24 30
ATOM     30   C  BDP B   2      10.084  22.761   8.5650  0.00  0.00     0.000 C
ATOM     31   O  BDP B   2      10.199  23.805   7.8820  0.00  0.00     0.000 OA
ATOM     32   O  BDP B   2       9.939  22.742   9.8200  0.00  0.00     0.000 OA
ENDBRANCH 24 30
BRANCH 20 33
ATOM     33  O3  NAG B   3      12.345  18.709   8.4130  0.00  0.00     0.000 O
BRANCH 33 36
ATOM     34  C1  NAG B   3      15.888  17.839   7.4950  0.00  0.00     0.000 C
ATOM     35  C2  NAG B   3      14.415  17.621   7.7860  0.00  0.00     0.000 C
ATOM     36  C3  NAG B   3      13.673  18.957   7.9440  0.00  0.00     0.000 C
ATOM     37  C4  NAG B   3      14.404  19.824   8.9660  0.00  0.00     0.000 C
ATOM     38  C5  NAG B   3      15.890  19.904   8.6240  0.00  0.00     0.000 C
ATOM     39  O5  NAG B   3      16.442  18.601   8.5580  0.00  0.00     0.000 O
ATOM     40   O  NAG B   3      13.845  21.146   8.9780  0.00  0.00     0.000 O
ATOM     42  HD  NAG B   3      14.672  21.364   8.8440  0.00  0.00     0.000 HD
ATOM     42   C  NAG B   3      16.723  20.645   9.6670  0.00  0.00     0.000 C
ATOM     43   O  NAG B   3      16.720  19.908  10.8950  0.00  0.00     0.000 O
ATOM     45  HD  NAG B   3      17.547  20.126  10.7610  0.00  0.00     0.000 HD
BRANCH 35 47
ATOM     45   N  NAG B   3      13.874  16.272   7.8880  0.00  0.00     0.000 N
ATOM     47  HD  NAG B   3      13.929  16.668   8.6560  0.00  0.00     0.000 HD
ATOM     47   C  NAG B   3      13.055  15.757   6.9920  0.00  0.00     0.000 C
ATOM     48   C  NAG B   3      12.575  14.362   7.2590  0.00  0.00     0.000 C
ATOM     49   O  NAG B   3      12.685  16.393   6.0070  0.00  0.00     0.000 OA
ENDBRANCH 35 47
BRANCH 34 50
ATOM     50  O4  BDP B   4      16.425  16.532   7.4940  0.00  0.00     0.000 O
BRANCH 50 54
ATOM     51  C1  BDP B   4      18.996  14.047   5.5550  0.00  0.00     0.000 C
ATOM     52  C2  BDP B   4      19.644  14.911   6.6310  0.00  0.00     0.000 C
ATOM     53  C3  BDP B   4      18.566  15.482   7.5010  0.00  0.00     0.000 C
ATOM     54  C4  BDP B   4      17.531  16.243   6.6230  0.00  0.00     0.000 C
ATOM     55  C5  BDP B   4      17.055  15.413   5.4380  0.00  0.00     0.000 C
ATOM     56  O5  BDP B   4      18.166  14.856   4.7420  0.00  0.00     0.000 O
ATOM     57   O  BDP B   4      20.520  14.136   7.4210  0.00  0.00     0.000 O
ATOM     59  HD  BDP B   4      21.312  14.346   7.1380  0.00  0.00     0.000 HD
ATOM     59   O  BDP B   4      19.195  16.439   8.3770  0.00  0.00     0.000 O
ATOM     61  HD  BDP B   4      19.987  16.648   8.0940  0.00  0.00     0.000 HD
BRANCH 55 61
ATOM     61   C  BDP B   4      16.267  16.300   4.4910  0.00  0.00     0.000 C
ATOM     62   O  BDP B   4      16.758  17.417   4.1800  0.00  0.00     0.000 OA
ATOM     63   O  BDP B   4      15.153  15.874   4.0560  0.00  0.00     0.000 OA
ENDBRANCH 55 61
BRANCH 51 64
ATOM     64  O3  NAG B   5      20.061  13.464   4.7780  0.00  0.00     0.000 O
BRANCH 64 67
ATOM     65  C1  NAG B   5      19.700  10.021   3.5100  0.00  0.00     0.000 C
ATOM     66  C2  NAG B   5      19.947  11.142   4.5040  0.00  0.00     0.000 C
ATOM     67  C3  NAG B   5      19.597  12.483   3.8710  0.00  0.00     0.000 C
ATOM     68  C4  NAG B   5      20.309  12.658   2.5220  0.00  0.00     0.000 C
ATOM     69  C5  NAG B   5      20.079  11.447   1.6320  0.00  0.00     0.000 C
ATOM     70  O5  NAG B   5      20.443  10.249   2.3340  0.00  0.00     0.000 O
ATOM     71   O  NAG B   5      19.834  13.839   1.9120  0.00  0.00     0.000 O
ATOM     73  HD  NAG B   5      20.675  13.936   1.7250  0.00  0.00     0.000 HD
ATOM     73   C  NAG B   5      20.858  11.477   0.3100  0.00  0.00     0.000 C
ATOM     74   O  NAG B   5      22.274  11.440   0.5820  0.00  0.00     0.000 O
ATOM     76  HD  NAG B   5      23.114  11.537   0.3950  0.00  0.00     0.000 HD
BRANCH 66 78
ATOM     76   N  NAG B   5      20.365  10.826   5.8840  0.00  0.00     0.000 N
ATOM     78  HD  NAG B   5      19.660  11.135   5.4860  0.00  0.00     0.000 HD
ATOM     78   C  NAG B   5      19.562  10.772   6.9580  0.00  0.00     0.000 C
ATOM     79   C  NAG B   5      20.283  10.404   8.2270  0.00  0.00     0.000 C
ATOM     80   O  NAG B   5      18.305  11.019   6.9100  0.00  0.00     0.000 OA
ENDBRANCH 66 78
BRANCH 65 81
ATOM     81  O4  BDP B   6      20.072   8.761   4.0840  0.00  0.00     0.000 O
BRANCH 81 85
ATOM     82  C1  BDP B   6      18.918   4.635   4.0120  0.00  0.00     0.000 C
ATOM     83  C2  BDP B   6      19.259   5.296   2.6790  0.00  0.00     0.000 C
ATOM     84  C3  BDP B   6      20.035   6.605   2.8450  0.00  0.00     0.000 C
ATOM     85  C4  BDP B   6      19.343   7.560   3.8200  0.00  0.00     0.000 C
ATOM     86  C5  BDP B   6      19.019   6.770   5.1110  0.00  0.00     0.000 C
ATOM     87  O5  BDP B   6      18.231   5.569   4.8320  0.00  0.00     0.000 O
ATOM     88   O  BDP B   6      20.064   4.350   1.9810  0.00  0.00     0.000 O
ATOM     90  HD  BDP B   6      20.774   4.314   1.4860  0.00  0.00     0.000 HD
ATOM     90   O  BDP B   6      20.217   7.220   1.5670  0.00  0.00     0.000 O
ATOM     92  HD  BDP B   6      20.927   7.184   1.0730  0.00  0.00     0.000 HD
BRANCH 86 92
ATOM     92   C  BDP B   6      18.129   7.583   6.0190  0.00  0.00     0.000 C
ATOM     93   O  BDP B   6      18.334   7.568   7.2710  0.00  0.00     0.000 OA
ATOM     94   O  BDP B   6      17.211   8.273   5.4760  0.00  0.00     0.000 OA
ENDBRANCH 86 92
BRANCH 82 95
ATOM     95  O3  NAG B   7      18.027   3.531   3.7570  0.00  0.00     0.000 O
BRANCH 95 98
ATOM     96  C1  NAG B   7      17.583  -0.028   4.4480  0.00  0.00     0.000 C
ATOM     97  C2  NAG B   7      17.326   1.297   3.7410  0.00  0.00     0.000 C
ATOM     98  C3  NAG B   7      18.221   2.305   4.4600  0.00  0.00     0.000 C
ATOM     99  C4  NAG B   7      17.840   2.376   5.9370  0.00  0.00     0.000 C
ATOM    100  C5  NAG B   7      17.864   0.987   6.5750  0.00  0.00     0.000 C
ATOM    101  O5  NAG B   7      17.083   0.104   5.7840  0.00  0.00     0.000 O
BRANCH 97 104
ATOM    102   N  NAG B   7      17.741   1.472   2.3430  0.00  0.00     0.000 N
ATOM    104  HD  NAG B   7      18.081   1.801   1.6170  0.00  0.00     0.000 HD
ATOM    104   O  NAG B   7      17.469   1.734   0.1100  0.00  0.00     0.000 OA
ATOM    105   C  NAG B   7      16.977   1.518   1.2350  0.00  0.00     0.000 C
ATOM    106   C  NAG B   7      15.505   1.320   1.3600  0.00  0.00     0.000 C
ENDBRANCH 97 104
ATOM    107   O  NAG B   7      17.682  -0.162   8.6120  0.00  0.00     0.000 O
ATOM    109  HD  NAG B   7      18.100  -0.126   7.8540  0.00  0.00     0.000 HD
ATOM    109   O  NAG B   7      17.682  -0.162   8.6120  0.00  0.00     0.000 O
ATOM    111  HD  NAG B   7      18.100  -0.126   7.8540  0.00  0.00     0.000 HD
ENDBRANCH 95 98
ENDBRANCH 82 95
ENDBRANCH 81 85
ENDBRANCH 65 81
ENDBRANCH 64 67
ENDBRANCH 51 64
ENDBRANCH 50 54
ENDBRANCH 34 50
ENDBRANCH 33 36
ENDBRANCH 20 33
ENDBRANCH 19 23
ENDBRANCH 1 19
TORSDOF 19
ENDMDL
MODEL 10
REMARK VINA RESULT:      -6.6      1.605      2.651
ROOT
ATOM      1  C1  NAG B   1       9.818   4.526  16.7060  0.00  0.00     0.000 C
ATOM      2  C2  NAG B   1       9.104   3.429  17.4900  0.00  0.00     0.000 C
ATOM      3  C3  NAG B   1       7.880   3.955  18.2110  0.00  0.00     0.000 C
ATOM      4  C4  NAG B   1       8.388   5.077  19.1120  0.00  0.00     0.000 C
ATOM      5  C5  NAG B   1       8.970   6.197  18.2410  0.00  0.00     0.000 C
ATOM      6  O5  NAG B   1      10.086   5.721  17.4570  0.00  0.00     0.000 O
ATOM      7   O  NAG B   1       7.221   2.929  18.9880  0.00  0.00     0.000 O
ATOM      9  HD  NAG B   1       7.510   2.487  18.3020  0.00  0.00     0.000 HD
ATOM      9   O  NAG B   1       7.327   5.586  19.9030  0.00  0.00     0.000 O
ATOM     11  HD  NAG B   1       7.617   5.143  19.2170  0.00  0.00     0.000 HD
ATOM     11   C  NAG B   1       9.361   7.393  19.1180  0.00  0.00     0.000 C
ATOM     12   O  NAG B   1      10.440   8.127  18.5410  0.00  0.00     0.000 O
ATOM     14  HD  NAG B   1      10.730   7.685  17.8550  0.00  0.00     0.000 HD
ENDROOT
BRANCH 2 16
ATOM     14   N  NAG B   1       8.832   2.323  16.5550  0.00  0.00     0.000 N
ATOM     16  HD  NAG B   1       9.175   1.876  15.8970  0.00  0.00     0.000 HD
ATOM     16   C  NAG B   1       9.323   1.082  16.7210  0.00  0.00     0.000 C
ATOM     17   C  NAG B   1      10.218   0.779  17.8930  0.00  0.00     0.000 C
ATOM     18   O  NAG B   1       9.033   0.172  15.9450  0.00  0.00     0.000 OA
ENDBRANCH 2 16
BRANCH 1 19
ATOM     19  O4  BDP B   2      11.086   3.950  16.4240  0.00  0.00     0.000 O
BRANCH 19 23
ATOM     20  C1  BDP B   2      12.237   6.436  13.3520  0.00  0.00     0.000 C
ATOM     21  C2  BDP B   2      11.168   5.413  13.0260  0.00  0.00     0.000 C
ATOM     22  C3  BDP B   2      10.536   4.861  14.2830  0.00  0.00     0.000 C
ATOM     23  C4  BDP B   2      11.645   4.340  15.1920  0.00  0.00     0.000 C
ATOM     24  C5  BDP B   2      12.644   5.449  15.4570  0.00  0.00     0.000 C
ATOM     25  O5  BDP B   2      13.205   5.883  14.2330  0.00  0.00     0.000 O
ATOM     26   O  BDP B   2      10.173   5.989  12.2070  0.00  0.00     0.000 O
ATOM     28  HD  BDP B   2      10.781   6.605  12.1720  0.00  0.00     0.000 HD
ATOM     28   O  BDP B   2       9.599   3.832  13.9300  0.00  0.00     0.000 O
ATOM     30  HD  BDP B   2      10.208   4.447  13.8950  0.00  0.00     0.000 HD
BRANCH 24 30
ATOM     30   C  BDP B   2      13.761   5.003  16.3300  0.00  0.00     0.000 C
ATOM     31   O  BDP B   2      14.414   4.000  15.9600  0.00  0.00     0.000 OA
ATOM     32   O  BDP B   2      13.987   5.648  17.3940  0.00  0.00     0.000 OA
ENDBRANCH 24 30
BRANCH 20 33
ATOM     33  O3  NAG B   3      12.841   6.704  12.1100  0.00  0.00     0.000 O
BRANCH 33 36
ATOM     34  C1  NAG B   3      14.311  10.106  11.4650  0.00  0.00     0.000 C
ATOM     35  C2  NAG B   3      13.247   9.031  11.5760  0.00  0.00     0.000 C
ATOM     36  C3  NAG B   3      13.811   7.749  12.2090  0.00  0.00     0.000 C
ATOM     37  C4  NAG B   3      15.071   7.327  11.4570  0.00  0.00     0.000 C
ATOM     38  C5  NAG B   3      16.032   8.506  11.3300  0.00  0.00     0.000 C
ATOM     39  O5  NAG B   3      15.384   9.591  10.6900  0.00  0.00     0.000 O
ATOM     40   O  NAG B   3      15.722   6.253  12.1540  0.00  0.00     0.000 O
ATOM     42  HD  NAG B   3      16.396   6.795  12.1060  0.00  0.00     0.000 HD
ATOM     42   C  NAG B   3      17.264   8.209  10.4780  0.00  0.00     0.000 C
ATOM     43   O  NAG B   3      16.864   7.979   9.1220  0.00  0.00     0.000 O
ATOM     45  HD  NAG B   3      17.538   8.520   9.0730  0.00  0.00     0.000 HD
BRANCH 35 47
ATOM     45   N  NAG B   3      12.111   9.602  12.2870  0.00  0.00     0.000 N
ATOM     47  HD  NAG B   3      12.786  10.143  12.2480  0.00  0.00     0.000 HD
ATOM     47   C  NAG B   3      10.861   9.403  11.9200  0.00  0.00     0.000 C
ATOM     48   C  NAG B   3       9.811  10.081  12.7500  0.00  0.00     0.000 C
ATOM     49   O  NAG B   3      10.571   8.722  10.9380  0.00  0.00     0.000 OA
ENDBRANCH 35 47
BRANCH 34 50
ATOM     50  O4  BDP B   4      13.659  11.150  10.7720  0.00  0.00     0.000 O
BRANCH 50 54
ATOM     51  C1  BDP B   4      13.474  15.194  10.3620  0.00  0.00     0.000 C
ATOM     52  C2  BDP B   4      14.513  14.516   9.4760  0.00  0.00     0.000 C
ATOM     53  C3  BDP B   4      14.227  13.046   9.4410  0.00  0.00     0.000 C
ATOM     54  C4  BDP B   4      14.178  12.485  10.8910  0.00  0.00     0.000 C
ATOM     55  C5  BDP B   4      13.280  13.312  11.8020  0.00  0.00     0.000 C
ATOM     56  O5  BDP B   4      13.591  14.698  11.6830  0.00  0.00     0.000 O
ATOM     57   O  BDP B   4      14.453  15.035   8.1640  0.00  0.00     0.000 O
ATOM     59  HD  BDP B   4      15.131  15.571   8.1100  0.00  0.00     0.000 HD
ATOM     59   O  BDP B   4      15.333  12.419   8.7590  0.00  0.00     0.000 O
ATOM     61  HD  BDP B   4      16.011  12.955   8.7050  0.00  0.00     0.000 HD
BRANCH 55 61
ATOM     61   C  BDP B   4      13.488  12.876  13.2410  0.00  0.00     0.000 C
ATOM     62   O  BDP B   4      14.550  13.229  13.8180  0.00  0.00     0.000 OA
ATOM     63   O  BDP B   4      12.584  12.178  13.7940  0.00  0.00     0.000 OA
ENDBRANCH 55 61
BRANCH 51 64
ATOM     64  O3  NAG B   5      13.738  16.610  10.3220  0.00  0.00     0.000 O
BRANCH 64 67
ATOM     65  C1  NAG B   5      11.307  19.282   9.5870  0.00  0.00     0.000 C
ATOM     66  C2  NAG B   5      12.387  18.245   9.3330  0.00  0.00     0.000 C
ATOM     67  C3  NAG B   5      12.583  17.385  10.5750  0.00  0.00     0.000 C
ATOM     68  C4  NAG B   5      12.814  18.256  11.8170  0.00  0.00     0.000 C
ATOM     69  C5  NAG B   5      11.735  19.321  11.9350  0.00  0.00     0.000 C
ATOM     70  O5  NAG B   5      11.644  20.063  10.7100  0.00  0.00     0.000 O
ATOM     71   O  NAG B   5      12.836  17.422  12.9560  0.00  0.00     0.000 O
ATOM     73  HD  NAG B   5      13.499  17.935  13.1700  0.00  0.00     0.000 HD
ATOM     73   C  NAG B   5      11.956  20.320  13.0800  0.00  0.00     0.000 C
ATOM     74   O  NAG B   5      13.160  21.076  12.8360  0.00  0.00     0.000 O
ATOM     76  HD  NAG B   5      13.824  21.589  13.0500  0.00  0.00     0.000 HD
BRANCH 66 78
ATOM     76   N  NAG B   5      12.947  18.176   7.9690  0.00  0.00     0.000 N
ATOM     78  HD  NAG B   5      12.487  17.665   8.4960  0.00  0.00     0.000 HD
ATOM     78   C  NAG B   5      12.670  17.238   7.0490  0.00  0.00     0.000 C
ATOM     79   C  NAG B   5      13.386  17.450   5.7430  0.00  0.00     0.000 C
ATOM     80   O  NAG B   5      11.880  16.252   7.2660  0.00  0.00     0.000 OA
ENDBRANCH 66 78
BRANCH 65 81
ATOM     81  O4  BDP B   6      11.152  20.124   8.4370  0.00  0.00     0.000 O
BRANCH 81 85
ATOM     82  C1  BDP B   6       8.272  22.736   6.6350  0.00  0.00     0.000 C
ATOM     83  C2  BDP B   6       9.013  23.247   7.8670  0.00  0.00     0.000 C
ATOM     84  C3  BDP B   6      10.275  22.438   8.1800  0.00  0.00     0.000 C
ATOM     85  C4  BDP B   6       9.991  20.936   8.2400  0.00  0.00     0.000 C
ATOM     86  C5  BDP B   6       9.211  20.548   6.9610  0.00  0.00     0.000 C
ATOM     87  O5  BDP B   6       7.999  21.352   6.7970  0.00  0.00     0.000 O
ATOM     88   O  BDP B   6       9.373  24.592   7.5650  0.00  0.00     0.000 O
ATOM     90  HD  BDP B   6      10.038  25.141   7.6490  0.00  0.00     0.000 HD
ATOM     90   O  BDP B   6      10.850  22.900   9.4050  0.00  0.00     0.000 O
ATOM     92  HD  BDP B   6      11.515  23.448   9.4900  0.00  0.00     0.000 HD
BRANCH 86 92
ATOM     92   C  BDP B   6       8.693  19.134   7.0650  0.00  0.00     0.000 C
ATOM     93   O  BDP B   6       9.378  18.181   6.5840  0.00  0.00     0.000 OA
ATOM     94   O  BDP B   6       7.585  18.958   7.6610  0.00  0.00     0.000 OA
ENDBRANCH 86 92
BRANCH 82 95
ATOM     95  O3  NAG B   7       7.011  23.429   6.5450  0.00  0.00     0.000 O
BRANCH 95 98
ATOM     96  C1  NAG B   7       5.200  25.323   4.0010  0.00  0.00     0.000 C
ATOM     97  C2  NAG B   7       5.749  25.028   5.3900  0.00  0.00     0.000 C
ATOM     98  C3  NAG B   7       6.443  23.674   5.2590  0.00  0.00     0.000 C
ATOM     99  C4  NAG B   7       5.434  22.615   4.8210  0.00  0.00     0.000 C
ATOM    100  C5  NAG B   7       4.709  23.046   3.5460  0.00  0.00     0.000 C
ATOM    101  O5  NAG B   7       4.182  24.351   3.7350  0.00  0.00     0.000 O
BRANCH 97 104
ATOM    102   N  NAG B   7       6.806  25.907   5.9090  0.00  0.00     0.000 N
ATOM    104  HD  NAG B   7       7.554  26.194   6.2380  0.00  0.00     0.000 HD
ATOM    104   O  NAG B   7       7.774  27.384   7.3270  0.00  0.00     0.000 OA
ATOM    105   C  NAG B   7       6.770  26.738   6.9680  0.00  0.00     0.000 C
ATOM    106   C  NAG B   7       5.501  26.877   7.7370  0.00  0.00     0.000 C
ENDBRANCH 97 104
ATOM    107   O  NAG B   7       3.207  22.333   1.8900  0.00  0.00     0.000 O
ATOM    109  HD  NAG B   7       3.929  22.786   2.0440  0.00  0.00     0.000 HD
ATOM    109   O  NAG B   7       3.207  22.333   1.8900  0.00  0.00     0.000 O
ATOM    111  HD  NAG B   7       3.929  22.786   2.0440  0.00  0.00     0.000 HD
ENDBRANCH 95 98
ENDBRANCH 82 95
ENDBRANCH 81 85
ENDBRANCH 65 81
ENDBRANCH 64 67
ENDBRANCH 51 64
ENDBRANCH 50 54
ENDBRANCH 34 50
ENDBRANCH 33 36
ENDBRANCH 20 33
ENDBRANCH 19 23
ENDBRANCH 1 19
TORSDOF 19
ENDMDL
MODEL 11
REMARK VINA RESULT:      -6.6      8.121     13.858
ROOT
ATOM      1  C1  NAG B   1      17.794   6.112   4.6710  0.00  0.00     0.000 C
ATOM      2  C2  NAG B   1      18.418   6.309   3.2920  0.00  0.00     0.000 C
ATOM      3  C3  NAG B   1      17.719   5.481   2.2330  0.00  0.00     0.000 C
ATOM      4  C4  NAG B   1      17.815   4.037   2.7140  0.00  0.00     0.000 C
ATOM      5  C5  NAG B   1      17.052   3.896   4.0380  0.00  0.00     0.000 C
ATOM      6  O5  NAG B   1      17.623   4.741   5.0600  0.00  0.00     0.000 O
ATOM      7   O  NAG B   1      18.329   5.632   0.9310  0.00  0.00     0.000 O
ATOM      9  HD  NAG B   1      18.422   6.422   1.2740  0.00  0.00     0.000 HD
ATOM      9   O  NAG B   1      17.262   3.162   1.7450  0.00  0.00     0.000 O
ATOM     11  HD  NAG B   1      17.356   3.951   2.0880  0.00  0.00     0.000 HD
ATOM     11   C  NAG B   1      17.020   2.424   4.4690  0.00  0.00     0.000 C
ATOM     12   O  NAG B   1      16.945   2.303   5.8890  0.00  0.00     0.000 O
ATOM     14  HD  NAG B   1      17.039   3.092   6.2310  0.00  0.00     0.000 HD
ENDROOT
BRANCH 2 16
ATOM     14   N  NAG B   1      18.465   7.685   2.7680  0.00  0.00     0.000 N
ATOM     16  HD  NAG B   1      18.439   8.516   3.0100  0.00  0.00     0.000 HD
ATOM     16   C  NAG B   1      19.572   8.447   2.8010  0.00  0.00     0.000 C
ATOM     17   C  NAG B   1      20.835   7.910   3.4200  0.00  0.00     0.000 C
ATOM     18   O  NAG B   1      19.586   9.575   2.3090  0.00  0.00     0.000 OA
ENDBRANCH 2 16
BRANCH 1 19
ATOM     19  O4  BDP B   2      18.775   6.648   5.5490  0.00  0.00     0.000 O
BRANCH 19 23
ATOM     20  C1  BDP B   2      16.171   7.529   8.6120  0.00  0.00     0.000 C
ATOM     21  C2  BDP B   2      16.325   8.584   7.5360  0.00  0.00     0.000 C
ATOM     22  C3  BDP B   2      16.950   8.004   6.2870  0.00  0.00     0.000 C
ATOM     23  C4  BDP B   2      18.252   7.311   6.6750  0.00  0.00     0.000 C
ATOM     24  C5  BDP B   2      17.972   6.274   7.7450  0.00  0.00     0.000 C
ATOM     25  O5  BDP B   2      17.418   6.906   8.8840  0.00  0.00     0.000 O
ATOM     26   O  BDP B   2      15.071   9.150   7.2220  0.00  0.00     0.000 O
ATOM     28  HD  BDP B   2      14.870   8.710   7.9410  0.00  0.00     0.000 HD
ATOM     28   O  BDP B   2      17.162   9.056   5.3320  0.00  0.00     0.000 O
ATOM     30  HD  BDP B   2      16.961   8.617   6.0510  0.00  0.00     0.000 HD
BRANCH 24 30
ATOM     30   C  BDP B   2      19.205   5.566   8.1790  0.00  0.00     0.000 C
ATOM     31   O  BDP B   2      19.299   4.350   7.8950  0.00  0.00     0.000 OA
ATOM     32   O  BDP B   2      20.082   6.220   8.8120  0.00  0.00     0.000 OA
ENDBRANCH 24 30
BRANCH 20 33
ATOM     33  O3  NAG B   3      15.761   8.256   9.7450  0.00  0.00     0.000 O
BRANCH 33 36
ATOM     34  C1  NAG B   3      13.150   7.460  12.3330  0.00  0.00     0.000 C
ATOM     35  C2  NAG B   3      13.822   8.203  11.1940  0.00  0.00     0.000 C
ATOM     36  C3  NAG B   3      15.045   7.434  10.6700  0.00  0.00     0.000 C
ATOM     37  C4  NAG B   3      15.965   7.090  11.8390  0.00  0.00     0.000 C
ATOM     38  C5  NAG B   3      15.170   6.425  12.9600  0.00  0.00     0.000 C
ATOM     39  O5  NAG B   3      14.107   7.271  13.3660  0.00  0.00     0.000 O
ATOM     40   O  NAG B   3      17.005   6.203  11.4010  0.00  0.00     0.000 O
ATOM     42  HD  NAG B   3      16.705   5.725  12.0580  0.00  0.00     0.000 HD
ATOM     42   C  NAG B   3      15.985   6.163  14.2240  0.00  0.00     0.000 C
ATOM     43   O  NAG B   3      16.376   7.412  14.8090  0.00  0.00     0.000 O
ATOM     45  HD  NAG B   3      16.076   6.934  15.4660  0.00  0.00     0.000 HD
BRANCH 35 47
ATOM     45   N  NAG B   3      13.382   9.497  10.6900  0.00  0.00     0.000 N
ATOM     47  HD  NAG B   3      14.163   9.532  11.0620  0.00  0.00     0.000 HD
ATOM     47   C  NAG B   3      12.712   9.638   9.5630  0.00  0.00     0.000 C
ATOM     48   C  NAG B   3      12.353  11.043   9.1790  0.00  0.00     0.000 C
ATOM     49   O  NAG B   3      12.421   8.677   8.8540  0.00  0.00     0.000 OA
ENDBRANCH 35 47
BRANCH 34 50
ATOM     50  O4  BDP B   4      12.137   8.347  12.7580  0.00  0.00     0.000 O
BRANCH 50 54
ATOM     51  C1  BDP B   4       9.105   8.324  15.4720  0.00  0.00     0.000 C
ATOM     52  C2  BDP B   4      10.116   7.196  15.6440  0.00  0.00     0.000 C
ATOM     53  C3  BDP B   4      11.344   7.528  14.8530  0.00  0.00     0.000 C
ATOM     54  C4  BDP B   4      10.956   7.801  13.3720  0.00  0.00     0.000 C
ATOM     55  C5  BDP B   4       9.803   8.788  13.2470  0.00  0.00     0.000 C
ATOM     56  O5  BDP B   4       8.732   8.413  14.1080  0.00  0.00     0.000 O
ATOM     57   O  BDP B   4      10.461   7.052  17.0050  0.00  0.00     0.000 O
ATOM     59  HD  BDP B   4      10.022   6.353  17.2690  0.00  0.00     0.000 HD
ATOM     59   O  BDP B   4      12.190   6.360  14.8830  0.00  0.00     0.000 O
ATOM     61  HD  BDP B   4      11.751   5.662  15.1470  0.00  0.00     0.000 HD
BRANCH 55 61
ATOM     61   C  BDP B   4       9.309   8.802  11.8120  0.00  0.00     0.000 C
ATOM     62   O  BDP B   4       9.672   9.752  11.0710  0.00  0.00     0.000 OA
ATOM     63   O  BDP B   4       8.555   7.856  11.4270  0.00  0.00     0.000 OA
ENDBRANCH 55 61
BRANCH 51 64
ATOM     64  O3  NAG B   5       7.966   8.006  16.2940  0.00  0.00     0.000 O
BRANCH 64 67
ATOM     65  C1  NAG B   5       6.377  10.573  18.4100  0.00  0.00     0.000 C
ATOM     66  C2  NAG B   5       7.385   9.521  17.9800  0.00  0.00     0.000 C
ATOM     67  C3  NAG B   5       7.136   9.126  16.5310  0.00  0.00     0.000 C
ATOM     68  C4  NAG B   5       5.669   8.731  16.3110  0.00  0.00     0.000 C
ATOM     69  C5  NAG B   5       4.737   9.802  16.8560  0.00  0.00     0.000 C
ATOM     70  O5  NAG B   5       5.067  10.088  18.2230  0.00  0.00     0.000 O
ATOM     71   O  NAG B   5       5.458   8.524  14.9310  0.00  0.00     0.000 O
ATOM     73  HD  NAG B   5       5.006   7.846  15.2250  0.00  0.00     0.000 HD
ATOM     73   C  NAG B   5       3.247   9.434  16.7950  0.00  0.00     0.000 C
ATOM     74   O  NAG B   5       2.996   8.294  17.6430  0.00  0.00     0.000 O
ATOM     76  HD  NAG B   5       2.544   7.617  17.9370  0.00  0.00     0.000 HD
BRANCH 66 78
ATOM     76   N  NAG B   5       8.703  10.133  18.2350  0.00  0.00     0.000 N
ATOM     78  HD  NAG B   5       8.264   9.435  18.4980  0.00  0.00     0.000 HD
ATOM     78   C  NAG B   5       9.727   9.560  18.8880  0.00  0.00     0.000 C
ATOM     79   C  NAG B   5      10.950  10.432  18.9690  0.00  0.00     0.000 C
ATOM     80   O  NAG B   5       9.664   8.385  19.4000  0.00  0.00     0.000 OA
ENDBRANCH 66 78
BRANCH 65 81
ATOM     81  O4  BDP B   6       6.578  10.914  19.7880  0.00  0.00     0.000 O
BRANCH 81 85
ATOM     82  C1  BDP B   6       5.921  14.235  22.4150  0.00  0.00     0.000 C
ATOM     83  C2  BDP B   6       4.818  13.185  22.3170  0.00  0.00     0.000 C
ATOM     84  C3  BDP B   6       5.302  11.871  21.6970  0.00  0.00     0.000 C
ATOM     85  C4  BDP B   6       6.024  12.098  20.3670  0.00  0.00     0.000 C
ATOM     86  C5  BDP B   6       7.086  13.201  20.5850  0.00  0.00     0.000 C
ATOM     87  O5  BDP B   6       6.498  14.425  21.1310  0.00  0.00     0.000 O
ATOM     88   O  BDP B   6       4.395  12.952  23.6580  0.00  0.00     0.000 O
ATOM     90  HD  BDP B   6       4.174  12.300  24.1840  0.00  0.00     0.000 HD
ATOM     90   O  BDP B   6       4.194  10.982  21.5330  0.00  0.00     0.000 O
ATOM     92  HD  BDP B   6       3.973  10.330  22.0600  0.00  0.00     0.000 HD
BRANCH 86 92
ATOM     92   C  BDP B   6       7.671  13.642  19.2640  0.00  0.00     0.000 C
ATOM     93   O  BDP B   6       8.831  13.251  18.9340  0.00  0.00     0.000 OA
ATOM     94   O  BDP B   6       6.951  14.378  18.5210  0.00  0.00     0.000 OA
ENDBRANCH 86 92
BRANCH 82 95
ATOM     95  O3  NAG B   7       5.324  15.483  22.8210  0.00  0.00     0.000 O
BRANCH 95 98
ATOM     96  C1  NAG B   7       6.558  18.337  24.7370  0.00  0.00     0.000 C
ATOM     97  C2  NAG B   7       5.618  17.188  24.3990  0.00  0.00     0.000 C
ATOM     98  C3  NAG B   7       6.168  16.598  23.1020  0.00  0.00     0.000 C
ATOM     99  C4  NAG B   7       6.167  17.661  22.0070  0.00  0.00     0.000 C
ATOM    100  C5  NAG B   7       6.913  18.916  22.4630  0.00  0.00     0.000 C
ATOM    101  O5  NAG B   7       6.393  19.330  23.7180  0.00  0.00     0.000 O
BRANCH 97 104
ATOM    102   N  NAG B   7       5.597  16.089  25.3740  0.00  0.00     0.000 N
ATOM    104  HD  NAG B   7       5.694  15.313  25.7470  0.00  0.00     0.000 HD
ATOM    104   O  NAG B   7       4.672  14.560  26.7660  0.00  0.00     0.000 OA
ATOM    105   C  NAG B   7       4.541  15.536  26.0010  0.00  0.00     0.000 C
ATOM    106   C  NAG B   7       3.181  16.096  25.7620  0.00  0.00     0.000 C
ENDBRANCH 97 104
ATOM    107   O  NAG B   7       7.723  20.999  21.7500  0.00  0.00     0.000 O
ATOM    109  HD  NAG B   7       7.889  20.305  22.2400  0.00  0.00     0.000 HD
ATOM    109   O  NAG B   7       7.723  20.999  21.7500  0.00  0.00     0.000 O
ATOM    111  HD  NAG B   7       7.889  20.305  22.2400  0.00  0.00     0.000 HD
ENDBRANCH 95 98
ENDBRANCH 82 95
ENDBRANCH 81 85
ENDBRANCH 65 81
ENDBRANCH 64 67
ENDBRANCH 51 64
ENDBRANCH 50 54
ENDBRANCH 34 50
ENDBRANCH 33 36
ENDBRANCH 20 33
ENDBRANCH 19 23
ENDBRANCH 1 19
TORSDOF 19
ENDMDL
MODEL 12
REMARK VINA RESULT:      -6.6      7.839     11.203
ROOT
ATOM      1  C1  NAG B   1       4.579   8.882  20.3420  0.00  0.00     0.000 C
ATOM      2  C2  NAG B   1       4.024  10.301  20.2580  0.00  0.00     0.000 C
ATOM      3  C3  NAG B   1       2.513  10.311  20.1500  0.00  0.00     0.000 C
ATOM      4  C4  NAG B   1       2.187   9.484  18.9100  0.00  0.00     0.000 C
ATOM      5  C5  NAG B   1       2.659   8.041  19.1290  0.00  0.00     0.000 C
ATOM      6  O5  NAG B   1       4.087   7.986  19.3330  0.00  0.00     0.000 O
ATOM      7   O  NAG B   1       1.983  11.651  20.0310  0.00  0.00     0.000 O
ATOM      9  HD  NAG B   1       2.662  11.764  20.5560  0.00  0.00     0.000 HD
ATOM      9   O  NAG B   1       0.790   9.501  18.6660  0.00  0.00     0.000 O
ATOM     11  HD  NAG B   1       1.470   9.615  19.1910  0.00  0.00     0.000 HD
ATOM     11   C  NAG B   1       2.219   7.162  17.9510  0.00  0.00     0.000 C
ATOM     12   O  NAG B   1       3.119   6.074  17.7530  0.00  0.00     0.000 O
ATOM     14  HD  NAG B   1       3.798   6.188  18.2780  0.00  0.00     0.000 HD
ENDROOT
BRANCH 2 16
ATOM     14   N  NAG B   1       4.662  10.986  21.3960  0.00  0.00     0.000 N
ATOM     16  HD  NAG B   1       5.426  11.117  21.7820  0.00  0.00     0.000 HD
ATOM     16   C  NAG B   1       5.325  12.149  21.2760  0.00  0.00     0.000 C
ATOM     17   C  NAG B   1       5.466  12.798  19.9240  0.00  0.00     0.000 C
ATOM     18   O  NAG B   1       5.802  12.717  22.2580  0.00  0.00     0.000 OA
ENDBRANCH 2 16
BRANCH 1 19
ATOM     19  O4  BDP B   2       5.962   9.058  20.0690  0.00  0.00     0.000 O
BRANCH 19 23
ATOM     20  C1  BDP B   2       8.554   7.914  17.0830  0.00  0.00     0.000 C
ATOM     21  C2  BDP B   2       7.420   8.831  16.6750  0.00  0.00     0.000 C
ATOM     22  C3  BDP B   2       6.804   9.510  17.8770  0.00  0.00     0.000 C
ATOM     23  C4  BDP B   2       6.409   8.436  18.8870  0.00  0.00     0.000 C
ATOM     24  C5  BDP B   2       7.622   7.592  19.2270  0.00  0.00     0.000 C
ATOM     25  O5  BDP B   2       8.113   6.974  18.0530  0.00  0.00     0.000 O
ATOM     26   O  BDP B   2       7.882   9.805  15.7640  0.00  0.00     0.000 O
ATOM     28  HD  BDP B   2       8.560   9.267  15.7760  0.00  0.00     0.000 HD
ATOM     28   O  BDP B   2       5.678  10.293  17.4530  0.00  0.00     0.000 O
ATOM     30  HD  BDP B   2       6.356   9.755  17.4650  0.00  0.00     0.000 HD
BRANCH 24 30
ATOM     30   C  BDP B   2       7.302   6.516  20.2020  0.00  0.00     0.000 C
ATOM     31   O  BDP B   2       6.464   5.654  19.8510  0.00  0.00     0.000 OA
ATOM     32   O  BDP B   2       7.881   6.531  21.3250  0.00  0.00     0.000 OA
ENDBRANCH 24 30
BRANCH 20 33
ATOM     33  O3  NAG B   3       8.885   7.233  15.8970  0.00  0.00     0.000 O
BRANCH 33 36
ATOM     34  C1  NAG B   3      12.390   6.367  14.8410  0.00  0.00     0.000 C
ATOM     35  C2  NAG B   3      11.099   7.160  14.9200  0.00  0.00     0.000 C
ATOM     36  C3  NAG B   3      10.159   6.591  15.9940  0.00  0.00     0.000 C
ATOM     37  C4  NAG B   3       9.976   5.093  15.7630  0.00  0.00     0.000 C
ATOM     38  C5  NAG B   3      11.333   4.411  15.6130  0.00  0.00     0.000 C
ATOM     39  O5  NAG B   3      12.064   5.014  14.5590  0.00  0.00     0.000 O
ATOM     40   O  NAG B   3       9.266   4.509  16.8660  0.00  0.00     0.000 O
ATOM     42  HD  NAG B   3       9.956   3.986  16.8720  0.00  0.00     0.000 HD
ATOM     42   C  NAG B   3      11.243   2.931  15.2500  0.00  0.00     0.000 C
ATOM     43   O  NAG B   3      10.672   2.792  13.9420  0.00  0.00     0.000 O
ATOM     45  HD  NAG B   3      11.362   2.269  13.9480  0.00  0.00     0.000 HD
BRANCH 35 47
ATOM     45   N  NAG B   3      10.842   8.296  14.0450  0.00  0.00     0.000 N
ATOM     47  HD  NAG B   3      10.345   7.611  13.8570  0.00  0.00     0.000 HD
ATOM     47   C  NAG B   3      10.849   9.544  14.4680  0.00  0.00     0.000 C
ATOM     48   C  NAG B   3      10.544  10.593  13.4400  0.00  0.00     0.000 C
ATOM     49   O  NAG B   3      11.067   9.832  15.6430  0.00  0.00     0.000 OA
ENDBRANCH 35 47
BRANCH 34 50
ATOM     50  O4  BDP B   4      13.071   6.947  13.7480  0.00  0.00     0.000 O
BRANCH 50 54
ATOM     51  C1  BDP B   4      16.770   7.703  12.2310  0.00  0.00     0.000 C
ATOM     52  C2  BDP B   4      16.589   6.293  12.7820  0.00  0.00     0.000 C
ATOM     53  C3  BDP B   4      15.125   6.029  12.9540  0.00  0.00     0.000 C
ATOM     54  C4  BDP B   4      14.493   7.137  13.8450  0.00  0.00     0.000 C
ATOM     55  C5  BDP B   4      14.862   8.538  13.3760  0.00  0.00     0.000 C
ATOM     56  O5  BDP B   4      16.268   8.639  13.1670  0.00  0.00     0.000 O
ATOM     57   O  BDP B   4      17.134   5.344  11.8900  0.00  0.00     0.000 O
ATOM     59  HD  BDP B   4      17.887   5.113  12.2500  0.00  0.00     0.000 HD
ATOM     59   O  BDP B   4      15.004   4.774  13.6530  0.00  0.00     0.000 O
ATOM     61  HD  BDP B   4      15.757   4.542  14.0130  0.00  0.00     0.000 HD
BRANCH 55 61
ATOM     61   C  BDP B   4      14.441   9.546  14.4310  0.00  0.00     0.000 C
ATOM     62   O  BDP B   4      14.124  10.703  14.0490  0.00  0.00     0.000 OA
ATOM     63   O  BDP B   4      14.427   9.176  15.6440  0.00  0.00     0.000 OA
ENDBRANCH 55 61
BRANCH 51 64
ATOM     64  O3  NAG B   5      18.181   7.900  12.0160  0.00  0.00     0.000 O
BRANCH 64 67
ATOM     65  C1  NAG B   5      19.260  10.032   9.2090  0.00  0.00     0.000 C
ATOM     66  C2  NAG B   5      18.719   8.809   9.9270  0.00  0.00     0.000 C
ATOM     67  C3  NAG B   5      18.469   9.137  11.3940  0.00  0.00     0.000 C
ATOM     68  C4  NAG B   5      19.715   9.756  12.0400  0.00  0.00     0.000 C
ATOM     69  C5  NAG B   5      20.237  10.913  11.2020  0.00  0.00     0.000 C
ATOM     70  O5  NAG B   5      20.433  10.484   9.8460  0.00  0.00     0.000 O
ATOM     71   O  NAG B   5      19.384  10.180  13.3450  0.00  0.00     0.000 O
ATOM     73  HD  NAG B   5      20.159   9.835  13.5230  0.00  0.00     0.000 HD
ATOM     73   C  NAG B   5      21.557  11.513  11.7050  0.00  0.00     0.000 C
ATOM     74   O  NAG B   5      22.604  10.524  11.6160  0.00  0.00     0.000 O
ATOM     76  HD  NAG B   5      23.378  10.179  11.7940  0.00  0.00     0.000 HD
BRANCH 66 78
ATOM     76   N  NAG B   5      17.607   8.440   9.0300  0.00  0.00     0.000 N
ATOM     78  HD  NAG B   5      18.268   8.041   9.4230  0.00  0.00     0.000 HD
ATOM     78   C  NAG B   5      17.217   7.191   8.7280  0.00  0.00     0.000 C
ATOM     79   C  NAG B   5      16.037   7.140   7.7960  0.00  0.00     0.000 C
ATOM     80   O  NAG B   5      17.800   6.143   9.1830  0.00  0.00     0.000 OA
ENDBRANCH 66 78
BRANCH 65 81
ATOM     81  O4  BDP B   6      19.541   9.715   7.8390  0.00  0.00     0.000 O
BRANCH 81 85
ATOM     82  C1  BDP B   6      19.906  11.738   4.0790  0.00  0.00     0.000 C
ATOM     83  C2  BDP B   6      21.180  11.525   4.8920  0.00  0.00     0.000 C
ATOM     84  C3  BDP B   6      21.019  10.464   5.9840  0.00  0.00     0.000 C
ATOM     85  C4  BDP B   6      19.793  10.727   6.8610  0.00  0.00     0.000 C
ATOM     86  C5  BDP B   6      18.581  10.959   5.9270  0.00  0.00     0.000 C
ATOM     87  O5  BDP B   6      18.834  12.031   4.9620  0.00  0.00     0.000 O
ATOM     88   O  BDP B   6      22.164  11.099   3.9540  0.00  0.00     0.000 O
ATOM     90  HD  BDP B   6      22.806  10.524   3.8750  0.00  0.00     0.000 HD
ATOM     90   O  BDP B   6      22.210  10.403   6.7730  0.00  0.00     0.000 O
ATOM     92  HD  BDP B   6      22.852   9.828   6.6950  0.00  0.00     0.000 HD
BRANCH 86 92
ATOM     92   C  BDP B   6      17.394  11.457   6.7150  0.00  0.00     0.000 C
ATOM     93   O  BDP B   6      17.307  12.689   7.0030  0.00  0.00     0.000 OA
ATOM     94   O  BDP B   6      16.508  10.606   7.0390  0.00  0.00     0.000 OA
ENDBRANCH 86 92
BRANCH 82 95
ATOM     95  O3  NAG B   7      20.100  12.881   3.2230  0.00  0.00     0.000 O
BRANCH 95 98
ATOM     96  C1  NAG B   7      18.730  13.445  -0.1160  0.00  0.00     0.000 C
ATOM     97  C2  NAG B   7      19.815  13.162   0.9160  0.00  0.00     0.000 C
ATOM     98  C3  NAG B   7      19.096  13.208   2.2630  0.00  0.00     0.000 C
ATOM     99  C4  NAG B   7      18.472  14.586   2.4710  0.00  0.00     0.000 C
ATOM    100  C5  NAG B   7      17.571  14.961   1.2940  0.00  0.00     0.000 C
ATOM    101  O5  NAG B   7      18.298  14.795   0.0870  0.00  0.00     0.000 O
BRANCH 97 104
ATOM    102   N  NAG B   7      20.435  11.831   0.8720  0.00  0.00     0.000 N
ATOM    104  HD  NAG B   7      20.702  11.037   1.0900  0.00  0.00     0.000 HD
ATOM    104   O  NAG B   7      22.121  10.326   0.7280  0.00  0.00     0.000 OA
ATOM    105   C  NAG B   7      21.728  11.508   0.6800  0.00  0.00     0.000 C
ATOM    106   C  NAG B   7      22.715  12.594   0.4170  0.00  0.00     0.000 C
ENDBRANCH 97 104
ATOM    107   O  NAG B   7      16.030  16.554   0.5240  0.00  0.00     0.000 O
ATOM    109  HD  NAG B   7      16.221  15.710   0.5550  0.00  0.00     0.000 HD
ATOM    109   O  NAG B   7      16.030  16.554   0.5240  0.00  0.00     0.000 O
ATOM    111  HD  NAG B   7      16.221  15.710   0.5550  0.00  0.00     0.000 HD
ENDBRANCH 95 98
ENDBRANCH 82 95
ENDBRANCH 81 85
ENDBRANCH 65 81
ENDBRANCH 64 67
ENDBRANCH 51 64
ENDBRANCH 50 54
ENDBRANCH 34 50
ENDBRANCH 33 36
ENDBRANCH 20 33
ENDBRANCH 19 23
ENDBRANCH 1 19
TORSDOF 19
ENDMDL
MODEL 13
REMARK VINA RESULT:      -6.5      8.180     12.991
ROOT
ATOM      1  C1  NAG B   1      18.896   4.982   3.5670  0.00  0.00     0.000 C
ATOM      2  C2  NAG B   1      18.216   4.455   2.3060  0.00  0.00     0.000 C
ATOM      3  C3  NAG B   1      19.073   4.662   1.0740  0.00  0.00     0.000 C
ATOM      4  C4  NAG B   1      19.337   6.162   1.0080  0.00  0.00     0.000 C
ATOM      5  C5  NAG B   1      20.138   6.587   2.2450  0.00  0.00     0.000 C
ATOM      6  O5  NAG B   1      19.401   6.322   3.4580  0.00  0.00     0.000 O
ATOM      7   O  NAG B   1      18.418   4.200  -0.1300  0.00  0.00     0.000 O
ATOM      9  HD  NAG B   1      18.144   3.630   0.4620  0.00  0.00     0.000 HD
ATOM      9   O  NAG B   1      20.065   6.478  -0.1670  0.00  0.00     0.000 O
ATOM     11  HD  NAG B   1      19.791   5.909   0.4250  0.00  0.00     0.000 HD
ATOM     11   C  NAG B   1      20.533   8.065   2.1310  0.00  0.00     0.000 C
ATOM     12   O  NAG B   1      20.663   8.666   3.4180  0.00  0.00     0.000 O
ATOM     14  HD  NAG B   1      20.389   8.097   4.0100  0.00  0.00     0.000 HD
ENDROOT
BRANCH 2 16
ATOM     14   N  NAG B   1      16.855   3.928   2.5110  0.00  0.00     0.000 N
ATOM     16  HD  NAG B   1      16.170   3.606   2.0900  0.00  0.00     0.000 HD
ATOM     16   C  NAG B   1      16.570   2.614   2.5230  0.00  0.00     0.000 C
ATOM     17   C  NAG B   1      17.665   1.606   2.2950  0.00  0.00     0.000 C
ATOM     18   O  NAG B   1      15.429   2.210   2.7470  0.00  0.00     0.000 OA
ENDBRANCH 2 16
BRANCH 1 19
ATOM     19  O4  BDP B   2      17.833   5.040   4.5080  0.00  0.00     0.000 O
BRANCH 19 23
ATOM     20  C1  BDP B   2      17.013   7.256   7.8790  0.00  0.00     0.000 C
ATOM     21  C2  BDP B   2      16.764   7.937   6.5480  0.00  0.00     0.000 C
ATOM     22  C3  BDP B   2      16.690   6.930   5.4230  0.00  0.00     0.000 C
ATOM     23  C4  BDP B   2      17.950   6.070   5.4600  0.00  0.00     0.000 C
ATOM     24  C5  BDP B   2      18.086   5.434   6.8300  0.00  0.00     0.000 C
ATOM     25  O5  BDP B   2      18.178   6.446   7.8150  0.00  0.00     0.000 O
ATOM     26   O  BDP B   2      15.568   8.685   6.5980  0.00  0.00     0.000 O
ATOM     28  HD  BDP B   2      15.674   8.501   7.4370  0.00  0.00     0.000 HD
ATOM     28   O  BDP B   2      16.548   7.625   4.1740  0.00  0.00     0.000 O
ATOM     30  HD  BDP B   2      16.653   7.442   5.0140  0.00  0.00     0.000 HD
BRANCH 24 30
ATOM     30   C  BDP B   2      19.304   4.589   6.9380  0.00  0.00     0.000 C
ATOM     31   O  BDP B   2      20.410   5.150   6.7660  0.00  0.00     0.000 OA
ATOM     32   O  BDP B   2      19.161   3.358   7.1890  0.00  0.00     0.000 OA
ENDBRANCH 24 30
BRANCH 20 33
ATOM     33  O3  NAG B   3      17.239   8.321   8.7690  0.00  0.00     0.000 O
BRANCH 33 36
ATOM     34  C1  NAG B   3      15.982   8.323  12.3150  0.00  0.00     0.000 C
ATOM     35  C2  NAG B   3      15.976   8.575  10.8190  0.00  0.00     0.000 C
ATOM     36  C3  NAG B   3      17.170   7.895  10.1320  0.00  0.00     0.000 C
ATOM     37  C4  NAG B   3      18.459   8.299  10.8420  0.00  0.00     0.000 C
ATOM     38  C5  NAG B   3      18.324   8.084  12.3470  0.00  0.00     0.000 C
ATOM     39  O5  NAG B   3      17.210   8.807  12.8410  0.00  0.00     0.000 O
ATOM     40   O  NAG B   3      19.559   7.521  10.3450  0.00  0.00     0.000 O
ATOM     42  HD  NAG B   3      19.657   7.349  11.1880  0.00  0.00     0.000 HD
ATOM     42   C  NAG B   3      19.521   8.584  13.1520  0.00  0.00     0.000 C
ATOM     43   O  NAG B   3      19.610  10.010  13.0420  0.00  0.00     0.000 O
ATOM     45  HD  NAG B   3      19.709   9.838  13.8850  0.00  0.00     0.000 HD
BRANCH 35 47
ATOM     45   N  NAG B   3      14.949   9.387  10.1770  0.00  0.00     0.000 N
ATOM     47  HD  NAG B   3      15.725   9.771  10.1800  0.00  0.00     0.000 HD
ATOM     47   C  NAG B   3      13.998   8.874   9.4230  0.00  0.00     0.000 C
ATOM     48   C  NAG B   3      13.033   9.853   8.8210  0.00  0.00     0.000 C
ATOM     49   O  NAG B   3      13.920   7.668   9.2030  0.00  0.00     0.000 OA
ENDBRANCH 35 47
BRANCH 34 50
ATOM     50  O4  BDP B   4      14.903   9.101  12.7890  0.00  0.00     0.000 O
BRANCH 50 54
ATOM     51  C1  BDP B   4      12.060   9.329  15.6910  0.00  0.00     0.000 C
ATOM     52  C2  BDP B   4      13.457   8.993  16.2000  0.00  0.00     0.000 C
ATOM     53  C3  BDP B   4      14.449   9.305  15.1220  0.00  0.00     0.000 C
ATOM     54  C4  BDP B   4      14.059   8.553  13.8170  0.00  0.00     0.000 C
ATOM     55  C5  BDP B   4      12.595   8.754  13.4480  0.00  0.00     0.000 C
ATOM     56  O5  BDP B   4      11.760   8.510  14.5750  0.00  0.00     0.000 O
ATOM     57   O  BDP B   4      13.758   9.759  17.3480  0.00  0.00     0.000 O
ATOM     59  HD  BDP B   4      13.662   9.207  18.0090  0.00  0.00     0.000 HD
ATOM     59   O  BDP B   4      15.724   8.797  15.5640  0.00  0.00     0.000 O
ATOM     61  HD  BDP B   4      15.629   8.246  16.2250  0.00  0.00     0.000 HD
BRANCH 55 61
ATOM     61   C  BDP B   4      12.224   7.791  12.3340  0.00  0.00     0.000 C
ATOM     62   O  BDP B   4      11.335   8.148  11.5170  0.00  0.00     0.000 OA
ATOM     63   O  BDP B   4      12.826   6.676  12.2780  0.00  0.00     0.000 OA
ENDBRANCH 55 61
BRANCH 51 64
ATOM     64  O3  NAG B   5      11.140   9.079  16.7710  0.00  0.00     0.000 O
BRANCH 64 67
ATOM     65  C1  NAG B   5       8.390  11.271  17.8790  0.00  0.00     0.000 C
ATOM     66  C2  NAG B   5       9.780  10.659  17.8350  0.00  0.00     0.000 C
ATOM     67  C3  NAG B   5       9.913   9.764  16.6100  0.00  0.00     0.000 C
ATOM     68  C4  NAG B   5       8.766   8.746  16.5430  0.00  0.00     0.000 C
ATOM     69  C5  NAG B   5       7.421   9.442  16.6890  0.00  0.00     0.000 C
ATOM     70  O5  NAG B   5       7.416  10.253  17.8730  0.00  0.00     0.000 O
ATOM     71   O  NAG B   5       8.851   8.049  15.3190  0.00  0.00     0.000 O
ATOM     73  HD  NAG B   5       8.664   7.374  15.8290  0.00  0.00     0.000 HD
ATOM     73   C  NAG B   5       6.220   8.489  16.7610  0.00  0.00     0.000 C
ATOM     74   O  NAG B   5       6.318   7.677  17.9500  0.00  0.00     0.000 O
ATOM     76  HD  NAG B   5       6.132   7.003  18.4610  0.00  0.00     0.000 HD
BRANCH 66 78
ATOM     76   N  NAG B   5      10.681  11.826  17.8860  0.00  0.00     0.000 N
ATOM     78  HD  NAG B   5      10.546  11.105  18.3460  0.00  0.00     0.000 HD
ATOM     78   C  NAG B   5      11.765  11.952  18.6680  0.00  0.00     0.000 C
ATOM     79   C  NAG B   5      12.493  13.256  18.4790  0.00  0.00     0.000 C
ATOM     80   O  NAG B   5      12.139  11.053  19.5030  0.00  0.00     0.000 OA
ENDBRANCH 66 78
BRANCH 65 81
ATOM     81  O4  BDP B   6       8.244  12.078  19.0550  0.00  0.00     0.000 O
BRANCH 81 85
ATOM     82  C1  BDP B   6       5.760  15.211  20.5960  0.00  0.00     0.000 C
ATOM     83  C2  BDP B   6       5.211  13.788  20.6430  0.00  0.00     0.000 C
ATOM     84  C3  BDP B   6       6.297  12.725  20.4620  0.00  0.00     0.000 C
ATOM     85  C4  BDP B   6       7.155  12.988  19.2220  0.00  0.00     0.000 C
ATOM     86  C5  BDP B   6       7.621  14.463  19.2710  0.00  0.00     0.000 C
ATOM     87  O5  BDP B   6       6.492  15.388  19.3920  0.00  0.00     0.000 O
ATOM     88   O  BDP B   6       4.620  13.651  21.9320  0.00  0.00     0.000 O
ATOM     90  HD  BDP B   6       4.557  13.080  22.5800  0.00  0.00     0.000 HD
ATOM     90   O  BDP B   6       5.696  11.429  20.4020  0.00  0.00     0.000 O
ATOM     92  HD  BDP B   6       5.633  10.858  21.0500  0.00  0.00     0.000 HD
BRANCH 86 92
ATOM     92   C  BDP B   6       8.270  14.857  17.9660  0.00  0.00     0.000 C
ATOM     93   O  BDP B   6       9.534  14.856  17.8730  0.00  0.00     0.000 OA
ATOM     94   O  BDP B   6       7.504  15.155  16.9970  0.00  0.00     0.000 OA
ENDBRANCH 86 92
BRANCH 82 95
ATOM     95  O3  NAG B   7       4.647  16.126  20.5760  0.00  0.00     0.000 O
BRANCH 95 98
ATOM     96  C1  NAG B   7       4.515  19.721  21.2090  0.00  0.00     0.000 C
ATOM     97  C2  NAG B   7       4.202  18.251  21.4540  0.00  0.00     0.000 C
ATOM     98  C3  NAG B   7       4.888  17.507  20.3100  0.00  0.00     0.000 C
ATOM     99  C4  NAG B   7       4.327  17.983  18.9720  0.00  0.00     0.000 C
ATOM    100  C5  NAG B   7       4.425  19.504  18.8480  0.00  0.00     0.000 C
ATOM    101  O5  NAG B   7       3.847  20.098  20.0000  0.00  0.00     0.000 O
BRANCH 97 104
ATOM    102   N  NAG B   7       4.763  17.600  22.6460  0.00  0.00     0.000 N
ATOM    104  HD  NAG B   7       5.174  17.043  23.1660  0.00  0.00     0.000 HD
ATOM    104   O  NAG B   7       4.732  16.557  24.6560  0.00  0.00     0.000 OA
ATOM    105   C  NAG B   7       4.124  17.147  23.7410  0.00  0.00     0.000 C
ATOM    106   C  NAG B   7       2.651  17.345  23.8540  0.00  0.00     0.000 C
ENDBRANCH 97 104
ATOM    107   O  NAG B   7       4.126  21.305  17.3740  0.00  0.00     0.000 O
ATOM    109  HD  NAG B   7       4.626  20.979  18.0030  0.00  0.00     0.000 HD
ATOM    109   O  NAG B   7       4.126  21.305  17.3740  0.00  0.00     0.000 O
ATOM    111  HD  NAG B   7       4.626  20.979  18.0030  0.00  0.00     0.000 HD
ENDBRANCH 95 98
ENDBRANCH 82 95
ENDBRANCH 81 85
ENDBRANCH 65 81
ENDBRANCH 64 67
ENDBRANCH 51 64
ENDBRANCH 50 54
ENDBRANCH 34 50
ENDBRANCH 33 36
ENDBRANCH 20 33
ENDBRANCH 19 23
ENDBRANCH 1 19
TORSDOF 19
ENDMDL
MODEL 14
REMARK VINA RESULT:      -6.5      2.617      4.917
ROOT
ATOM      1  C1  NAG B   1       9.392   4.561  18.6330  0.00  0.00     0.000 C
ATOM      2  C2  NAG B   1       8.071   4.259  19.3370  0.00  0.00     0.000 C
ATOM      3  C3  NAG B   1       7.354   5.526  19.7580  0.00  0.00     0.000 C
ATOM      4  C4  NAG B   1       8.336   6.270  20.6580  0.00  0.00     0.000 C
ATOM      5  C5  NAG B   1       9.577   6.652  19.8410  0.00  0.00     0.000 C
ATOM      6  O5  NAG B   1      10.247   5.478  19.3330  0.00  0.00     0.000 O
ATOM      7   O  NAG B   1       6.121   5.247  20.4600  0.00  0.00     0.000 O
ATOM      9  HD  NAG B   1       6.155   4.605  19.8800  0.00  0.00     0.000 HD
ATOM      9   O  NAG B   1       7.727   7.439  21.1810  0.00  0.00     0.000 O
ATOM     11  HD  NAG B   1       7.761   6.797  20.6010  0.00  0.00     0.000 HD
ATOM     11   C  NAG B   1      10.515   7.520  20.6880  0.00  0.00     0.000 C
ATOM     12   O  NAG B   1      11.874   7.357  20.2870  0.00  0.00     0.000 O
ATOM     14  HD  NAG B   1      11.908   6.715  19.7070  0.00  0.00     0.000 HD
ENDROOT
BRANCH 2 16
ATOM     14   N  NAG B   1       7.258   3.394  18.4640  0.00  0.00     0.000 N
ATOM     16  HD  NAG B   1       7.310   2.737  17.9020  0.00  0.00     0.000 HD
ATOM     16   C  NAG B   1       6.893   2.145  18.8010  0.00  0.00     0.000 C
ATOM     17   C  NAG B   1       7.341   1.560  20.1130  0.00  0.00     0.000 C
ATOM     18   O  NAG B   1       6.171   1.471  18.0660  0.00  0.00     0.000 OA
ENDBRANCH 2 16
BRANCH 1 19
ATOM     19  O4  BDP B   2      10.062   3.308  18.6530  0.00  0.00     0.000 O
BRANCH 19 23
ATOM     20  C1  BDP B   2      12.387   4.152  15.3630  0.00  0.00     0.000 C
ATOM     21  C2  BDP B   2      11.130   3.345  15.1100  0.00  0.00     0.000 C
ATOM     22  C3  BDP B   2      10.166   3.455  16.2690  0.00  0.00     0.000 C
ATOM     23  C4  BDP B   2      10.906   3.078  17.5500  0.00  0.00     0.000 C
ATOM     24  C5  BDP B   2      12.132   3.956  17.7010  0.00  0.00     0.000 C
ATOM     25  O5  BDP B   2      12.989   3.768  16.5910  0.00  0.00     0.000 O
ATOM     26   O  BDP B   2      10.500   3.779  13.9240  0.00  0.00     0.000 O
ATOM     28  HD  BDP B   2      11.261   4.186  13.8560  0.00  0.00     0.000 HD
ATOM     28   O  BDP B   2       9.036   2.601  16.0280  0.00  0.00     0.000 O
ATOM     30  HD  BDP B   2       9.797   3.009  15.9590  0.00  0.00     0.000 HD
BRANCH 24 30
ATOM     30   C  BDP B   2      12.907   3.632  18.9270  0.00  0.00     0.000 C
ATOM     31   O  BDP B   2      13.198   2.430  19.1220  0.00  0.00     0.000 OA
ATOM     32   O  BDP B   2      13.223   4.577  19.7060  0.00  0.00     0.000 OA
ENDBRANCH 24 30
BRANCH 20 33
ATOM     33  O3  NAG B   3      13.238   3.799  14.3000  0.00  0.00     0.000 O
BRANCH 33 36
ATOM     34  C1  NAG B   3      15.704   6.330  13.0100  0.00  0.00     0.000 C
ATOM     35  C2  NAG B   3      14.373   5.624  13.1850  0.00  0.00     0.000 C
ATOM     36  C3  NAG B   3      14.439   4.574  14.3040  0.00  0.00     0.000 C
ATOM     37  C4  NAG B   3      15.627   3.647  14.0580  0.00  0.00     0.000 C
ATOM     38  C5  NAG B   3      16.893   4.462  13.8110  0.00  0.00     0.000 C
ATOM     39  O5  NAG B   3      16.692   5.350  12.7240  0.00  0.00     0.000 O
ATOM     40   O  NAG B   3      15.824   2.790  15.1930  0.00  0.00     0.000 O
ATOM     42  HD  NAG B   3      16.624   3.118  15.1460  0.00  0.00     0.000 HD
ATOM     42   C  NAG B   3      18.105   3.618  13.4260  0.00  0.00     0.000 C
ATOM     43   O  NAG B   3      17.874   2.999  12.1550  0.00  0.00     0.000 O
ATOM     45  HD  NAG B   3      18.674   3.328  12.1080  0.00  0.00     0.000 HD
BRANCH 35 47
ATOM     45   N  NAG B   3      13.151   5.805  12.4110  0.00  0.00     0.000 N
ATOM     47  HD  NAG B   3      13.440   4.989  12.3920  0.00  0.00     0.000 HD
ATOM     47   C  NAG B   3      12.170   6.597  12.7940  0.00  0.00     0.000 C
ATOM     48   C  NAG B   3      10.974   6.653  11.8900  0.00  0.00     0.000 C
ATOM     49   O  NAG B   3      12.219   7.234  13.8440  0.00  0.00     0.000 OA
ENDBRANCH 35 47
BRANCH 34 50
ATOM     50  O4  BDP B   4      15.496   7.161  11.8870  0.00  0.00     0.000 O
BRANCH 50 54
ATOM     51  C1  BDP B   4      16.578  10.734  10.2700  0.00  0.00     0.000 C
ATOM     52  C2  BDP B   4      17.382   9.542   9.7630  0.00  0.00     0.000 C
ATOM     53  C3  BDP B   4      16.658   8.284  10.1330  0.00  0.00     0.000 C
ATOM     54  C4  BDP B   4      16.398   8.259  11.6670  0.00  0.00     0.000 C
ATOM     55  C5  BDP B   4      15.773   9.553  12.1690  0.00  0.00     0.000 C
ATOM     56  O5  BDP B   4      16.499  10.679  11.6830  0.00  0.00     0.000 O
ATOM     57   O  BDP B   4      17.522   9.606   8.3600  0.00  0.00     0.000 O
ATOM     59  HD  BDP B   4      18.334   9.881   8.2340  0.00  0.00     0.000 HD
ATOM     59   O  BDP B   4      17.536   7.185   9.8130  0.00  0.00     0.000 O
ATOM     61  HD  BDP B   4      18.348   7.460   9.6870  0.00  0.00     0.000 HD
BRANCH 55 61
ATOM     61   C  BDP B   4      15.795   9.564  13.6870  0.00  0.00     0.000 C
ATOM     62   O  BDP B   4      16.915   9.611  14.2610  0.00  0.00     0.000 OA
ATOM     63   O  BDP B   4      14.687   9.526  14.3050  0.00  0.00     0.000 OA
ENDBRANCH 55 61
BRANCH 51 64
ATOM     64  O3  NAG B   5      17.266  11.926   9.8430  0.00  0.00     0.000 O
BRANCH 64 67
ATOM     65  C1  NAG B   5      15.504  15.154   9.5830  0.00  0.00     0.000 C
ATOM     66  C2  NAG B   5      15.971  13.763   9.1900  0.00  0.00     0.000 C
ATOM     67  C3  NAG B   5      16.686  13.105  10.3640  0.00  0.00     0.000 C
ATOM     68  C4  NAG B   5      17.790  14.017  10.9170  0.00  0.00     0.000 C
ATOM     69  C5  NAG B   5      17.248  15.411  11.1930  0.00  0.00     0.000 C
ATOM     70  O5  NAG B   5      16.600  15.924  10.0200  0.00  0.00     0.000 O
ATOM     71   O  NAG B   5      18.314  13.431  12.0900  0.00  0.00     0.000 O
ATOM     73  HD  NAG B   5      19.062  13.688  11.7390  0.00  0.00     0.000 HD
ATOM     73   C  NAG B   5      18.312  16.427  11.6300  0.00  0.00     0.000 C
ATOM     74   O  NAG B   5      19.256  16.630  10.5580  0.00  0.00     0.000 O
ATOM     76  HD  NAG B   5      20.005  16.887  10.2070  0.00  0.00     0.000 HD
BRANCH 66 78
ATOM     76   N  NAG B   5      14.715  13.241   8.6180  0.00  0.00     0.000 N
ATOM     78  HD  NAG B   5      15.557  13.239   8.4150  0.00  0.00     0.000 HD
ATOM     78   C  NAG B   5      14.614  12.367   7.6040  0.00  0.00     0.000 C
ATOM     79   C  NAG B   5      13.193  12.011   7.2590  0.00  0.00     0.000 C
ATOM     80   O  NAG B   5      15.629  11.890   6.9820  0.00  0.00     0.000 OA
ENDBRANCH 66 78
BRANCH 65 81
ATOM     81  O4  BDP B   6      14.871  15.795   8.4680  0.00  0.00     0.000 O
BRANCH 81 85
ATOM     82  C1  BDP B   6      11.722  18.603   7.7210  0.00  0.00     0.000 C
ATOM     83  C2  BDP B   6      13.135  19.156   7.8870  0.00  0.00     0.000 C
ATOM     84  C3  BDP B   6      14.215  18.081   7.7390  0.00  0.00     0.000 C
ATOM     85  C4  BDP B   6      13.944  16.870   8.6340  0.00  0.00     0.000 C
ATOM     86  C5  BDP B   6      12.480  16.426   8.4030  0.00  0.00     0.000 C
ATOM     87  O5  BDP B   6      11.536  17.523   8.6240  0.00  0.00     0.000 O
ATOM     88   O  BDP B   6      13.287  20.129   6.8570  0.00  0.00     0.000 O
ATOM     90  HD  BDP B   6      13.869  20.401   6.2760  0.00  0.00     0.000 HD
ATOM     90   O  BDP B   6      15.498  18.647   8.0190  0.00  0.00     0.000 O
ATOM     92  HD  BDP B   6      16.080  18.920   7.4380  0.00  0.00     0.000 HD
BRANCH 86 92
ATOM     92   C  BDP B   6      12.073  15.390   9.4230  0.00  0.00     0.000 C
ATOM     93   O  BDP B   6      11.628  14.269   9.0300  0.00  0.00     0.000 OA
ATOM     94   O  BDP B   6      12.218  15.687  10.6490  0.00  0.00     0.000 OA
ENDBRANCH 86 92
BRANCH 82 95
ATOM     95  O3  NAG B   7      10.786  19.641   8.0720  0.00  0.00     0.000 O
BRANCH 95 98
ATOM     96  C1  NAG B   7       8.050  21.423   6.4350  0.00  0.00     0.000 C
ATOM     97  C2  NAG B   7       9.299  21.274   7.2940  0.00  0.00     0.000 C
ATOM     98  C3  NAG B   7       9.581  19.773   7.3200  0.00  0.00     0.000 C
ATOM     99  C4  NAG B   7       8.392  19.032   7.9280  0.00  0.00     0.000 C
ATOM    100  C5  NAG B   7       7.095  19.390   7.2000  0.00  0.00     0.000 C
ATOM    101  O5  NAG B   7       6.973  20.803   7.1460  0.00  0.00     0.000 O
BRANCH 97 104
ATOM    102   N  NAG B   7      10.534  21.875   6.7720  0.00  0.00     0.000 N
ATOM    104  HD  NAG B   7      11.341  21.978   6.4770  0.00  0.00     0.000 HD
ATOM    104   O  NAG B   7      12.369  23.202   6.7860  0.00  0.00     0.000 OA
ATOM    105   C  NAG B   7      11.307  22.830   7.3230  0.00  0.00     0.000 C
ATOM    106   C  NAG B   7      10.888  23.446   8.6140  0.00  0.00     0.000 C
ENDBRANCH 97 104
ATOM    107   O  NAG B   7       4.816  18.864   7.0290  0.00  0.00     0.000 O
ATOM    109  HD  NAG B   7       5.528  19.080   6.5860  0.00  0.00     0.000 HD
ATOM    109   O  NAG B   7       4.816  18.864   7.0290  0.00  0.00     0.000 O
ATOM    111  HD  NAG B   7       5.528  19.080   6.5860  0.00  0.00     0.000 HD
ENDBRANCH 95 98
ENDBRANCH 82 95
ENDBRANCH 81 85
ENDBRANCH 65 81
ENDBRANCH 64 67
ENDBRANCH 51 64
ENDBRANCH 50 54
ENDBRANCH 34 50
ENDBRANCH 33 36
ENDBRANCH 20 33
ENDBRANCH 19 23
ENDBRANCH 1 19
TORSDOF 19
ENDMDL
MODEL 15
REMARK VINA RESULT:      -6.5      3.141      5.333
ROOT
ATOM      1  C1  NAG B   1       7.533   2.867  20.4220  0.00  0.00     0.000 C
ATOM      2  C2  NAG B   1       8.133   2.070  21.5770  0.00  0.00     0.000 C
ATOM      3  C3  NAG B   1       7.162   1.038  22.1150  0.00  0.00     0.000 C
ATOM      4  C4  NAG B   1       5.922   1.822  22.5320  0.00  0.00     0.000 C
ATOM      5  C5  NAG B   1       5.305   2.484  21.2930  0.00  0.00     0.000 C
ATOM      6  O5  NAG B   1       6.229   3.411  20.6840  0.00  0.00     0.000 O
ATOM      7   O  NAG B   1       7.710   0.305  23.2350  0.00  0.00     0.000 O
ATOM      9  HD  NAG B   1       8.408   0.440  22.7400  0.00  0.00     0.000 HD
ATOM      9   O  NAG B   1       4.976   0.954  23.1340  0.00  0.00     0.000 O
ATOM     11  HD  NAG B   1       5.674   1.089  22.6390  0.00  0.00     0.000 HD
ATOM     11   C  NAG B   1       3.982   3.164  21.6670  0.00  0.00     0.000 C
ATOM     12   O  NAG B   1       3.716   4.280  20.8190  0.00  0.00     0.000 O
ATOM     14  HD  NAG B   1       4.415   4.415  20.3250  0.00  0.00     0.000 HD
ENDROOT
BRANCH 2 16
ATOM     14   N  NAG B   1       9.421   1.550  21.0870  0.00  0.00     0.000 N
ATOM     16  HD  NAG B   1      10.127   1.770  20.6350  0.00  0.00     0.000 HD
ATOM     16   C  NAG B   1      10.595   1.807  21.6900  0.00  0.00     0.000 C
ATOM     17   C  NAG B   1      10.636   2.687  22.9110  0.00  0.00     0.000 C
ATOM     18   O  NAG B   1      11.645   1.314  21.2790  0.00  0.00     0.000 OA
ENDBRANCH 2 16
BRANCH 1 19
ATOM     19  O4  BDP B   2       8.407   3.982  20.3100  0.00  0.00     0.000 O
BRANCH 19 23
ATOM     20  C1  BDP B   2       9.307   6.639  17.2980  0.00  0.00     0.000 C
ATOM     21  C2  BDP B   2       8.187   7.039  18.2360  0.00  0.00     0.000 C
ATOM     22  C3  BDP B   2       8.224   6.227  19.5110  0.00  0.00     0.000 C
ATOM     23  C4  BDP B   2       8.233   4.747  19.1420  0.00  0.00     0.000 C
ATOM     24  C5  BDP B   2       9.398   4.465  18.2140  0.00  0.00     0.000 C
ATOM     25  O5  BDP B   2       9.267   5.242  17.0390  0.00  0.00     0.000 O
ATOM     26   O  BDP B   2       8.273   8.413  18.5440  0.00  0.00     0.000 O
ATOM     28  HD  BDP B   2       8.841   8.362  17.8920  0.00  0.00     0.000 HD
ATOM     28   O  BDP B   2       7.093   6.574  20.3260  0.00  0.00     0.000 O
ATOM     30  HD  BDP B   2       7.660   6.522  19.6740  0.00  0.00     0.000 HD
BRANCH 24 30
ATOM     30   C  BDP B   2       9.459   3.038  17.8050  0.00  0.00     0.000 C
ATOM     31   O  BDP B   2       8.525   2.605  17.0900  0.00  0.00     0.000 OA
ATOM     32   O  BDP B   2      10.435   2.339  18.2020  0.00  0.00     0.000 OA
ENDBRANCH 24 30
BRANCH 20 33
ATOM     33  O3  NAG B   3       9.022   7.337  16.1100  0.00  0.00     0.000 O
BRANCH 33 36
ATOM     34  C1  NAG B   3      11.426   9.066  13.7900  0.00  0.00     0.000 C
ATOM     35  C2  NAG B   3      10.342   8.922  14.8420  0.00  0.00     0.000 C
ATOM     36  C3  NAG B   3      10.178   7.458  15.2770  0.00  0.00     0.000 C
ATOM     37  C4  NAG B   3       9.990   6.581  14.0420  0.00  0.00     0.000 C
ATOM     38  C5  NAG B   3      11.083   6.869  13.0170  0.00  0.00     0.000 C
ATOM     39  O5  NAG B   3      11.081   8.247  12.6820  0.00  0.00     0.000 O
ATOM     40   O  NAG B   3      10.036   5.194  14.4120  0.00  0.00     0.000 O
ATOM     42  HD  NAG B   3      10.647   5.178  13.7990  0.00  0.00     0.000 HD
ATOM     42   C  NAG B   3      10.899   6.131  11.6940  0.00  0.00     0.000 C
ATOM     43   O  NAG B   3       9.717   6.607  11.0390  0.00  0.00     0.000 O
ATOM     45  HD  NAG B   3      10.329   6.592  10.4260  0.00  0.00     0.000 HD
BRANCH 35 47
ATOM     45   N  NAG B   3       9.588  10.074  15.3170  0.00  0.00     0.000 N
ATOM     47  HD  NAG B   3       9.112   9.544  14.8250  0.00  0.00     0.000 HD
ATOM     47   C  NAG B   3       9.742  10.586  16.5220  0.00  0.00     0.000 C
ATOM     48   C  NAG B   3       8.871  11.760  16.8580  0.00  0.00     0.000 C
ATOM     49   O  NAG B   3      10.534  10.112  17.3340  0.00  0.00     0.000 OA
ENDBRANCH 35 47
BRANCH 34 50
ATOM     50  O4  BDP B   4      11.363  10.431  13.4310  0.00  0.00     0.000 O
BRANCH 50 54
ATOM     51  C1  BDP B   4      13.518  13.513  11.8800  0.00  0.00     0.000 C
ATOM     52  C2  BDP B   4      13.645  12.204  11.1110  0.00  0.00     0.000 C
ATOM     53  C3  BDP B   4      12.544  11.285  11.5430  0.00  0.00     0.000 C
ATOM     54  C4  BDP B   4      12.582  11.110  13.0890  0.00  0.00     0.000 C
ATOM     55  C5  BDP B   4      12.657  12.444  13.8200  0.00  0.00     0.000 C
ATOM     56  O5  BDP B   4      13.683  13.261  13.2640  0.00  0.00     0.000 O
ATOM     57   O  BDP B   4      13.539  12.438   9.7230  0.00  0.00     0.000 O
ATOM     59  HD  BDP B   4      14.354  12.392   9.4310  0.00  0.00     0.000 HD
ATOM     59   O  BDP B   4      12.810  10.000  10.9440  0.00  0.00     0.000 O
ATOM     61  HD  BDP B   4      13.624   9.953  10.6530  0.00  0.00     0.000 HD
BRANCH 55 61
ATOM     61   C  BDP B   4      12.958  12.194  15.2870  0.00  0.00     0.000 C
ATOM     62   O  BDP B   4      12.392  12.928  16.1400  0.00  0.00     0.000 OA
ATOM     63   O  BDP B   4      13.763  11.259  15.5840  0.00  0.00     0.000 OA
ENDBRANCH 55 61
BRANCH 51 64
ATOM     64  O3  NAG B   5      14.549  14.395  11.3950  0.00  0.00     0.000 O
BRANCH 64 67
ATOM     65  C1  NAG B   5      14.031  17.878  10.3030  0.00  0.00     0.000 C
ATOM     66  C2  NAG B   5      14.139  16.367  10.2020  0.00  0.00     0.000 C
ATOM     67  C3  NAG B   5      14.236  15.760  11.5960  0.00  0.00     0.000 C
ATOM     68  C4  NAG B   5      15.354  16.426  12.4100  0.00  0.00     0.000 C
ATOM     69  C5  NAG B   5      15.215  17.940  12.3760  0.00  0.00     0.000 C
ATOM     70  O5  NAG B   5      15.133  18.392  11.0160  0.00  0.00     0.000 O
ATOM     71   O  NAG B   5      15.301  15.937  13.7330  0.00  0.00     0.000 O
ATOM     73  HD  NAG B   5      16.161  15.919  13.6320  0.00  0.00     0.000 HD
ATOM     73   C  NAG B   5      16.363  18.696  13.0590  0.00  0.00     0.000 C
ATOM     74   O  NAG B   5      17.595  18.447  12.3500  0.00  0.00     0.000 O
ATOM     76  HD  NAG B   5      18.455  18.428  12.2490  0.00  0.00     0.000 HD
BRANCH 66 78
ATOM     76   N  NAG B   5      14.013  15.785   8.8520  0.00  0.00     0.000 N
ATOM     78  HD  NAG B   5      13.581  15.753   9.6010  0.00  0.00     0.000 HD
ATOM     78   C  NAG B   5      12.946  15.127   8.3720  0.00  0.00     0.000 C
ATOM     79   C  NAG B   5      13.114  14.669   6.9480  0.00  0.00     0.000 C
ATOM     80   O  NAG B   5      11.889  14.903   9.0630  0.00  0.00     0.000 OA
ENDBRANCH 66 78
BRANCH 65 81
ATOM     81  O4  BDP B   6      13.987  18.458   8.9920  0.00  0.00     0.000 O
BRANCH 81 85
ATOM     82  C1  BDP B   6      12.198  21.741   6.8980  0.00  0.00     0.000 C
ATOM     83  C2  BDP B   6      13.308  22.061   7.8950  0.00  0.00     0.000 C
ATOM     84  C3  BDP B   6      14.142  20.833   8.2710  0.00  0.00     0.000 C
ATOM     85  C4  BDP B   6      13.266  19.661   8.7170  0.00  0.00     0.000 C
ATOM     86  C5  BDP B   6      12.164  19.458   7.6490  0.00  0.00     0.000 C
ATOM     87  O5  BDP B   6      11.401  20.684   7.4130  0.00  0.00     0.000 O
ATOM     88   O  BDP B   6      14.138  23.020   7.2450  0.00  0.00     0.000 O
ATOM     90  HD  BDP B   6      14.975  23.210   7.1310  0.00  0.00     0.000 HD
ATOM     90   O  BDP B   6      15.082  21.186   9.2890  0.00  0.00     0.000 O
ATOM     92  HD  BDP B   6      15.919  21.376   9.1760  0.00  0.00     0.000 HD
BRANCH 86 92
ATOM     92   C  BDP B   6      11.126  18.477   8.1390  0.00  0.00     0.000 C
ATOM     93   O  BDP B   6      10.680  18.579   9.3220  0.00  0.00     0.000 OA
ATOM     94   O  BDP B   6      10.724  17.593   7.3210  0.00  0.00     0.000 OA
ENDBRANCH 86 92
BRANCH 82 95
ATOM     95  O3  NAG B   7      11.358  22.904   6.7650  0.00  0.00     0.000 O
BRANCH 95 98
ATOM     96  C1  NAG B   7      10.179  25.007   4.0200  0.00  0.00     0.000 C
ATOM     97  C2  NAG B   7      10.762  24.708   5.3950  0.00  0.00     0.000 C
ATOM     98  C3  NAG B   7      10.754  23.185   5.5030  0.00  0.00     0.000 C
ATOM     99  C4  NAG B   7       9.325  22.664   5.3770  0.00  0.00     0.000 C
ATOM    100  C5  NAG B   7       8.665  23.182   4.0980  0.00  0.00     0.000 C
ATOM    101  O5  NAG B   7       8.809  24.593   4.0450  0.00  0.00     0.000 O
BRANCH 97 104
ATOM    102   N  NAG B   7      12.167  25.074   5.6240  0.00  0.00     0.000 N
ATOM    104  HD  NAG B   7      13.011  25.032   5.8110  0.00  0.00     0.000 HD
ATOM    104   O  NAG B   7      13.908  26.117   6.6290  0.00  0.00     0.000 OA
ATOM    105   C  NAG B   7      12.678  25.953   6.5070  0.00  0.00     0.000 C
ATOM    106   C  NAG B   7      11.749  26.738   7.3680  0.00  0.00     0.000 C
ENDBRANCH 97 104
ATOM    107   O  NAG B   7       6.754  23.004   2.7490  0.00  0.00     0.000 O
ATOM    109  HD  NAG B   7       7.616  23.087   2.7490  0.00  0.00     0.000 HD
ATOM    109   O  NAG B   7       6.754  23.004   2.7490  0.00  0.00     0.000 O
ATOM    111  HD  NAG B   7       7.616  23.087   2.7490  0.00  0.00     0.000 HD
ENDBRANCH 95 98
ENDBRANCH 82 95
ENDBRANCH 81 85
ENDBRANCH 65 81
ENDBRANCH 64 67
ENDBRANCH 51 64
ENDBRANCH 50 54
ENDBRANCH 34 50
ENDBRANCH 33 36
ENDBRANCH 20 33
ENDBRANCH 19 23
ENDBRANCH 1 19
TORSDOF 19
ENDMDL
MODEL 16
REMARK VINA RESULT:      -6.4      6.649      8.984
ROOT
ATOM      1  C1  NAG B   1      19.815   6.360   4.1640  0.00  0.00     0.000 C
ATOM      2  C2  NAG B   1      18.762   5.290   3.8900  0.00  0.00     0.000 C
ATOM      3  C3  NAG B   1      18.697   4.925   2.4210  0.00  0.00     0.000 C
ATOM      4  C4  NAG B   1      18.403   6.230   1.6890  0.00  0.00     0.000 C
ATOM      5  C5  NAG B   1      19.569   7.203   1.9060  0.00  0.00     0.000 C
ATOM      6  O5  NAG B   1      19.735   7.511   3.3070  0.00  0.00     0.000 O
ATOM      7   O  NAG B   1      17.674   3.939   2.1490  0.00  0.00     0.000 O
ATOM      9  HD  NAG B   1      17.959   3.702   2.9320  0.00  0.00     0.000 HD
ATOM      9   O  NAG B   1      18.234   5.985   0.3030  0.00  0.00     0.000 O
ATOM     11  HD  NAG B   1      18.518   5.748   1.0860  0.00  0.00     0.000 HD
ATOM     11   C  NAG B   1      19.358   8.469   1.0680  0.00  0.00     0.000 C
ATOM     12   O  NAG B   1      19.973   9.603   1.6780  0.00  0.00     0.000 O
ATOM     14  HD  NAG B   1      20.257   9.366   2.4610  0.00  0.00     0.000 HD
ENDROOT
BRANCH 2 16
ATOM     14   N  NAG B   1      19.094   4.387   5.0060  0.00  0.00     0.000 N
ATOM     16  HD  NAG B   1      19.122   4.341   5.8710  0.00  0.00     0.000 HD
ATOM     16   C  NAG B   1      18.166   3.715   5.7090  0.00  0.00     0.000 C
ATOM     17   C  NAG B   1      16.706   3.889   5.3850  0.00  0.00     0.000 C
ATOM     18   O  NAG B   1      18.485   2.931   6.6020  0.00  0.00     0.000 OA
ENDBRANCH 2 16
BRANCH 1 19
ATOM     19  O4  BDP B   2      19.479   6.819   5.4660  0.00  0.00     0.000 O
BRANCH 19 23
ATOM     20  C1  BDP B   2      18.081  10.334   7.0890  0.00  0.00     0.000 C
ATOM     21  C2  BDP B   2      17.086   9.519   6.2890  0.00  0.00     0.000 C
ATOM     22  C3  BDP B   2      17.563   8.095   6.1080  0.00  0.00     0.000 C
ATOM     23  C4  BDP B   2      18.967   8.129   5.5120  0.00  0.00     0.000 C
ATOM     24  C5  BDP B   2      19.872   8.960   6.4000  0.00  0.00     0.000 C
ATOM     25  O5  BDP B   2      19.368  10.279   6.4890  0.00  0.00     0.000 O
ATOM     26   O  BDP B   2      15.827   9.521   6.9270  0.00  0.00     0.000 O
ATOM     28  HD  BDP B   2      16.232  10.139   7.3770  0.00  0.00     0.000 HD
ATOM     28   O  BDP B   2      16.637   7.389   5.2680  0.00  0.00     0.000 O
ATOM     30  HD  BDP B   2      17.042   8.008   5.7180  0.00  0.00     0.000 HD
BRANCH 24 30
ATOM     30   C  BDP B   2      21.258   9.043   5.8690  0.00  0.00     0.000 C
ATOM     31   O  BDP B   2      22.141   8.381   6.4620  0.00  0.00     0.000 OA
ATOM     32   O  BDP B   2      21.473   9.777   4.8620  0.00  0.00     0.000 OA
ENDBRANCH 24 30
BRANCH 20 33
ATOM     33  O3  NAG B   3      17.589  11.649   7.0060  0.00  0.00     0.000 O
BRANCH 33 36
ATOM     34  C1  NAG B   3      16.457  14.104   9.6210  0.00  0.00     0.000 C
ATOM     35  C2  NAG B   3      16.383  13.237   8.3790  0.00  0.00     0.000 C
ATOM     36  C3  NAG B   3      17.594  12.297   8.2800  0.00  0.00     0.000 C
ATOM     37  C4  NAG B   3      18.878  13.111   8.4150  0.00  0.00     0.000 C
ATOM     38  C5  NAG B   3      18.809  14.008   9.6490  0.00  0.00     0.000 C
ATOM     39  O5  NAG B   3      17.668  14.845   9.5740  0.00  0.00     0.000 O
ATOM     40   O  NAG B   3      20.008  12.231   8.5270  0.00  0.00     0.000 O
ATOM     42  HD  NAG B   3      20.146  12.701   9.2420  0.00  0.00     0.000 HD
ATOM     42   C  NAG B   3      19.998  14.954   9.7910  0.00  0.00     0.000 C
ATOM     43   O  NAG B   3      19.992  15.897   8.7120  0.00  0.00     0.000 O
ATOM     45  HD  NAG B   3      20.130  16.367   9.4270  0.00  0.00     0.000 HD
BRANCH 35 47
ATOM     45   N  NAG B   3      15.325  13.307   7.3790  0.00  0.00     0.000 N
ATOM     47  HD  NAG B   3      16.098  13.534   7.0620  0.00  0.00     0.000 HD
ATOM     47   C  NAG B   3      14.343  12.430   7.3120  0.00  0.00     0.000 C
ATOM     48   C  NAG B   3      13.347  12.636   6.2090  0.00  0.00     0.000 C
ATOM     49   O  NAG B   3      14.261  11.483   8.0910  0.00  0.00     0.000 OA
ENDBRANCH 35 47
BRANCH 34 50
ATOM     50  O4  BDP B   4      15.347  14.968   9.4930  0.00  0.00     0.000 O
BRANCH 50 54
ATOM     51  C1  BDP B   4      13.505  18.258  11.0210  0.00  0.00     0.000 C
ATOM     52  C2  BDP B   4      14.867  18.531  10.3930  0.00  0.00     0.000 C
ATOM     53  C3  BDP B   4      15.254  17.350   9.5570  0.00  0.00     0.000 C
ATOM     54  C4  BDP B   4      15.210  16.057  10.4210  0.00  0.00     0.000 C
ATOM     55  C5  BDP B   4      13.904  15.921  11.1930  0.00  0.00     0.000 C
ATOM     56  O5  BDP B   4      13.601  17.133  11.8770  0.00  0.00     0.000 O
ATOM     57   O  BDP B   4      14.809  19.682   9.5790  0.00  0.00     0.000 O
ATOM     59  HD  BDP B   4      15.188  20.302  10.0500  0.00  0.00     0.000 HD
ATOM     59   O  BDP B   4      16.620  17.560   9.1410  0.00  0.00     0.000 O
ATOM     61  HD  BDP B   4      16.998  18.180   9.6120  0.00  0.00     0.000 HD
BRANCH 55 61
ATOM     61   C  BDP B   4      14.036  14.796  12.2040  0.00  0.00     0.000 C
ATOM     62   O  BDP B   4      14.824  14.961  13.1720  0.00  0.00     0.000 OA
ATOM     63   O  BDP B   4      13.345  13.747  12.0290  0.00  0.00     0.000 OA
ENDBRANCH 55 61
BRANCH 51 64
ATOM     64  O3  NAG B   5      13.134  19.435  11.7640  0.00  0.00     0.000 O
BRANCH 64 67
ATOM     65  C1  NAG B   5       9.673  20.532  11.1170  0.00  0.00     0.000 C
ATOM     66  C2  NAG B   5      11.130  20.209  10.8340  0.00  0.00     0.000 C
ATOM     67  C3  NAG B   5      11.746  19.495  12.0300  0.00  0.00     0.000 C
ATOM     68  C4  NAG B   5      11.508  20.284  13.3250  0.00  0.00     0.000 C
ATOM     69  C5  NAG B   5      10.037  20.640  13.4750  0.00  0.00     0.000 C
ATOM     70  O5  NAG B   5       9.572  21.305  12.2910  0.00  0.00     0.000 O
ATOM     71   O  NAG B   5      11.960  19.510  14.4150  0.00  0.00     0.000 O
ATOM     73  HD  NAG B   5      12.270  20.276  14.6750  0.00  0.00     0.000 HD
ATOM     73   C  NAG B   5       9.723  21.540  14.6780  0.00  0.00     0.000 C
ATOM     74   O  NAG B   5      10.371  22.818  14.5090  0.00  0.00     0.000 O
ATOM     76  HD  NAG B   5      10.681  23.584  14.7680  0.00  0.00     0.000 HD
BRANCH 66 78
ATOM     76   N  NAG B   5      11.241  19.333   9.6520  0.00  0.00     0.000 N
ATOM     78  HD  NAG B   5      11.400  20.161   9.8480  0.00  0.00     0.000 HD
ATOM     78   C  NAG B   5      11.873  19.629   8.5060  0.00  0.00     0.000 C
ATOM     79   C  NAG B   5      11.828  18.519   7.4910  0.00  0.00     0.000 C
ATOM     80   O  NAG B   5      12.453  20.754   8.2930  0.00  0.00     0.000 OA
ENDBRANCH 66 78
BRANCH 65 81
ATOM     81  O4  BDP B   6       9.102  21.245  10.0130  0.00  0.00     0.000 O
BRANCH 81 85
ATOM     82  C1  BDP B   6       5.347  21.765   8.0160  0.00  0.00     0.000 C
ATOM     83  C2  BDP B   6       5.386  22.016   9.5210  0.00  0.00     0.000 C
ATOM     84  C3  BDP B   6       6.808  22.206  10.0550  0.00  0.00     0.000 C
ATOM     85  C4  BDP B   6       7.739  21.072   9.6190  0.00  0.00     0.000 C
ATOM     86  C5  BDP B   6       7.585  20.891   8.0910  0.00  0.00     0.000 C
ATOM     87  O5  BDP B   6       6.190  20.665   7.7060  0.00  0.00     0.000 O
ATOM     88   O  BDP B   6       4.637  23.211   9.7270  0.00  0.00     0.000 O
ATOM     90  HD  BDP B   6       4.663  23.944  10.1860  0.00  0.00     0.000 HD
ATOM     90   O  BDP B   6       6.774  22.321  11.4800  0.00  0.00     0.000 O
ATOM     92  HD  BDP B   6       6.800  23.055  11.9400  0.00  0.00     0.000 HD
BRANCH 86 92
ATOM     92   C  BDP B   6       8.292  19.639   7.6310  0.00  0.00     0.000 C
ATOM     93   O  BDP B   6       8.699  19.556   6.4330  0.00  0.00     0.000 OA
ATOM     94   O  BDP B   6       8.469  18.718   8.4880  0.00  0.00     0.000 OA
ENDBRANCH 86 92
BRANCH 82 95
ATOM     95  O3  NAG B   7       3.999  21.406   7.6510  0.00  0.00     0.000 O
BRANCH 95 98
ATOM     96  C1  NAG B   7       1.276  22.321   5.3960  0.00  0.00     0.000 C
ATOM     97  C2  NAG B   7       1.931  21.610   6.5730  0.00  0.00     0.000 C
ATOM     98  C3  NAG B   7       3.400  22.021   6.5120  0.00  0.00     0.000 C
ATOM     99  C4  NAG B   7       4.008  21.578   5.1830  0.00  0.00     0.000 C
ATOM    100  C5  NAG B   7       3.186  22.102   4.0050  0.00  0.00     0.000 C
ATOM    101  O5  NAG B   7       1.825  21.751   4.2020  0.00  0.00     0.000 O
BRANCH 97 104
ATOM    102   N  NAG B   7       1.630  21.952   7.9700  0.00  0.00     0.000 N
ATOM    104  HD  NAG B   7       1.709  22.101   8.8190  0.00  0.00     0.000 HD
ATOM    104   O  NAG B   7       0.651  21.733  10.0010  0.00  0.00     0.000 OA
ATOM    105   C  NAG B   7       0.757  21.369   8.8130  0.00  0.00     0.000 C
ATOM    106   C  NAG B   7      -0.093  20.249   8.3160  0.00  0.00     0.000 C
ENDBRANCH 97 104
ATOM    107   O  NAG B   7       3.135  22.282   1.6660  0.00  0.00     0.000 O
ATOM    109  HD  NAG B   7       2.961  22.687   2.4120  0.00  0.00     0.000 HD
ATOM    109   O  NAG B   7       3.135  22.282   1.6660  0.00  0.00     0.000 O
ATOM    111  HD  NAG B   7       2.961  22.687   2.4120  0.00  0.00     0.000 HD
ENDBRANCH 95 98
ENDBRANCH 82 95
ENDBRANCH 81 85
ENDBRANCH 65 81
ENDBRANCH 64 67
ENDBRANCH 51 64
ENDBRANCH 50 54
ENDBRANCH 34 50
ENDBRANCH 33 36
ENDBRANCH 20 33
ENDBRANCH 19 23
ENDBRANCH 1 19
TORSDOF 19
ENDMDL
MODEL 17
REMARK VINA RESULT:      -6.4      8.426     12.445
ROOT
ATOM      1  C1  NAG B   1      17.953   3.641   4.0130  0.00  0.00     0.000 C
ATOM      2  C2  NAG B   1      17.950   3.386   2.5080  0.00  0.00     0.000 C
ATOM      3  C3  NAG B   1      16.847   2.431   2.1000  0.00  0.00     0.000 C
ATOM      4  C4  NAG B   1      17.090   1.158   2.9050  0.00  0.00     0.000 C
ATOM      5  C5  NAG B   1      16.945   1.474   4.3990  0.00  0.00     0.000 C
ATOM      6  O5  NAG B   1      17.916   2.455   4.8210  0.00  0.00     0.000 O
ATOM      7   O  NAG B   1      16.863   2.154   0.6810  0.00  0.00     0.000 O
ATOM      9  HD  NAG B   1      17.116   2.981   0.7120  0.00  0.00     0.000 HD
ATOM      9   O  NAG B   1      16.156   0.159   2.5320  0.00  0.00     0.000 O
ATOM     11  HD  NAG B   1      16.409   0.987   2.5630  0.00  0.00     0.000 HD
ATOM     11   C  NAG B   1      17.049   0.182   5.2190  0.00  0.00     0.000 C
ATOM     12   O  NAG B   1      17.569   0.437   6.5230  0.00  0.00     0.000 O
ATOM     14  HD  NAG B   1      17.822   1.264   6.5540  0.00  0.00     0.000 HD
ENDROOT
BRANCH 2 16
ATOM     14   N  NAG B   1      17.865   4.660   1.7720  0.00  0.00     0.000 N
ATOM     16  HD  NAG B   1      18.109   5.490   1.8010  0.00  0.00     0.000 HD
ATOM     16   C  NAG B   1      18.861   5.132   1.0030  0.00  0.00     0.000 C
ATOM     17   C  NAG B   1      20.150   4.362   0.8850  0.00  0.00     0.000 C
ATOM     18   O  NAG B   1      18.734   6.176   0.3640  0.00  0.00     0.000 OA
ENDBRANCH 2 16
BRANCH 1 19
ATOM     19  O4  BDP B   2      19.226   4.230   4.2390  0.00  0.00     0.000 O
BRANCH 19 23
ATOM     20  C1  BDP B   2      18.106   6.106   7.7270  0.00  0.00     0.000 C
ATOM     21  C2  BDP B   2      18.014   6.930   6.4590  0.00  0.00     0.000 C
ATOM     22  C3  BDP B   2      18.036   6.050   5.2300  0.00  0.00     0.000 C
ATOM     23  C4  BDP B   2      19.266   5.149   5.3040  0.00  0.00     0.000 C
ATOM     24  C5  BDP B   2      19.243   4.369   6.6030  0.00  0.00     0.000 C
ATOM     25  O5  BDP B   2      19.253   5.268   7.6960  0.00  0.00     0.000 O
ATOM     26   O  BDP B   2      16.836   7.708   6.4660  0.00  0.00     0.000 O
ATOM     28  HD  BDP B   2      16.849   7.435   7.2880  0.00  0.00     0.000 HD
ATOM     28   O  BDP B   2      18.042   6.877   4.0560  0.00  0.00     0.000 O
ATOM     30  HD  BDP B   2      18.054   6.603   4.8780  0.00  0.00     0.000 HD
BRANCH 24 30
ATOM     30   C  BDP B   2      20.423   3.477   6.7440  0.00  0.00     0.000 C
ATOM     31   O  BDP B   2      20.206   2.279   7.0370  0.00  0.00     0.000 OA
ATOM     32   O  BDP B   2      21.574   3.970   6.5700  0.00  0.00     0.000 OA
ENDBRANCH 24 30
BRANCH 20 33
ATOM     33  O3  NAG B   3      18.261   7.064   8.7450  0.00  0.00     0.000 O
BRANCH 33 36
ATOM     34  C1  NAG B   3      16.565   6.989  12.1020  0.00  0.00     0.000 C
ATOM     35  C2  NAG B   3      16.811   7.383  10.6580  0.00  0.00     0.000 C
ATOM     36  C3  NAG B   3      17.924   6.531  10.0290  0.00  0.00     0.000 C
ATOM     37  C4  NAG B   3      19.161   6.575  10.9220  0.00  0.00     0.000 C
ATOM     38  C5  NAG B   3      18.783   6.247  12.3650  0.00  0.00     0.000 C
ATOM     39  O5  NAG B   3      17.782   7.142  12.8180  0.00  0.00     0.000 O
ATOM     40   O  NAG B   3      20.136   5.629  10.4570  0.00  0.00     0.000 O
ATOM     42  HD  NAG B   3      20.084   5.358  11.2780  0.00  0.00     0.000 HD
ATOM     42   C  NAG B   3      19.937   6.394  13.3530  0.00  0.00     0.000 C
ATOM     43   O  NAG B   3      20.327   7.771  13.4320  0.00  0.00     0.000 O
ATOM     45  HD  NAG B   3      20.274   7.500  14.2530  0.00  0.00     0.000 HD
BRANCH 35 47
ATOM     45   N  NAG B   3      16.115   8.456   9.9600  0.00  0.00     0.000 N
ATOM     47  HD  NAG B   3      16.962   8.611  10.0510  0.00  0.00     0.000 HD
ATOM     47   C  NAG B   3      15.141   8.238   9.0990  0.00  0.00     0.000 C
ATOM     48   C  NAG B   3      14.546   9.454   8.4530  0.00  0.00     0.000 C
ATOM     49   O  NAG B   3      14.759   7.104   8.8210  0.00  0.00     0.000 OA
ENDBRANCH 35 47
BRANCH 34 50
ATOM     50  O4  BDP B   4      15.611   7.931  12.5470  0.00  0.00     0.000 O
BRANCH 50 54
ATOM     51  C1  BDP B   4      12.603   8.502  15.2260  0.00  0.00     0.000 C
ATOM     52  C2  BDP B   4      13.828   7.795  15.7940  0.00  0.00     0.000 C
ATOM     53  C3  BDP B   4      14.972   7.981  14.8450  0.00  0.00     0.000 C
ATOM     54  C4  BDP B   4      14.564   7.488  13.4270  0.00  0.00     0.000 C
ATOM     55  C5  BDP B   4      13.229   8.065  12.9750  0.00  0.00     0.000 C
ATOM     56  O5  BDP B   4      12.246   7.903  13.9940  0.00  0.00     0.000 O
ATOM     57   O  BDP B   4      14.170   8.339  17.0510  0.00  0.00     0.000 O
ATOM     59  HD  BDP B   4      13.886   7.757  17.6250  0.00  0.00     0.000 HD
ATOM     59   O  BDP B   4      16.048   7.144  15.3140  0.00  0.00     0.000 O
ATOM     61  HD  BDP B   4      15.764   6.561  15.8880  0.00  0.00     0.000 HD
BRANCH 55 61
ATOM     61   C  BDP B   4      12.770   7.343  11.7200  0.00  0.00     0.000 C
ATOM     62   O  BDP B   4      12.117   7.999  10.8670  0.00  0.00     0.000 OA
ATOM     63   O  BDP B   4      13.067   6.117  11.5900  0.00  0.00     0.000 OA
ENDBRANCH 55 61
BRANCH 51 64
ATOM     64  O3  NAG B   5      11.542   8.358  16.1910  0.00  0.00     0.000 O
BRANCH 64 67
ATOM     65  C1  NAG B   5       9.257  11.115  17.0700  0.00  0.00     0.000 C
ATOM     66  C2  NAG B   5      10.505  10.250  17.0990  0.00  0.00     0.000 C
ATOM     67  C3  NAG B   5      10.468   9.246  15.9540  0.00  0.00     0.000 C
ATOM     68  C4  NAG B   5       9.148   8.462  15.9510  0.00  0.00     0.000 C
ATOM     69  C5  NAG B   5       7.960   9.409  16.0170  0.00  0.00     0.000 C
ATOM     70  O5  NAG B   5       8.108  10.302  17.1310  0.00  0.00     0.000 O
ATOM     71   O  NAG B   5       9.101   7.662  14.7900  0.00  0.00     0.000 O
ATOM     73  HD  NAG B   5       8.789   7.080  15.3500  0.00  0.00     0.000 HD
ATOM     73   C  NAG B   5       6.600   8.709  16.1470  0.00  0.00     0.000 C
ATOM     74   O  NAG B   5       6.541   7.996  17.4000  0.00  0.00     0.000 O
ATOM     76  HD  NAG B   5       6.229   7.414  17.9600  0.00  0.00     0.000 HD
BRANCH 66 78
ATOM     76   N  NAG B   5      11.635  11.197  17.0390  0.00  0.00     0.000 N
ATOM     78  HD  NAG B   5      11.335  10.597  17.5870  0.00  0.00     0.000 HD
ATOM     78   C  NAG B   5      12.699  11.210  17.8580  0.00  0.00     0.000 C
ATOM     79   C  NAG B   5      13.695  12.289  17.5300  0.00  0.00     0.000 C
ATOM     80   O  NAG B   5      12.848  10.386  18.8300  0.00  0.00     0.000 OA
ENDBRANCH 66 78
BRANCH 65 81
ATOM     81  O4  BDP B   6       9.266  12.030  18.1740  0.00  0.00     0.000 O
BRANCH 81 85
ATOM     82  C1  BDP B   6       7.792  15.903  19.2630  0.00  0.00     0.000 C
ATOM     83  C2  BDP B   6       6.765  14.830  18.9160  0.00  0.00     0.000 C
ATOM     84  C3  BDP B   6       7.349  13.415  18.9450  0.00  0.00     0.000 C
ATOM     85  C4  BDP B   6       8.625  13.306  18.1080  0.00  0.00     0.000 C
ATOM     86  C5  BDP B   6       9.567  14.461  18.5250  0.00  0.00     0.000 C
ATOM     87  O5  BDP B   6       8.916  15.766  18.4060  0.00  0.00     0.000 O
ATOM     88   O  BDP B   6       5.745  14.945  19.9050  0.00  0.00     0.000 O
ATOM     90  HD  BDP B   6       5.241  14.449  20.4050  0.00  0.00     0.000 HD
ATOM     90   O  BDP B   6       6.364  12.480  18.5000  0.00  0.00     0.000 O
ATOM     92  HD  BDP B   6       5.860  11.983  19.0000  0.00  0.00     0.000 HD
BRANCH 86 92
ATOM     92   C  BDP B   6      10.739  14.556  17.5780  0.00  0.00     0.000 C
ATOM     93   O  BDP B   6      10.625  14.111  16.3960  0.00  0.00     0.000 OA
ATOM     94   O  BDP B   6      11.799  15.108  18.0110  0.00  0.00     0.000 OA
ENDBRANCH 86 92
BRANCH 82 95
ATOM     95  O3  NAG B   7       7.201  17.194  19.0160  0.00  0.00     0.000 O
BRANCH 95 98
ATOM     96  C1  NAG B   7       6.630  20.269  20.9020  0.00  0.00     0.000 C
ATOM     97  C2  NAG B   7       6.279  19.134  19.9490  0.00  0.00     0.000 C
ATOM     98  C3  NAG B   7       7.550  18.292  19.8580  0.00  0.00     0.000 C
ATOM     99  C4  NAG B   7       8.698  19.141  19.3170  0.00  0.00     0.000 C
ATOM    100  C5  NAG B   7       8.875  20.412  20.1490  0.00  0.00     0.000 C
ATOM    101  O5  NAG B   7       7.623  21.072  20.2540  0.00  0.00     0.000 O
BRANCH 97 104
ATOM    102   N  NAG B   7       5.232  18.211  20.4070  0.00  0.00     0.000 N
ATOM    104  HD  NAG B   7       4.816  17.497  20.6670  0.00  0.00     0.000 HD
ATOM    104   O  NAG B   7       3.303  17.029  20.2880  0.00  0.00     0.000 OA
ATOM    105   C  NAG B   7       4.073  17.881  19.8040  0.00  0.00     0.000 C
ATOM    106   C  NAG B   7       3.713  18.543  18.5180  0.00  0.00     0.000 C
ENDBRANCH 97 104
ATOM    107   O  NAG B   7      10.252  22.284  20.4710  0.00  0.00     0.000 O
ATOM    109  HD  NAG B   7       9.774  21.680  20.8670  0.00  0.00     0.000 HD
ATOM    109   O  NAG B   7      10.252  22.284  20.4710  0.00  0.00     0.000 O
ATOM    111  HD  NAG B   7       9.774  21.680  20.8670  0.00  0.00     0.000 HD
ENDBRANCH 95 98
ENDBRANCH 82 95
ENDBRANCH 81 85
ENDBRANCH 65 81
ENDBRANCH 64 67
ENDBRANCH 51 64
ENDBRANCH 50 54
ENDBRANCH 34 50
ENDBRANCH 33 36
ENDBRANCH 20 33
ENDBRANCH 19 23
ENDBRANCH 1 19
TORSDOF 19
ENDMDL
MODEL 18
REMARK VINA RESULT:      -6.3      1.555      2.631
ROOT
ATOM      1  C1  NAG B   1      11.016   5.826  15.1880  0.00  0.00     0.000 C
ATOM      2  C2  NAG B   1      10.446   4.930  16.2840  0.00  0.00     0.000 C
ATOM      3  C3  NAG B   1       9.624   5.716  17.2850  0.00  0.00     0.000 C
ATOM      4  C4  NAG B   1      10.564   6.783  17.8370  0.00  0.00     0.000 C
ATOM      5  C5  NAG B   1      10.986   7.719  16.6980  0.00  0.00     0.000 C
ATOM      6  O5  NAG B   1      11.694   6.999  15.6660  0.00  0.00     0.000 O
ATOM      7   O  NAG B   1       9.113   4.879  18.3480  0.00  0.00     0.000 O
ATOM      9  HD  NAG B   1       9.089   4.348  17.6650  0.00  0.00     0.000 HD
ATOM      9   O  NAG B   1       9.915   7.526  18.8550  0.00  0.00     0.000 O
ATOM     11  HD  NAG B   1       9.891   6.995  18.1710  0.00  0.00     0.000 HD
ATOM     11   C  NAG B   1      11.821   8.879  17.2550  0.00  0.00     0.000 C
ATOM     12   O  NAG B   1      12.745   9.366  16.2830  0.00  0.00     0.000 O
ATOM     14  HD  NAG B   1      12.721   8.834  15.6000  0.00  0.00     0.000 HD
ENDROOT
BRANCH 2 16
ATOM     14   N  NAG B   1       9.697   3.831  15.6500  0.00  0.00     0.000 N
ATOM     16  HD  NAG B   1       9.704   3.293  14.9710  0.00  0.00     0.000 HD
ATOM     16   C  NAG B   1      10.042   2.537  15.7750  0.00  0.00     0.000 C
ATOM     17   C  NAG B   1      11.262   2.159  16.5720  0.00  0.00     0.000 C
ATOM     18   O  NAG B   1       9.362   1.644  15.2720  0.00  0.00     0.000 OA
ENDBRANCH 2 16
BRANCH 1 19
ATOM     19  O4  BDP B   2      12.017   5.011  14.5920  0.00  0.00     0.000 O
BRANCH 19 23
ATOM     20  C1  BDP B   2      13.107   7.437  11.4510  0.00  0.00     0.000 C
ATOM     21  C2  BDP B   2      11.737   6.796  11.3620  0.00  0.00     0.000 C
ATOM     22  C3  BDP B   2      11.280   6.291  12.7120  0.00  0.00     0.000 C
ATOM     23  C4  BDP B   2      12.364   5.378  13.2780  0.00  0.00     0.000 C
ATOM     24  C5  BDP B   2      13.680   6.129  13.3290  0.00  0.00     0.000 C
ATOM     25  O5  BDP B   2      14.044   6.537  12.0240  0.00  0.00     0.000 O
ATOM     26   O  BDP B   2      10.797   7.719  10.8560  0.00  0.00     0.000 O
ATOM     28  HD  BDP B   2      11.535   8.142  10.6950  0.00  0.00     0.000 HD
ATOM     28   O  BDP B   2      10.025   5.611  12.5630  0.00  0.00     0.000 O
ATOM     30  HD  BDP B   2      10.763   6.034  12.4020  0.00  0.00     0.000 HD
BRANCH 24 30
ATOM     30   C  BDP B   2      14.785   5.290  13.8630  0.00  0.00     0.000 C
ATOM     31   O  BDP B   2      15.273   5.618  14.9690  0.00  0.00     0.000 OA
ATOM     32   O  BDP B   2      15.178   4.304  13.1760  0.00  0.00     0.000 OA
ENDBRANCH 24 30
BRANCH 20 33
ATOM     33  O3  NAG B   3      13.457   7.677  10.1090  0.00  0.00     0.000 O
BRANCH 33 36
ATOM     34  C1  NAG B   3      15.303  10.872   9.3750  0.00  0.00     0.000 C
ATOM     35  C2  NAG B   3      14.130   9.967   9.7040  0.00  0.00     0.000 C
ATOM     36  C3  NAG B   3      14.596   8.535  10.0060  0.00  0.00     0.000 C
ATOM     37  C4  NAG B   3      15.485   8.041   8.8660  0.00  0.00     0.000 C
ATOM     38  C5  NAG B   3      16.576   9.065   8.5640  0.00  0.00     0.000 C
ATOM     39  O5  NAG B   3      15.991  10.320   8.2620  0.00  0.00     0.000 O
ATOM     40   O  NAG B   3      16.090   6.789   9.2220  0.00  0.00     0.000 O
ATOM     42  HD  NAG B   3      16.812   7.222   9.0210  0.00  0.00     0.000 HD
ATOM     42   C  NAG B   3      17.433   8.714   7.3510  0.00  0.00     0.000 C
ATOM     43   O  NAG B   3      16.626   8.752   6.1670  0.00  0.00     0.000 O
ATOM     45  HD  NAG B   3      17.348   9.185   5.9670  0.00  0.00     0.000 HD
BRANCH 35 47
ATOM     45   N  NAG B   3      13.358  10.435  10.8470  0.00  0.00     0.000 N
ATOM     47  HD  NAG B   3      14.140  10.804  10.7990  0.00  0.00     0.000 HD
ATOM     47   C  NAG B   3      12.057  10.644  10.7980  0.00  0.00     0.000 C
ATOM     48   C  NAG B   3      11.420  11.146  12.0600  0.00  0.00     0.000 C
ATOM     49   O  NAG B   3      11.408  10.465   9.7700  0.00  0.00     0.000 OA
ENDBRANCH 35 47
BRANCH 34 50
ATOM     50  O4  BDP B   4      14.692  12.094   9.0200  0.00  0.00     0.000 O
BRANCH 50 54
ATOM     51  C1  BDP B   4      15.129  16.139   9.0150  0.00  0.00     0.000 C
ATOM     52  C2  BDP B   4      16.204  15.387   8.2400  0.00  0.00     0.000 C
ATOM     53  C3  BDP B   4      15.733  13.985   8.0040  0.00  0.00     0.000 C
ATOM     54  C4  BDP B   4      15.358  13.322   9.3610  0.00  0.00     0.000 C
ATOM     55  C5  BDP B   4      14.436  14.198  10.1980  0.00  0.00     0.000 C
ATOM     56  O5  BDP B   4      14.946  15.525  10.2780  0.00  0.00     0.000 O
ATOM     57   O  BDP B   4      16.443  16.014   6.9980  0.00  0.00     0.000 O
ATOM     59  HD  BDP B   4      17.187  16.444   7.1100  0.00  0.00     0.000 HD
ATOM     59   O  BDP B   4      16.846  13.256   7.4460  0.00  0.00     0.000 O
ATOM     61  HD  BDP B   4      17.589  13.686   7.5580  0.00  0.00     0.000 HD
BRANCH 55 61
ATOM     61   C  BDP B   4      14.329  13.619  11.5980  0.00  0.00     0.000 C
ATOM     62   O  BDP B   4      13.351  13.969  12.3090  0.00  0.00     0.000 OA
ATOM     63   O  BDP B   4      15.228  12.811  11.9830  0.00  0.00     0.000 OA
ENDBRANCH 55 61
BRANCH 51 64
ATOM     64  O3  NAG B   5      15.584  17.498   9.1680  0.00  0.00     0.000 O
BRANCH 64 67
ATOM     65  C1  NAG B   5      13.009  20.100   8.7270  0.00  0.00     0.000 C
ATOM     66  C2  NAG B   5      13.964  18.978   8.3540  0.00  0.00     0.000 C
ATOM     67  C3  NAG B   5      14.562  18.367   9.6150  0.00  0.00     0.000 C
ATOM     68  C4  NAG B   5      15.170  19.449  10.5170  0.00  0.00     0.000 C
ATOM     69  C5  NAG B   5      14.173  20.572  10.7570  0.00  0.00     0.000 C
ATOM     70  O5  NAG B   5      13.681  21.065   9.5030  0.00  0.00     0.000 O
ATOM     71   O  NAG B   5      15.571  18.852  11.7320  0.00  0.00     0.000 O
ATOM     73  HD  NAG B   5      16.261  19.362  11.6150  0.00  0.00     0.000 HD
ATOM     73   C  NAG B   5      14.738  21.761  11.5460  0.00  0.00     0.000 C
ATOM     74   O  NAG B   5      15.789  22.391  10.7840  0.00  0.00     0.000 O
ATOM     76  HD  NAG B   5      16.480  22.901  10.6680  0.00  0.00     0.000 HD
BRANCH 66 78
ATOM     76   N  NAG B   5      14.139  18.554   6.9520  0.00  0.00     0.000 N
ATOM     78  HD  NAG B   5      13.763  18.246   7.6680  0.00  0.00     0.000 HD
ATOM     78   C  NAG B   5      13.507  17.534   6.3510  0.00  0.00     0.000 C
ATOM     79   C  NAG B   5      13.885  17.362   4.9050  0.00  0.00     0.000 C
ATOM     80   O  NAG B   5      12.669  16.772   6.9540  0.00  0.00     0.000 OA
ENDBRANCH 66 78
BRANCH 65 81
ATOM     81  O4  BDP B   6      12.479  20.709   7.5420  0.00  0.00     0.000 O
BRANCH 81 85
ATOM     82  C1  BDP B   6       8.565  21.800   6.1820  0.00  0.00     0.000 C
ATOM     83  C2  BDP B   6       9.561  22.927   6.4420  0.00  0.00     0.000 C
ATOM     84  C3  BDP B   6      11.009  22.436   6.5200  0.00  0.00     0.000 C
ATOM     85  C4  BDP B   6      11.165  21.269   7.4980  0.00  0.00     0.000 C
ATOM     86  C5  BDP B   6      10.085  20.214   7.1570  0.00  0.00     0.000 C
ATOM     87  O5  BDP B   6       8.739  20.789   7.1640  0.00  0.00     0.000 O
ATOM     88   O  BDP B   6       9.419  23.821   5.3420  0.00  0.00     0.000 O
ATOM     90  HD  BDP B   6       9.902  24.298   4.8030  0.00  0.00     0.000 HD
ATOM     90   O  BDP B   6      11.866  23.523   6.8780  0.00  0.00     0.000 O
ATOM     92  HD  BDP B   6      12.348  23.999   6.3390  0.00  0.00     0.000 HD
BRANCH 86 92
ATOM     92   C  BDP B   6      10.028  19.151   8.2270  0.00  0.00     0.000 C
ATOM     93   O  BDP B   6      10.152  17.931   7.9020  0.00  0.00     0.000 OA
ATOM     94   O  BDP B   6       9.876  19.535   9.4280  0.00  0.00     0.000 OA
ENDBRANCH 86 92
BRANCH 82 95
ATOM     95  O3  NAG B   7       7.232  22.331   6.3240  0.00  0.00     0.000 O
BRANCH 95 98
ATOM     96  C1  NAG B   7       4.115  21.714   4.5230  0.00  0.00     0.000 C
ATOM     97  C2  NAG B   7       5.263  22.548   5.0760  0.00  0.00     0.000 C
ATOM     98  C3  NAG B   7       6.125  21.560   5.8600  0.00  0.00     0.000 C
ATOM     99  C4  NAG B   7       5.302  20.930   6.9800  0.00  0.00     0.000 C
ATOM    100  C5  NAG B   7       4.018  20.306   6.4310  0.00  0.00     0.000 C
ATOM    101  O5  NAG B   7       3.339  21.271   5.6420  0.00  0.00     0.000 O
BRANCH 97 104
ATOM    102   N  NAG B   7       6.269  23.144   4.1860  0.00  0.00     0.000 N
ATOM    104  HD  NAG B   7       7.022  23.413   3.8540  0.00  0.00     0.000 HD
ATOM    104   O  NAG B   7       7.319  24.794   3.0430  0.00  0.00     0.000 OA
ATOM    105   C  NAG B   7       6.368  24.417   3.7550  0.00  0.00     0.000 C
ATOM    106   C  NAG B   7       5.320  25.400   4.1530  0.00  0.00     0.000 C
ENDBRANCH 97 104
ATOM    107   O  NAG B   7       2.160  18.992   7.0000  0.00  0.00     0.000 O
ATOM    109  HD  NAG B   7       2.750  19.157   6.3880  0.00  0.00     0.000 HD
ATOM    109   O  NAG B   7       2.160  18.992   7.0000  0.00  0.00     0.000 O
ATOM    111  HD  NAG B   7       2.750  19.157   6.3880  0.00  0.00     0.000 HD
ENDBRANCH 95 98
ENDBRANCH 82 95
ENDBRANCH 81 85
ENDBRANCH 65 81
ENDBRANCH 64 67
ENDBRANCH 51 64
ENDBRANCH 50 54
ENDBRANCH 34 50
ENDBRANCH 33 36
ENDBRANCH 20 33
ENDBRANCH 19 23
ENDBRANCH 1 19
TORSDOF 19
ENDMDL
MODEL 19
REMARK VINA RESULT:      -6.3      6.085     16.756
ROOT
ATOM      1  C1  NAG B   1       6.689  22.165   7.0460  0.00  0.00     0.000 C
ATOM      2  C2  NAG B   1       6.019  21.988   5.6860  0.00  0.00     0.000 C
ATOM      3  C3  NAG B   1       4.509  21.939   5.8030  0.00  0.00     0.000 C
ATOM      4  C4  NAG B   1       4.211  20.783   6.7530  0.00  0.00     0.000 C
ATOM      5  C5  NAG B   1       4.805  21.099   8.1320  0.00  0.00     0.000 C
ATOM      6  O5  NAG B   1       6.239  21.251   8.0580  0.00  0.00     0.000 O
ATOM      7   O  NAG B   1       3.869  21.733   4.5230  0.00  0.00     0.000 O
ATOM      9  HD  NAG B   1       4.553  22.220   4.3140  0.00  0.00     0.000 HD
ATOM      9   O  NAG B   1       2.811  20.593   6.8660  0.00  0.00     0.000 O
ATOM     11  HD  NAG B   1       3.495  21.080   6.6560  0.00  0.00     0.000 HD
ATOM     11   C  NAG B   1       4.400  20.014   9.1370  0.00  0.00     0.000 C
ATOM     12   O  NAG B   1       5.378  19.870  10.1650  0.00  0.00     0.000 O
ATOM     14  HD  NAG B   1       6.063  20.357   9.9550  0.00  0.00     0.000 HD
ENDROOT
BRANCH 2 16
ATOM     14   N  NAG B   1       7.042  21.882   4.6310  0.00  0.00     0.000 N
ATOM     16  HD  NAG B   1       7.158  21.657   3.8030  0.00  0.00     0.000 HD
ATOM     16   C  NAG B   1       7.198  22.802   3.6630  0.00  0.00     0.000 C
ATOM     17   C  NAG B   1       6.284  23.997   3.6080  0.00  0.00     0.000 C
ATOM     18   O  NAG B   1       8.097  22.704   2.8280  0.00  0.00     0.000 OA
ENDBRANCH 2 16
BRANCH 1 19
ATOM     19  O4  BDP B   2       8.044  21.824   6.7850  0.00  0.00     0.000 O
BRANCH 19 23
ATOM     20  C1  BDP B   2      10.840  19.319   8.4730  0.00  0.00     0.000 C
ATOM     21  C2  BDP B   2       9.630  18.654   7.8500  0.00  0.00     0.000 C
ATOM     22  C3  BDP B   2       8.906  19.598   6.9170  0.00  0.00     0.000 C
ATOM     23  C4  BDP B   2       8.593  20.884   7.6770  0.00  0.00     0.000 C
ATOM     24  C5  BDP B   2       9.875  21.461   8.2430  0.00  0.00     0.000 C
ATOM     25  O5  BDP B   2      10.467  20.525   9.1240  0.00  0.00     0.000 O
ATOM     26   O  BDP B   2      10.017  17.494   7.1460  0.00  0.00     0.000 O
ATOM     28  HD  BDP B   2      10.747  17.666   7.5790  0.00  0.00     0.000 HD
ATOM     28   O  BDP B   2       7.718  18.959   6.4240  0.00  0.00     0.000 O
ATOM     30  HD  BDP B   2       8.448  19.132   6.8560  0.00  0.00     0.000 HD
BRANCH 24 30
ATOM     30   C  BDP B   2       9.639  22.713   9.0090  0.00  0.00     0.000 C
ATOM     31   O  BDP B   2      10.113  23.772   8.5370  0.00  0.00     0.000 OA
ATOM     32   O  BDP B   2       8.986  22.643  10.0890  0.00  0.00     0.000 OA
ENDBRANCH 24 30
BRANCH 20 33
ATOM     33  O3  NAG B   3      11.279  18.391   9.4350  0.00  0.00     0.000 O
BRANCH 33 36
ATOM     34  C1  NAG B   3      14.767  17.166  10.1330  0.00  0.00     0.000 C
ATOM     35  C2  NAG B   3      13.324  17.115   9.6670  0.00  0.00     0.000 C
ATOM     36  C3  NAG B   3      12.682  18.511   9.6830  0.00  0.00     0.000 C
ATOM     37  C4  NAG B   3      12.889  19.147  11.0560  0.00  0.00     0.000 C
ATOM     38  C5  NAG B   3      14.359  19.066  11.4600  0.00  0.00     0.000 C
ATOM     39  O5  NAG B   3      14.792  17.717  11.4410  0.00  0.00     0.000 O
ATOM     40   O  NAG B   3      12.476  20.522  11.0270  0.00  0.00     0.000 O
ATOM     42  HD  NAG B   3      13.279  20.640  11.3290  0.00  0.00     0.000 HD
ATOM     42   C  NAG B   3      14.637  19.562  12.8770  0.00  0.00     0.000 C
ATOM     43   O  NAG B   3      14.000  18.694  13.8220  0.00  0.00     0.000 O
ATOM     45  HD  NAG B   3      14.803  18.812  14.1240  0.00  0.00     0.000 HD
BRANCH 35 47
ATOM     45   N  NAG B   3      13.327  16.422   8.3850  0.00  0.00     0.000 N
ATOM     47  HD  NAG B   3      14.122  16.516   8.7150  0.00  0.00     0.000 HD
ATOM     47   C  NAG B   3      12.396  15.556   8.0360  0.00  0.00     0.000 C
ATOM     48   C  NAG B   3      12.560  14.917   6.6890  0.00  0.00     0.000 C
ATOM     49   O  NAG B   3      11.461  15.269   8.7800  0.00  0.00     0.000 OA
ENDBRANCH 35 47
BRANCH 34 50
ATOM     50  O4  BDP B   4      15.156  15.808  10.1630  0.00  0.00     0.000 O
BRANCH 50 54
ATOM     51  C1  BDP B   4      18.200  13.276   9.2280  0.00  0.00     0.000 C
ATOM     52  C2  BDP B   4      18.238  13.810  10.6550  0.00  0.00     0.000 C
ATOM     53  C3  BDP B   4      16.903  14.405  10.9810  0.00  0.00     0.000 C
ATOM     54  C4  BDP B   4      16.534  15.480   9.9180  0.00  0.00     0.000 C
ATOM     55  C5  BDP B   4      16.701  14.968   8.4940  0.00  0.00     0.000 C
ATOM     56  O5  BDP B   4      17.974  14.350   8.3330  0.00  0.00     0.000 O
ATOM     57   O  BDP B   4      18.518  12.765  11.5620  0.00  0.00     0.000 O
ATOM     59  HD  BDP B   4      19.351  12.875  11.7710  0.00  0.00     0.000 HD
ATOM     59   O  BDP B   4      17.037  15.067  12.2550  0.00  0.00     0.000 O
ATOM     61  HD  BDP B   4      17.870  15.177  12.4640  0.00  0.00     0.000 HD
BRANCH 55 61
ATOM     61   C  BDP B   4      16.585  16.133   7.5270  0.00  0.00     0.000 C
ATOM     62   O  BDP B   4      17.335  17.128   7.7080  0.00  0.00     0.000 OA
ATOM     63   O  BDP B   4      15.743  16.048   6.5820  0.00  0.00     0.000 OA
ENDBRANCH 55 61
BRANCH 51 64
ATOM     64  O3  NAG B   5      19.474  12.655   8.9700  0.00  0.00     0.000 O
BRANCH 64 67
ATOM     65  C1  NAG B   5      19.601   9.539   7.0030  0.00  0.00     0.000 C
ATOM     66  C2  NAG B   5      19.373  10.448   8.1990  0.00  0.00     0.000 C
ATOM     67  C3  NAG B   5      19.481  11.906   7.7710  0.00  0.00     0.000 C
ATOM     68  C4  NAG B   5      20.792  12.163   7.0160  0.00  0.00     0.000 C
ATOM     69  C5  NAG B   5      20.976  11.148   5.8980  0.00  0.00     0.000 C
ATOM     70  O5  NAG B   5      20.854   9.817   6.4200  0.00  0.00     0.000 O
ATOM     71   O  NAG B   5      20.772  13.481   6.5120  0.00  0.00     0.000 O
ATOM     73  HD  NAG B   5      21.594  13.469   6.7860  0.00  0.00     0.000 HD
ATOM     73   C  NAG B   5      22.323  11.249   5.1670  0.00  0.00     0.000 C
ATOM     74   O  NAG B   5      23.394  10.948   6.0850  0.00  0.00     0.000 O
ATOM     76  HD  NAG B   5      24.216  10.936   6.3600  0.00  0.00     0.000 HD
BRANCH 66 78
ATOM     76   N  NAG B   5      18.072   9.984   8.7180  0.00  0.00     0.000 N
ATOM     78  HD  NAG B   5      18.875  10.101   9.0230  0.00  0.00     0.000 HD
ATOM     78   C  NAG B   5      17.763   9.785  10.0090  0.00  0.00     0.000 C
ATOM     79   C  NAG B   5      16.346   9.327  10.2230  0.00  0.00     0.000 C
ATOM     80   O  NAG B   5      18.598   9.961  10.9670  0.00  0.00     0.000 OA
ENDBRANCH 66 78
BRANCH 65 81
ATOM     81  O4  BDP B   6      19.547   8.166   7.4100  0.00  0.00     0.000 O
BRANCH 81 85
ATOM     82  C1  BDP B   6      19.173   4.250   5.7100  0.00  0.00     0.000 C
ATOM     83  C2  BDP B   6      20.538   4.927   5.6270  0.00  0.00     0.000 C
ATOM     84  C3  BDP B   6      20.677   6.105   6.5960  0.00  0.00     0.000 C
ATOM     85  C4  BDP B   6      19.517   7.094   6.4650  0.00  0.00     0.000 C
ATOM     86  C5  BDP B   6      18.197   6.289   6.5280  0.00  0.00     0.000 C
ATOM     87  O5  BDP B   6      18.158   5.226   5.5220  0.00  0.00     0.000 O
ATOM     88   O  BDP B   6      21.485   3.917   5.9660  0.00  0.00     0.000 O
ATOM     90  HD  BDP B   6      22.208   3.809   6.4290  0.00  0.00     0.000 HD
ATOM     90   O  BDP B   6      21.932   6.757   6.3810  0.00  0.00     0.000 O
ATOM     92  HD  BDP B   6      22.656   6.649   6.8440  0.00  0.00     0.000 HD
BRANCH 86 92
ATOM     92   C  BDP B   6      17.023   7.167   6.1680  0.00  0.00     0.000 C
ATOM     93   O  BDP B   6      16.347   7.714   7.0910  0.00  0.00     0.000 OA
ATOM     94   O  BDP B   6      16.776   7.339   4.9340  0.00  0.00     0.000 OA
ENDBRANCH 86 92
BRANCH 82 95
ATOM     95  O3  NAG B   7      19.074   3.296   4.6340  0.00  0.00     0.000 O
BRANCH 95 98
ATOM     96  C1  NAG B   7      17.074   0.250   4.4000  0.00  0.00     0.000 C
ATOM     97  C2  NAG B   7      18.351   1.074   4.4810  0.00  0.00     0.000 C
ATOM     98  C3  NAG B   7      17.881   2.527   4.4940  0.00  0.00     0.000 C
ATOM     99  C4  NAG B   7      17.099   2.831   3.2190  0.00  0.00     0.000 C
ATOM    100  C5  NAG B   7      15.959   1.830   3.0250  0.00  0.00     0.000 C
ATOM    101  O5  NAG B   7      16.482   0.514   3.1230  0.00  0.00     0.000 O
BRANCH 97 104
ATOM    102   N  NAG B   7      19.140   0.878   5.7050  0.00  0.00     0.000 N
ATOM    104  HD  NAG B   7      19.525   1.009   6.4690  0.00  0.00     0.000 HD
ATOM    104   O  NAG B   7      20.997   0.504   6.9460  0.00  0.00     0.000 OA
ATOM    105   C  NAG B   7      20.448   0.582   5.8290  0.00  0.00     0.000 C
ATOM    106   C  NAG B   7      21.260   0.359   4.6000  0.00  0.00     0.000 C
ENDBRANCH 97 104
ATOM    107   O  NAG B   7      14.083   1.332   1.7080  0.00  0.00     0.000 O
ATOM    109  HD  NAG B   7      14.402   1.336   2.5130  0.00  0.00     0.000 HD
ATOM    109   O  NAG B   7      14.083   1.332   1.7080  0.00  0.00     0.000 O
ATOM    111  HD  NAG B   7      14.402   1.336   2.5130  0.00  0.00     0.000 HD
ENDBRANCH 95 98
ENDBRANCH 82 95
ENDBRANCH 81 85
ENDBRANCH 65 81
ENDBRANCH 64 67
ENDBRANCH 51 64
ENDBRANCH 50 54
ENDBRANCH 34 50
ENDBRANCH 33 36
ENDBRANCH 20 33
ENDBRANCH 19 23
ENDBRANCH 1 19
TORSDOF 19
ENDMDL
MODEL 20
REMARK VINA RESULT:      -6.3      2.383     16.523
ROOT
ATOM      1  C1  NAG B   1       4.376  22.694   6.8790  0.00  0.00     0.000 C
ATOM      2  C2  NAG B   1       2.991  22.644   6.2390  0.00  0.00     0.000 C
ATOM      3  C3  NAG B   1       2.154  21.509   6.7920  0.00  0.00     0.000 C
ATOM      4  C4  NAG B   1       2.962  20.242   6.5300  0.00  0.00     0.000 C
ATOM      5  C5  NAG B   1       4.279  20.314   7.3130  0.00  0.00     0.000 C
ATOM      6  O5  NAG B   1       5.076  21.440   6.8890  0.00  0.00     0.000 O
ATOM      7   O  NAG B   1       0.855  21.432   6.1630  0.00  0.00     0.000 O
ATOM      9  HD  NAG B   1       1.003  22.285   6.1820  0.00  0.00     0.000 HD
ATOM      9   O  NAG B   1       2.224  19.101   6.9350  0.00  0.00     0.000 O
ATOM     11  HD  NAG B   1       2.372  19.954   6.9540  0.00  0.00     0.000 HD
ATOM     11   C  NAG B   1       5.044  18.992   7.1730  0.00  0.00     0.000 C
ATOM     12   O  NAG B   1       6.452  19.194   7.2800  0.00  0.00     0.000 O
ATOM     14  HD  NAG B   1       6.600  20.047   7.2980  0.00  0.00     0.000 HD
ENDROOT
BRANCH 2 16
ATOM     14   N  NAG B   1       2.634  23.566   5.1460  0.00  0.00     0.000 N
ATOM     16  HD  NAG B   1       1.973  23.825   4.6500  0.00  0.00     0.000 HD
ATOM     16   C  NAG B   1       2.016  24.742   5.3490  0.00  0.00     0.000 C
ATOM     17   C  NAG B   1       1.630  25.158   6.7440  0.00  0.00     0.000 C
ATOM     18   O  NAG B   1       1.778  25.508   4.4150  0.00  0.00     0.000 OA
ENDBRANCH 2 16
BRANCH 1 19
ATOM     19  O4  BDP B   2       5.106  23.543   6.0040  0.00  0.00     0.000 O
BRANCH 19 23
ATOM     20  C1  BDP B   2       8.777  22.711   7.6700  0.00  0.00     0.000 C
ATOM     21  C2  BDP B   2       8.030  23.897   8.2450  0.00  0.00     0.000 C
ATOM     22  C3  BDP B   2       6.566  23.855   7.8710  0.00  0.00     0.000 C
ATOM     23  C4  BDP B   2       6.458  23.722   6.3550  0.00  0.00     0.000 C
ATOM     24  C5  BDP B   2       7.231  22.500   5.8990  0.00  0.00     0.000 C
ATOM     25  O5  BDP B   2       8.591  22.637   6.2630  0.00  0.00     0.000 O
ATOM     26   O  BDP B   2       8.162  23.924   9.6500  0.00  0.00     0.000 O
ATOM     28  HD  BDP B   2       8.755  23.327   9.4480  0.00  0.00     0.000 HD
ATOM     28   O  BDP B   2       5.920  25.043   8.3560  0.00  0.00     0.000 O
ATOM     30  HD  BDP B   2       6.513  24.445   8.1540  0.00  0.00     0.000 HD
BRANCH 24 30
ATOM     30   C  BDP B   2       7.176  22.318   4.4250  0.00  0.00     0.000 C
ATOM     31   O  BDP B   2       6.573  21.308   3.9930  0.00  0.00     0.000 OA
ATOM     32   O  BDP B   2       7.741  23.178   3.6910  0.00  0.00     0.000 OA
ENDBRANCH 24 30
BRANCH 20 33
ATOM     33  O3  NAG B   3      10.127  22.995   7.9430  0.00  0.00     0.000 O
BRANCH 33 36
ATOM     34  C1  NAG B   3      12.384  19.987   8.0690  0.00  0.00     0.000 C
ATOM     35  C2  NAG B   3      11.303  20.955   8.5110  0.00  0.00     0.000 C
ATOM     36  C3  NAG B   3      10.996  21.989   7.4160  0.00  0.00     0.000 C
ATOM     37  C4  NAG B   3      12.298  22.647   6.9650  0.00  0.00     0.000 C
ATOM     38  C5  NAG B   3      13.339  21.584   6.6270  0.00  0.00     0.000 C
ATOM     39  O5  NAG B   3      13.546  20.737   7.7450  0.00  0.00     0.000 O
ATOM     40   O  NAG B   3      12.059  23.466   5.8090  0.00  0.00     0.000 O
ATOM     42  HD  NAG B   3      12.697  22.979   5.4850  0.00  0.00     0.000 HD
ATOM     42   C  NAG B   3      14.715  22.153   6.2900  0.00  0.00     0.000 C
ATOM     43   O  NAG B   3      15.270  22.784   7.4510  0.00  0.00     0.000 O
ATOM     45  HD  NAG B   3      15.909  22.297   7.1260  0.00  0.00     0.000 HD
BRANCH 35 47
ATOM     45   N  NAG B   3      10.592  21.065   9.7780  0.00  0.00     0.000 N
ATOM     47  HD  NAG B   3      10.961  21.811   9.5370  0.00  0.00     0.000 HD
ATOM     47   C  NAG B   3       9.452  20.449  10.0180  0.00  0.00     0.000 C
ATOM     48   C  NAG B   3       8.843  20.686  11.3680  0.00  0.00     0.000 C
ATOM     49   O  NAG B   3       8.904  19.742   9.1750  0.00  0.00     0.000 OA
ENDBRANCH 35 47
BRANCH 34 50
ATOM     50  O4  BDP B   4      12.613  19.196   9.2160  0.00  0.00     0.000 O
BRANCH 50 54
ATOM     51  C1  BDP B   4      13.404  15.336  10.2280  0.00  0.00     0.000 C
ATOM     52  C2  BDP B   4      14.573  16.293  10.4260  0.00  0.00     0.000 C
ATOM     53  C3  BDP B   4      14.056  17.698  10.3830  0.00  0.00     0.000 C
ATOM     54  C4  BDP B   4      13.273  17.929   9.0580  0.00  0.00     0.000 C
ATOM     55  C5  BDP B   4      12.246  16.837   8.7940  0.00  0.00     0.000 C
ATOM     56  O5  BDP B   4      12.836  15.549   8.9480  0.00  0.00     0.000 O
ATOM     57   O  BDP B   4      15.191  16.060  11.6740  0.00  0.00     0.000 O
ATOM     59  HD  BDP B   4      15.914  15.623  11.4820  0.00  0.00     0.000 HD
ATOM     59   O  BDP B   4      15.205  18.569  10.3780  0.00  0.00     0.000 O
ATOM     61  HD  BDP B   4      15.928  18.132  10.1860  0.00  0.00     0.000 HD
BRANCH 55 61
ATOM     61   C  BDP B   4      11.718  16.978   7.3780  0.00  0.00     0.000 C
ATOM     62   O  BDP B   4      10.472  17.069   7.2180  0.00  0.00     0.000 OA
ATOM     63   O  BDP B   4      12.554  16.998   6.4240  0.00  0.00     0.000 OA
ENDBRANCH 55 61
BRANCH 51 64
ATOM     64  O3  NAG B   5      13.924  13.997  10.3390  0.00  0.00     0.000 O
BRANCH 64 67
ATOM     65  C1  NAG B   5      12.224  11.138  11.9300  0.00  0.00     0.000 C
ATOM     66  C2  NAG B   5      13.125  12.354  11.8030  0.00  0.00     0.000 C
ATOM     67  C3  NAG B   5      12.904  13.024  10.4530  0.00  0.00     0.000 C
ATOM     68  C4  NAG B   5      13.034  12.011   9.3070  0.00  0.00     0.000 C
ATOM     69  C5  NAG B   5      12.168  10.789   9.5690  0.00  0.00     0.000 C
ATOM     70  O5  NAG B   5      12.464  10.248  10.8640  0.00  0.00     0.000 O
ATOM     71   O  NAG B   5      12.672  12.646   8.0990  0.00  0.00     0.000 O
ATOM     73  HD  NAG B   5      13.361  12.212   7.8050  0.00  0.00     0.000 HD
ATOM     73   C  NAG B   5      12.331   9.665   8.5360  0.00  0.00     0.000 C
ATOM     74   O  NAG B   5      13.678   9.150   8.5910  0.00  0.00     0.000 O
ATOM     76  HD  NAG B   5      14.367   8.716   8.2970  0.00  0.00     0.000 HD
BRANCH 66 78
ATOM     76   N  NAG B   5      12.799  13.100  13.0340  0.00  0.00     0.000 N
ATOM     78  HD  NAG B   5      13.511  12.813  12.6320  0.00  0.00     0.000 HD
ATOM     78   C  NAG B   5      13.675  13.745  13.8210  0.00  0.00     0.000 C
ATOM     79   C  NAG B   5      13.033  14.430  14.9970  0.00  0.00     0.000 C
ATOM     80   O  NAG B   5      14.938  13.767  13.5970  0.00  0.00     0.000 OA
ENDBRANCH 66 78
BRANCH 65 81
ATOM     81  O4  BDP B   6      12.462  10.477  13.1800  0.00  0.00     0.000 O
BRANCH 81 85
ATOM     82  C1  BDP B   6      10.661   7.569  15.7600  0.00  0.00     0.000 C
ATOM     83  C2  BDP B   6      11.324   7.063  14.4820  0.00  0.00     0.000 C
ATOM     84  C3  BDP B   6      12.270   8.091  13.8560  0.00  0.00     0.000 C
ATOM     85  C4  BDP B   6      11.596   9.453  13.6750  0.00  0.00     0.000 C
ATOM     86  C5  BDP B   6      10.935   9.839  15.0200  0.00  0.00     0.000 C
ATOM     87  O5  BDP B   6      10.013   8.804  15.4910  0.00  0.00     0.000 O
ATOM     88   O  BDP B   6      12.064   5.908  14.8690  0.00  0.00     0.000 O
ATOM     90  HD  BDP B   6      12.830   5.529  14.7300  0.00  0.00     0.000 HD
ATOM     90   O  BDP B   6      12.762   7.593  12.6090  0.00  0.00     0.000 O
ATOM     92  HD  BDP B   6      13.528   7.214  12.4710  0.00  0.00     0.000 HD
BRANCH 86 92
ATOM     92   C  BDP B   6      10.054  11.053  14.8480  0.00  0.00     0.000 C
ATOM     93   O  BDP B   6      10.468  12.185  15.2430  0.00  0.00     0.000 OA
ATOM     94   O  BDP B   6       8.929  10.885  14.2840  0.00  0.00     0.000 OA
ENDBRANCH 86 92
BRANCH 82 95
ATOM     95  O3  NAG B   7       9.653   6.617  16.1550  0.00  0.00     0.000 O
BRANCH 95 98
ATOM     96  C1  NAG B   7       8.738   4.910  19.2510  0.00  0.00     0.000 C
ATOM     97  C2  NAG B   7       9.057   5.027  17.7670  0.00  0.00     0.000 C
ATOM     98  C3  NAG B   7       9.292   6.517  17.5320  0.00  0.00     0.000 C
ATOM     99  C4  NAG B   7       8.037   7.305  17.8970  0.00  0.00     0.000 C
ATOM    100  C5  NAG B   7       7.586   6.983  19.3230  0.00  0.00     0.000 C
ATOM    101  O5  NAG B   7       7.488   5.575  19.4680  0.00  0.00     0.000 O
BRANCH 97 104
ATOM    102   N  NAG B   7      10.288   4.473  17.1870  0.00  0.00     0.000 N
ATOM    104  HD  NAG B   7      10.999   4.369  16.7040  0.00  0.00     0.000 HD
ATOM    104   O  NAG B   7      11.570   2.990  16.0520  0.00  0.00     0.000 OA
ATOM    105   C  NAG B   7      10.469   3.302  16.5470  0.00  0.00     0.000 C
ATOM    106   C  NAG B   7       9.318   2.364  16.4150  0.00  0.00     0.000 C
ENDBRANCH 97 104
ATOM    107   O  NAG B   7       6.068   7.584  21.0080  0.00  0.00     0.000 O
ATOM    109  HD  NAG B   7       6.882   7.339  20.8420  0.00  0.00     0.000 HD
ATOM    109   O  NAG B   7       6.068   7.584  21.0080  0.00  0.00     0.000 O
ATOM    111  HD  NAG B   7       6.882   7.339  20.8420  0.00  0.00     0.000 HD
ENDBRANCH 95 98
ENDBRANCH 82 95
ENDBRANCH 81 85
ENDBRANCH 65 81
ENDBRANCH 64 67
ENDBRANCH 51 64
ENDBRANCH 50 54
ENDBRANCH 34 50
ENDBRANCH 33 36
ENDBRANCH 20 33
ENDBRANCH 19 23
ENDBRANCH 1 19
TORSDOF 19
ENDMDL
MODEL 21
REMARK VINA RESULT:      -6.3      5.619     17.153
ROOT
ATOM      1  C1  NAG B   1       9.985  23.082   4.7250  0.00  0.00     0.000 C
ATOM      2  C2  NAG B   1       9.181  23.686   3.5760  0.00  0.00     0.000 C
ATOM      3  C3  NAG B   1       9.946  23.642   2.2690  0.00  0.00     0.000 C
ATOM      4  C4  NAG B   1      11.244  24.398   2.5300  0.00  0.00     0.000 C
ATOM      5  C5  NAG B   1      12.052  23.655   3.6020  0.00  0.00     0.000 C
ATOM      6  O5  NAG B   1      11.325  23.585   4.8470  0.00  0.00     0.000 O
ATOM      7   O  NAG B   1       9.206  24.247   1.1840  0.00  0.00     0.000 O
ATOM      9  HD  NAG B   1       8.579  23.882   1.6570  0.00  0.00     0.000 HD
ATOM      9   O  NAG B   1      12.003  24.492   1.3360  0.00  0.00     0.000 O
ATOM     11  HD  NAG B   1      11.376  24.128   1.8090  0.00  0.00     0.000 HD
ATOM     11   C  NAG B   1      13.422  24.322   3.7810  0.00  0.00     0.000 C
ATOM     12   O  NAG B   1      13.915  24.143   5.1080  0.00  0.00     0.000 O
ATOM     14  HD  NAG B   1      13.288  23.779   5.5810  0.00  0.00     0.000 HD
ENDROOT
BRANCH 2 16
ATOM     14   N  NAG B   1       7.863  23.080   3.3160  0.00  0.00     0.000 N
ATOM     16  HD  NAG B   1       7.232  22.616   3.6870  0.00  0.00     0.000 HD
ATOM     16   C  NAG B   1       6.706  23.643   3.7040  0.00  0.00     0.000 C
ATOM     17   C  NAG B   1       6.721  24.942   4.4660  0.00  0.00     0.000 C
ATOM     18   O  NAG B   1       5.622  23.132   3.4250  0.00  0.00     0.000 OA
ENDBRANCH 2 16
BRANCH 1 19
ATOM     19  O4  BDP B   2       9.290  23.536   5.8790  0.00  0.00     0.000 O
BRANCH 19 23
ATOM     20  C1  BDP B   2      10.299  20.285   8.1920  0.00  0.00     0.000 C
ATOM     21  C2  BDP B   2       8.983  20.199   7.4480  0.00  0.00     0.000 C
ATOM     22  C3  BDP B   2       8.915  21.220   6.3350  0.00  0.00     0.000 C
ATOM     23  C4  BDP B   2       9.213  22.596   6.9230  0.00  0.00     0.000 C
ATOM     24  C5  BDP B   2      10.554  22.563   7.6300  0.00  0.00     0.000 C
ATOM     25  O5  BDP B   2      10.518  21.605   8.6700  0.00  0.00     0.000 O
ATOM     26   O  BDP B   2       8.805  18.904   6.9160  0.00  0.00     0.000 O
ATOM     28  HD  BDP B   2       9.480  18.767   7.4400  0.00  0.00     0.000 HD
ATOM     28   O  BDP B   2       7.618  21.165   5.7210  0.00  0.00     0.000 O
ATOM     30  HD  BDP B   2       8.294  21.029   6.2450  0.00  0.00     0.000 HD
BRANCH 24 30
ATOM     30   C  BDP B   2      10.902  23.874   8.2380  0.00  0.00     0.000 C
ATOM     31   O  BDP B   2      10.075  24.374   9.0350  0.00  0.00     0.000 OA
ATOM     32   O  BDP B   2      11.998  24.414   7.9160  0.00  0.00     0.000 OA
ENDBRANCH 24 30
BRANCH 20 33
ATOM     33  O3  NAG B   3      10.128  19.419   9.2870  0.00  0.00     0.000 O
BRANCH 33 36
ATOM     34  C1  NAG B   3      13.090  17.499  10.5890  0.00  0.00     0.000 C
ATOM     35  C2  NAG B   3      11.913  17.833   9.6920  0.00  0.00     0.000 C
ATOM     36  C3  NAG B   3      11.349  19.228  10.0060  0.00  0.00     0.000 C
ATOM     37  C4  NAG B   3      11.063  19.332  11.5020  0.00  0.00     0.000 C
ATOM     38  C5  NAG B   3      12.284  18.892  12.3060  0.00  0.00     0.000 C
ATOM     39  O5  NAG B   3      12.656  17.575  11.9390  0.00  0.00     0.000 O
ATOM     40   O  NAG B   3      10.728  20.686  11.8450  0.00  0.00     0.000 O
ATOM     42  HD  NAG B   3      11.370  20.570  12.4140  0.00  0.00     0.000 HD
ATOM     42   C  NAG B   3      12.044  18.841  13.8130  0.00  0.00     0.000 C
ATOM     43   O  NAG B   3      11.084  17.820  14.1110  0.00  0.00     0.000 O
ATOM     45  HD  NAG B   3      11.726  17.705  14.6810  0.00  0.00     0.000 HD
BRANCH 35 47
ATOM     45   N  NAG B   3      12.360  17.609   8.3240  0.00  0.00     0.000 N
ATOM     47  HD  NAG B   3      12.983  17.460   8.9070  0.00  0.00     0.000 HD
ATOM     47   C  NAG B   3      11.593  17.069   7.3980  0.00  0.00     0.000 C
ATOM     48   C  NAG B   3      12.217  16.890   6.0450  0.00  0.00     0.000 C
ATOM     49   O  NAG B   3      10.443  16.707   7.6340  0.00  0.00     0.000 OA
ENDBRANCH 35 47
BRANCH 34 50
ATOM     50  O4  BDP B   4      13.402  16.165  10.2470  0.00  0.00     0.000 O
BRANCH 50 54
ATOM     51  C1  BDP B   4      16.419  13.447   9.9880  0.00  0.00     0.000 C
ATOM     52  C2  BDP B   4      15.840  13.618  11.3880  0.00  0.00     0.000 C
ATOM     53  C3  BDP B   4      14.530  14.336  11.2810  0.00  0.00     0.000 C
ATOM     54  C4  BDP B   4      14.727  15.676  10.5160  0.00  0.00     0.000 C
ATOM     55  C5  BDP B   4      15.488  15.492   9.2100  0.00  0.00     0.000 C
ATOM     56  O5  BDP B   4      16.668  14.723   9.4260  0.00  0.00     0.000 O
ATOM     57   O  BDP B   4      15.635  12.358  11.9900  0.00  0.00     0.000 O
ATOM     59  HD  BDP B   4      16.291  12.273  12.5490  0.00  0.00     0.000 HD
ATOM     59   O  BDP B   4      14.112  14.649  12.6260  0.00  0.00     0.000 O
ATOM     61  HD  BDP B   4      14.768  14.565  13.1850  0.00  0.00     0.000 HD
BRANCH 55 61
ATOM     61   C  BDP B   4      15.873  16.852   8.6580  0.00  0.00     0.000 C
ATOM     62   O  BDP B   4      15.295  17.251   7.6140  0.00  0.00     0.000 OA
ATOM     63   O  BDP B   4      16.756  17.523   9.2750  0.00  0.00     0.000 OA
ENDBRANCH 55 61
BRANCH 51 64
ATOM     64  O3  NAG B   5      17.642  12.698  10.1190  0.00  0.00     0.000 O
BRANCH 64 67
ATOM     65  C1  NAG B   5      18.726  10.121   7.7160  0.00  0.00     0.000 C
ATOM     66  C2  NAG B   5      18.011  10.728   8.9110  0.00  0.00     0.000 C
ATOM     67  C3  NAG B   5      18.140  12.246   8.8750  0.00  0.00     0.000 C
ATOM     68  C4  NAG B   5      19.607  12.671   8.7260  0.00  0.00     0.000 C
ATOM     69  C5  NAG B   5      20.262  11.942   7.5640  0.00  0.00     0.000 C
ATOM     70  O5  NAG B   5      20.076  10.527   7.7060  0.00  0.00     0.000 O
ATOM     71   O  NAG B   5      19.656  14.070   8.5460  0.00  0.00     0.000 O
ATOM     73  HD  NAG B   5      20.323  13.996   9.0930  0.00  0.00     0.000 HD
ATOM     73   C  NAG B   5      21.767  12.210   7.4170  0.00  0.00     0.000 C
ATOM     74   O  NAG B   5      22.463  11.705   8.5760  0.00  0.00     0.000 O
ATOM     76  HD  NAG B   5      23.130  11.631   9.1230  0.00  0.00     0.000 HD
BRANCH 66 78
ATOM     76   N  NAG B   5      16.630  10.216   8.8180  0.00  0.00     0.000 N
ATOM     78  HD  NAG B   5      17.284  10.186   9.3850  0.00  0.00     0.000 HD
ATOM     78   C  NAG B   5      15.924   9.665   9.8180  0.00  0.00     0.000 C
ATOM     79   C  NAG B   5      14.533   9.256   9.4160  0.00  0.00     0.000 C
ATOM     80   O  NAG B   5      16.394   9.494  10.9990  0.00  0.00     0.000 OA
ENDBRANCH 66 78
BRANCH 65 81
ATOM     81  O4  BDP B   6      18.648   8.690   7.7690  0.00  0.00     0.000 O
BRANCH 81 85
ATOM     82  C1  BDP B   6      18.890   5.355   5.0900  0.00  0.00     0.000 C
ATOM     83  C2  BDP B   6      19.766   6.567   4.7880  0.00  0.00     0.000 C
ATOM     84  C3  BDP B   6      19.917   7.506   5.9880  0.00  0.00     0.000 C
ATOM     85  C4  BDP B   6      18.563   7.889   6.5890  0.00  0.00     0.000 C
ATOM     86  C5  BDP B   6      17.758   6.587   6.8160  0.00  0.00     0.000 C
ATOM     87  O5  BDP B   6      17.636   5.799   5.5890  0.00  0.00     0.000 O
ATOM     88   O  BDP B   6      21.041   6.037   4.4340  0.00  0.00     0.000 O
ATOM     90  HD  BDP B   6      21.884   6.184   4.5650  0.00  0.00     0.000 HD
ATOM     90   O  BDP B   6      20.651   8.670   5.5980  0.00  0.00     0.000 O
ATOM     92  HD  BDP B   6      21.494   8.816   5.7280  0.00  0.00     0.000 HD
BRANCH 86 92
ATOM     92   C  BDP B   6      16.329   6.904   7.1830  0.00  0.00     0.000 C
ATOM     93   O  BDP B   6      15.744   6.212   8.0700  0.00  0.00     0.000 OA
ATOM     94   O  BDP B   6      15.776   7.883   6.5920  0.00  0.00     0.000 OA
ENDBRANCH 86 92
BRANCH 82 95
ATOM     95  O3  NAG B   7      18.651   4.649   3.8570  0.00  0.00     0.000 O
BRANCH 95 98
ATOM     96  C1  NAG B   7      17.787   1.131   3.3920  0.00  0.00     0.000 C
ATOM     97  C2  NAG B   7      18.670   2.370   3.3210  0.00  0.00     0.000 C
ATOM     98  C3  NAG B   7      17.802   3.502   3.8650  0.00  0.00     0.000 C
ATOM     99  C4  NAG B   7      16.551   3.658   3.0040  0.00  0.00     0.000 C
ATOM    100  C5  NAG B   7      15.803   2.329   2.8840  0.00  0.00     0.000 C
ATOM    101  O5  NAG B   7      16.713   1.325   2.4640  0.00  0.00     0.000 O
BRANCH 97 104
ATOM    102   N  NAG B   7      19.875   2.312   4.1590  0.00  0.00     0.000 N
ATOM    104  HD  NAG B   7      20.451   2.460   4.7880  0.00  0.00     0.000 HD
ATOM    104   O  NAG B   7      22.073   2.531   4.6600  0.00  0.00     0.000 OA
ATOM    105   C  NAG B   7      21.154   2.563   3.8190  0.00  0.00     0.000 C
ATOM    106   C  NAG B   7      21.473   2.902   2.4030  0.00  0.00     0.000 C
ENDBRANCH 97 104
ATOM    107   O  NAG B   7      13.835   1.332   2.0840  0.00  0.00     0.000 O
ATOM    109  HD  NAG B   7      14.411   1.344   2.7310  0.00  0.00     0.000 HD
ATOM    109   O  NAG B   7      13.835   1.332   2.0840  0.00  0.00     0.000 O
ATOM    111  HD  NAG B   7      14.411   1.344   2.7310  0.00  0.00     0.000 HD
ENDBRANCH 95 98
ENDBRANCH 82 95
ENDBRANCH 81 85
ENDBRANCH 65 81
ENDBRANCH 64 67
ENDBRANCH 51 64
ENDBRANCH 50 54
ENDBRANCH 34 50
ENDBRANCH 33 36
ENDBRANCH 20 33
ENDBRANCH 19 23
ENDBRANCH 1 19
TORSDOF 19
ENDMDL
MODEL 22
REMARK VINA RESULT:      -6.2      7.300     16.998
ROOT
ATOM      1  C1  NAG B   1       7.995  22.770   7.9680  0.00  0.00     0.000 C
ATOM      2  C2  NAG B   1       6.633  22.165   7.6370  0.00  0.00     0.000 C
ATOM      3  C3  NAG B   1       5.588  22.528   8.6720  0.00  0.00     0.000 C
ATOM      4  C4  NAG B   1       6.139  22.025  10.0030  0.00  0.00     0.000 C
ATOM      5  C5  NAG B   1       7.438  22.776  10.3250  0.00  0.00     0.000 C
ATOM      6  O5  NAG B   1       8.441  22.539   9.3140  0.00  0.00     0.000 O
ATOM      7   O  NAG B   1       4.304  21.927   8.3860  0.00  0.00     0.000 O
ATOM      9  HD  NAG B   1       4.613  22.094   7.5940  0.00  0.00     0.000 HD
ATOM      9   O  NAG B   1       5.192  22.238  11.0360  0.00  0.00     0.000 O
ATOM     11  HD  NAG B   1       5.501  22.405  10.2440  0.00  0.00     0.000 HD
ATOM     11   C  NAG B   1       7.936  22.384  11.7220  0.00  0.00     0.000 C
ATOM     12   O  NAG B   1       9.356  22.490  11.8140  0.00  0.00     0.000 O
ATOM     14  HD  NAG B   1       9.665  22.657  11.0220  0.00  0.00     0.000 HD
ENDROOT
BRANCH 2 16
ATOM     14   N  NAG B   1       6.151  22.547   6.2980  0.00  0.00     0.000 N
ATOM     16  HD  NAG B   1       6.421  22.766   5.5040  0.00  0.00     0.000 HD
ATOM     16   C  NAG B   1       6.088  21.687   5.2670  0.00  0.00     0.000 C
ATOM     17   C  NAG B   1       6.547  20.265   5.4450  0.00  0.00     0.000 C
ATOM     18   O  NAG B   1       5.633  22.031   4.1760  0.00  0.00     0.000 OA
ENDBRANCH 2 16
BRANCH 1 19
ATOM     19  O4  BDP B   2       8.884  22.042   7.1310  0.00  0.00     0.000 O
BRANCH 19 23
ATOM     20  C1  BDP B   2      12.264  19.760   7.6850  0.00  0.00     0.000 C
ATOM     21  C2  BDP B   2      10.968  19.183   8.2140  0.00  0.00     0.000 C
ATOM     22  C3  BDP B   2       9.770  19.873   7.6020  0.00  0.00     0.000 C
ATOM     23  C4  BDP B   2       9.918  21.377   7.8150  0.00  0.00     0.000 C
ATOM     24  C5  BDP B   2      11.241  21.839   7.2370  0.00  0.00     0.000 C
ATOM     25  O5  BDP B   2      12.303  21.166   7.8850  0.00  0.00     0.000 O
ATOM     26   O  BDP B   2      10.905  17.798   7.9500  0.00  0.00     0.000 O
ATOM     28  HD  BDP B   2      11.735  17.956   7.7610  0.00  0.00     0.000 HD
ATOM     28   O  BDP B   2       8.570  19.359   8.2020  0.00  0.00     0.000 O
ATOM     30  HD  BDP B   2       9.400  19.518   8.0120  0.00  0.00     0.000 HD
BRANCH 24 30
ATOM     30   C  BDP B   2      11.455  23.299   7.4210  0.00  0.00     0.000 C
ATOM     31   O  BDP B   2      11.605  23.992   6.3880  0.00  0.00     0.000 OA
ATOM     32   O  BDP B   2      11.482  23.759   8.5980  0.00  0.00     0.000 OA
ENDBRANCH 24 30
BRANCH 20 33
ATOM     33  O3  NAG B   3      13.256  19.153   8.4770  0.00  0.00     0.000 O
BRANCH 33 36
ATOM     34  C1  NAG B   3      16.569  17.952   7.1610  0.00  0.00     0.000 C
ATOM     35  C2  NAG B   3      15.115  17.882   7.5870  0.00  0.00     0.000 C
ATOM     36  C3  NAG B   3      14.553  19.280   7.8890  0.00  0.00     0.000 C
ATOM     37  C4  NAG B   3      15.475  19.993   8.8760  0.00  0.00     0.000 C
ATOM     38  C5  NAG B   3      16.920  19.929   8.3910  0.00  0.00     0.000 C
ATOM     39  O5  NAG B   3      17.307  18.578   8.2000  0.00  0.00     0.000 O
ATOM     40   O  NAG B   3      15.078  21.366   9.0150  0.00  0.00     0.000 O
ATOM     42  HD  NAG B   3      15.908  21.498   8.8080  0.00  0.00     0.000 HD
ATOM     42   C  NAG B   3      17.930  20.504   9.3810  0.00  0.00     0.000 C
ATOM     43   O  NAG B   3      17.956  19.694  10.5630  0.00  0.00     0.000 O
ATOM     45  HD  NAG B   3      18.786  19.827  10.3570  0.00  0.00     0.000 HD
BRANCH 35 47
ATOM     45   N  NAG B   3      14.423  16.603   7.6790  0.00  0.00     0.000 N
ATOM     47  HD  NAG B   3      14.590  16.949   8.4560  0.00  0.00     0.000 HD
ATOM     47   C  NAG B   3      13.477  16.237   6.8380  0.00  0.00     0.000 C
ATOM     48   C  NAG B   3      12.853  14.895   7.0870  0.00  0.00     0.000 C
ATOM     49   O  NAG B   3      13.107  16.963   5.9170  0.00  0.00     0.000 OA
ENDBRANCH 35 47
BRANCH 34 50
ATOM     50  O4  BDP B   4      16.946  16.597   7.0370  0.00  0.00     0.000 O
BRANCH 50 54
ATOM     51  C1  BDP B   4      19.354  13.992   5.0440  0.00  0.00     0.000 C
ATOM     52  C2  BDP B   4      20.084  14.908   6.0200  0.00  0.00     0.000 C
ATOM     53  C3  BDP B   4      19.078  15.532   6.9370  0.00  0.00     0.000 C
ATOM     54  C4  BDP B   4      17.982  16.253   6.1010  0.00  0.00     0.000 C
ATOM     55  C5  BDP B   4      17.414  15.365   5.0010  0.00  0.00     0.000 C
ATOM     56  O5  BDP B   4      18.467  14.763   4.2540  0.00  0.00     0.000 O
ATOM     57   O  BDP B   4      21.016  14.169   6.7820  0.00  0.00     0.000 O
ATOM     59  HD  BDP B   4      21.784  14.357   6.4290  0.00  0.00     0.000 HD
ATOM     59   O  BDP B   4      19.776  16.530   7.7100  0.00  0.00     0.000 O
ATOM     61  HD  BDP B   4      20.544  16.718   7.3570  0.00  0.00     0.000 HD
BRANCH 55 61
ATOM     61   C  BDP B   4      16.559  16.206   4.0710  0.00  0.00     0.000 C
ATOM     62   O  BDP B   4      15.387  15.814   3.8290  0.00  0.00     0.000 OA
ATOM     63   O  BDP B   4      17.063  17.263   3.5820  0.00  0.00     0.000 OA
ENDBRANCH 55 61
BRANCH 51 64
ATOM     64  O3  NAG B   5      20.354  13.360   4.2220  0.00  0.00     0.000 O
BRANCH 64 67
ATOM     65  C1  NAG B   5      19.819   9.850   3.2280  0.00  0.00     0.000 C
ATOM     66  C2  NAG B   5      20.146  11.031   4.1260  0.00  0.00     0.000 C
ATOM     67  C3  NAG B   5      19.820  12.334   3.4080  0.00  0.00     0.000 C
ATOM     68  C4  NAG B   5      20.482  12.382   2.0240  0.00  0.00     0.000 C
ATOM     69  C5  NAG B   5      20.174  11.119   1.2360  0.00  0.00     0.000 C
ATOM     70  O5  NAG B   5      20.522   9.962   2.0110  0.00  0.00     0.000 O
ATOM     71   O  NAG B   5      20.027  13.533   1.3450  0.00  0.00     0.000 O
ATOM     73  HD  NAG B   5      20.862  13.583   1.1210  0.00  0.00     0.000 HD
ATOM     73   C  NAG B   5      20.900  11.022  -0.1130  0.00  0.00     0.000 C
ATOM     74   O  NAG B   5      22.324  10.951   0.1080  0.00  0.00     0.000 O
ATOM     76  HD  NAG B   5      23.159  11.001  -0.1160  0.00  0.00     0.000 HD
BRANCH 66 78
ATOM     76   N  NAG B   5      19.368  10.809   5.3600  0.00  0.00     0.000 N
ATOM     78  HD  NAG B   5      20.202  10.881   5.1360  0.00  0.00     0.000 HD
ATOM     78   C  NAG B   5      19.846  10.856   6.6130  0.00  0.00     0.000 C
ATOM     79   C  NAG B   5      18.800  10.604   7.6640  0.00  0.00     0.000 C
ATOM     80   O  NAG B   5      21.078  11.086   6.8880  0.00  0.00     0.000 OA
ENDBRANCH 66 78
BRANCH 65 81
ATOM     81  O4  BDP B   6      20.168   8.623   3.8800  0.00  0.00     0.000 O
BRANCH 81 85
ATOM     82  C1  BDP B   6      19.014   4.497   3.9920  0.00  0.00     0.000 C
ATOM     83  C2  BDP B   6      19.515   5.054   2.6620  0.00  0.00     0.000 C
ATOM     84  C3  BDP B   6      20.271   6.376   2.8170  0.00  0.00     0.000 C
ATOM     85  C4  BDP B   6      19.471   7.401   3.6250  0.00  0.00     0.000 C
ATOM     86  C5  BDP B   6      18.992   6.712   4.9250  0.00  0.00     0.000 C
ATOM     87  O5  BDP B   6      18.237   5.489   4.6480  0.00  0.00     0.000 O
ATOM     88   O  BDP B   6      20.393   4.061   2.1410  0.00  0.00     0.000 O
ATOM     90  HD  BDP B   6      21.158   3.990   1.7400  0.00  0.00     0.000 HD
ATOM     90   O  BDP B   6      20.607   6.891   1.5270  0.00  0.00     0.000 O
ATOM     92  HD  BDP B   6      21.371   6.820   1.1250  0.00  0.00     0.000 HD
BRANCH 86 92
ATOM     92   C  BDP B   6      18.002   7.588   5.6540  0.00  0.00     0.000 C
ATOM     93   O  BDP B   6      17.894   7.493   6.9140  0.00  0.00     0.000 OA
ATOM     94   O  BDP B   6      17.326   8.411   4.9620  0.00  0.00     0.000 OA
ENDBRANCH 86 92
BRANCH 82 95
ATOM     95  O3  NAG B   7      18.156   3.372   3.7190  0.00  0.00     0.000 O
BRANCH 95 98
ATOM     96  C1  NAG B   7      17.372  -0.029   4.7950  0.00  0.00     0.000 C
ATOM     97  C2  NAG B   7      17.165   1.274   4.0350  0.00  0.00     0.000 C
ATOM     98  C3  NAG B   7      18.315   2.176   4.4790  0.00  0.00     0.000 C
ATOM     99  C4  NAG B   7      18.250   2.393   5.9890  0.00  0.00     0.000 C
ATOM    100  C5  NAG B   7      18.209   1.057   6.7320  0.00  0.00     0.000 C
ATOM    101  O5  NAG B   7      17.173   0.258   6.1840  0.00  0.00     0.000 O
BRANCH 97 104
ATOM    102   N  NAG B   7      17.312   1.301   2.5730  0.00  0.00     0.000 N
ATOM    104  HD  NAG B   7      17.542   1.531   1.7700  0.00  0.00     0.000 HD
ATOM    104   O  NAG B   7      16.639   1.465   0.4170  0.00  0.00     0.000 OA
ATOM    105   C  NAG B   7      16.356   1.393   1.6290  0.00  0.00     0.000 C
ATOM    106   C  NAG B   7      14.926   1.424   2.0470  0.00  0.00     0.000 C
ENDBRANCH 97 104
ATOM    107   O  NAG B   7      18.281   0.074   8.8610  0.00  0.00     0.000 O
ATOM    109  HD  NAG B   7      18.540   0.001   8.0370  0.00  0.00     0.000 HD
ATOM    109   O  NAG B   7      18.281   0.074   8.8610  0.00  0.00     0.000 O
ATOM    111  HD  NAG B   7      18.540   0.001   8.0370  0.00  0.00     0.000 HD
ENDBRANCH 95 98
ENDBRANCH 82 95
ENDBRANCH 81 85
ENDBRANCH 65 81
ENDBRANCH 64 67
ENDBRANCH 51 64
ENDBRANCH 50 54
ENDBRANCH 34 50
ENDBRANCH 33 36
ENDBRANCH 20 33
ENDBRANCH 19 23
ENDBRANCH 1 19
TORSDOF 19
ENDMDL
MODEL 23
REMARK VINA RESULT:      -6.2      5.687     16.112
ROOT
ATOM      1  C1  NAG B   1      17.705  19.677   0.7730  0.00  0.00     0.000 C
ATOM      2  C2  NAG B   1      17.376  21.167   0.8320  0.00  0.00     0.000 C
ATOM      3  C3  NAG B   1      18.525  22.018   0.3320  0.00  0.00     0.000 C
ATOM      4  C4  NAG B   1      19.718  21.650   1.2090  0.00  0.00     0.000 C
ATOM      5  C5  NAG B   1      20.065  20.172   0.9910  0.00  0.00     0.000 C
ATOM      6  O5  NAG B   1      18.963  19.318   1.3650  0.00  0.00     0.000 O
ATOM      7   O  NAG B   1      18.236  23.432   0.4210  0.00  0.00     0.000 O
ATOM      9  HD  NAG B   1      17.461  23.094   0.2310  0.00  0.00     0.000 HD
ATOM      9   O  NAG B   1      20.834  22.459   0.8780  0.00  0.00     0.000 O
ATOM     11  HD  NAG B   1      20.060  22.122   0.6880  0.00  0.00     0.000 HD
ATOM     11   C  NAG B   1      21.345  19.816   1.7580  0.00  0.00     0.000 C
ATOM     12   O  NAG B   1      21.355  18.442   2.1390  0.00  0.00     0.000 O
ATOM     14  HD  NAG B   1      20.580  18.104   1.9490  0.00  0.00     0.000 HD
ENDROOT
BRANCH 2 16
ATOM     14   N  NAG B   1      16.066  21.238   0.1620  0.00  0.00     0.000 N
ATOM     16  HD  NAG B   1      15.276  20.884   0.1530  0.00  0.00     0.000 HD
ATOM     16   C  NAG B   1      15.003  21.869   0.6910  0.00  0.00     0.000 C
ATOM     17   C  NAG B   1      15.113  22.521   2.0440  0.00  0.00     0.000 C
ATOM     18   O  NAG B   1      13.939  21.950   0.0780  0.00  0.00     0.000 OA
ENDBRANCH 2 16
BRANCH 1 19
ATOM     19  O4  BDP B   2      16.704  19.092   1.5960  0.00  0.00     0.000 O
BRANCH 19 23
ATOM     20  C1  BDP B   2      16.654  16.807   5.0190  0.00  0.00     0.000 C
ATOM     21  C2  BDP B   2      17.154  18.230   5.1660  0.00  0.00     0.000 C
ATOM     22  C3  BDP B   2      16.742  19.080   3.9860  0.00  0.00     0.000 C
ATOM     23  C4  BDP B   2      17.200  18.385   2.7070  0.00  0.00     0.000 C
ATOM     24  C5  BDP B   2      16.631  16.980   2.6650  0.00  0.00     0.000 C
ATOM     25  O5  BDP B   2      17.090  16.250   3.7870  0.00  0.00     0.000 O
ATOM     26   O  BDP B   2      16.660  18.801   6.3590  0.00  0.00     0.000 O
ATOM     28  HD  BDP B   2      16.451  17.970   6.4840  0.00  0.00     0.000 HD
ATOM     28   O  BDP B   2      17.316  20.390   4.1230  0.00  0.00     0.000 O
ATOM     30  HD  BDP B   2      17.107  19.559   4.2490  0.00  0.00     0.000 HD
BRANCH 24 30
ATOM     30   C  BDP B   2      17.050  16.241   1.4450  0.00  0.00     0.000 C
ATOM     31   O  BDP B   2      18.262  15.943   1.3420  0.00  0.00     0.000 OA
ATOM     32   O  BDP B   2      16.171  15.961   0.5810  0.00  0.00     0.000 OA
ENDBRANCH 24 30
BRANCH 20 33
ATOM     33  O3  NAG B   3      17.269  16.119   6.0810  0.00  0.00     0.000 O
BRANCH 33 36
ATOM     34  C1  NAG B   3      15.646  13.118   7.6660  0.00  0.00     0.000 C
ATOM     35  C2  NAG B   3      15.967  14.581   7.4230  0.00  0.00     0.000 C
ATOM     36  C3  NAG B   3      16.824  14.763   6.1600  0.00  0.00     0.000 C
ATOM     37  C4  NAG B   3      18.042  13.846   6.2400  0.00  0.00     0.000 C
ATOM     38  C5  NAG B   3      17.611  12.420   6.5720  0.00  0.00     0.000 C
ATOM     39  O5  NAG B   3      16.871  12.409   7.7820  0.00  0.00     0.000 O
ATOM     40   O  NAG B   3      18.744  13.853   4.9870  0.00  0.00     0.000 O
ATOM     42  HD  NAG B   3      18.634  12.998   5.0620  0.00  0.00     0.000 HD
ATOM     42   C  NAG B   3      18.776  11.461   6.8000  0.00  0.00     0.000 C
ATOM     43   O  NAG B   3      19.499  11.855   7.9720  0.00  0.00     0.000 O
ATOM     45  HD  NAG B   3      19.389  10.999   8.0470  0.00  0.00     0.000 HD
BRANCH 35 47
ATOM     45   N  NAG B   3      15.596  15.719   8.2540  0.00  0.00     0.000 N
ATOM     47  HD  NAG B   3      16.454  15.639   8.1610  0.00  0.00     0.000 HD
ATOM     47   C  NAG B   3      14.547  16.478   8.0050  0.00  0.00     0.000 C
ATOM     48   C  NAG B   3      14.320  17.622   8.9480  0.00  0.00     0.000 C
ATOM     49   O  NAG B   3      13.812  16.277   7.0410  0.00  0.00     0.000 OA
ENDBRANCH 35 47
BRANCH 34 50
ATOM     50  O4  BDP B   4      14.964  13.127   8.9030  0.00  0.00     0.000 O
BRANCH 50 54
ATOM     51  C1  BDP B   4      13.282  10.792  11.7790  0.00  0.00     0.000 C
ATOM     52  C2  BDP B   4      14.807  10.788  11.7730  0.00  0.00     0.000 C
ATOM     53  C3  BDP B   4      15.286  11.942  10.9480  0.00  0.00     0.000 C
ATOM     54  C4  BDP B   4      14.654  11.870   9.5280  0.00  0.00     0.000 C
ATOM     55  C5  BDP B   4      13.145  11.673   9.5750  0.00  0.00     0.000 C
ATOM     56  O5  BDP B   4      12.810  10.605  10.4570  0.00  0.00     0.000 O
ATOM     57   O  BDP B   4      15.302  10.918  13.0890  0.00  0.00     0.000 O
ATOM     59  HD  BDP B   4      15.556  10.119  13.3060  0.00  0.00     0.000 HD
ATOM     59   O  BDP B   4      16.714  11.793  10.8060  0.00  0.00     0.000 O
ATOM     61  HD  BDP B   4      16.968  10.994  11.0240  0.00  0.00     0.000 HD
BRANCH 55 61
ATOM     61   C  BDP B   4      12.639  11.347   8.1810  0.00  0.00     0.000 C
ATOM     62   O  BDP B   4      11.833  12.150   7.6420  0.00  0.00     0.000 OA
ATOM     63   O  BDP B   4      13.052  10.283   7.6260  0.00  0.00     0.000 OA
ENDBRANCH 55 61
BRANCH 51 64
ATOM     64  O3  NAG B   5      12.856   9.712  12.6310  0.00  0.00     0.000 O
BRANCH 64 67
ATOM     65  C1  NAG B   5       9.864   9.718  14.7860  0.00  0.00     0.000 C
ATOM     66  C2  NAG B   5      11.315   9.912  14.3820  0.00  0.00     0.000 C
ATOM     67  C3  NAG B   5      11.463   9.731  12.8770  0.00  0.00     0.000 C
ATOM     68  C4  NAG B   5      10.846   8.402  12.4190  0.00  0.00     0.000 C
ATOM     69  C5  NAG B   5       9.428   8.257  12.9480  0.00  0.00     0.000 C
ATOM     70  O5  NAG B   5       9.415   8.448  14.3710  0.00  0.00     0.000 O
ATOM     71   O  NAG B   5      10.873   8.354  11.0090  0.00  0.00     0.000 O
ATOM     73  HD  NAG B   5      11.115   7.537  11.1620  0.00  0.00     0.000 HD
ATOM     73   C  NAG B   5       8.775   6.901  12.6460  0.00  0.00     0.000 C
ATOM     74   O  NAG B   5       9.503   5.853  13.3200  0.00  0.00     0.000 O
ATOM     76  HD  NAG B   5       9.745   5.036  13.4730  0.00  0.00     0.000 HD
BRANCH 66 78
ATOM     76   N  NAG B   5      12.280  10.328  15.4180  0.00  0.00     0.000 N
ATOM     78  HD  NAG B   5      11.932  10.665  14.7000  0.00  0.00     0.000 HD
ATOM     78   C  NAG B   5      12.761  11.569  15.5960  0.00  0.00     0.000 C
ATOM     79   C  NAG B   5      13.717  11.681  16.7530  0.00  0.00     0.000 C
ATOM     80   O  NAG B   5      12.443  12.560  14.8470  0.00  0.00     0.000 OA
ENDBRANCH 66 78
BRANCH 65 81
ATOM     81  O4  BDP B   6       9.727   9.842  16.2080  0.00  0.00     0.000 O
BRANCH 81 85
ATOM     82  C1  BDP B   6       6.938  11.236  19.1470  0.00  0.00     0.000 C
ATOM     83  C2  BDP B   6       6.485  10.108  18.2250  0.00  0.00     0.000 C
ATOM     84  C3  BDP B   6       7.652   9.418  17.5120  0.00  0.00     0.000 C
ATOM     85  C4  BDP B   6       8.569  10.423  16.8120  0.00  0.00     0.000 C
ATOM     86  C5  BDP B   6       8.929  11.529  17.8330  0.00  0.00     0.000 C
ATOM     87  O5  BDP B   6       7.735  12.150  18.4080  0.00  0.00     0.000 O
ATOM     88   O  BDP B   6       5.821   9.171  19.0680  0.00  0.00     0.000 O
ATOM     90  HD  BDP B   6       5.755   8.317  19.1940  0.00  0.00     0.000 HD
ATOM     90   O  BDP B   6       7.145   8.455  16.5840  0.00  0.00     0.000 O
ATOM     92  HD  BDP B   6       7.079   7.601  16.7100  0.00  0.00     0.000 HD
BRANCH 86 92
ATOM     92   C  BDP B   6       9.635  12.674  17.1470  0.00  0.00     0.000 C
ATOM     93   O  BDP B   6      10.584  13.268  17.7410  0.00  0.00     0.000 OA
ATOM     94   O  BDP B   6       9.252  12.980  15.9750  0.00  0.00     0.000 OA
ENDBRANCH 86 92
BRANCH 82 95
ATOM     95  O3  NAG B   7       5.769  11.941  19.6090  0.00  0.00     0.000 O
BRANCH 95 98
ATOM     96  C1  NAG B   7       4.336  12.855  22.8420  0.00  0.00     0.000 C
ATOM     97  C2  NAG B   7       4.327  12.328  21.4130  0.00  0.00     0.000 C
ATOM     98  C3  NAG B   7       5.764  12.492  20.9250  0.00  0.00     0.000 C
ATOM     99  C4  NAG B   7       6.165  13.965  20.9760  0.00  0.00     0.000 C
ATOM    100  C5  NAG B   7       5.931  14.547  22.3710  0.00  0.00     0.000 C
ATOM    101  O5  NAG B   7       4.600  14.260  22.7710  0.00  0.00     0.000 O
BRANCH 97 104
ATOM    102   N  NAG B   7       4.019  10.900  21.2600  0.00  0.00     0.000 N
ATOM    104  HD  NAG B   7       4.086  10.055  21.0790  0.00  0.00     0.000 HD
ATOM    104   O  NAG B   7       2.949   9.078  20.4430  0.00  0.00     0.000 OA
ATOM    105   C  NAG B   7       3.053  10.318  20.5240  0.00  0.00     0.000 C
ATOM    106   C  NAG B   7       2.094  11.179  19.7760  0.00  0.00     0.000 C
ENDBRANCH 97 104
ATOM    107   O  NAG B   7       6.268  16.443  23.7100  0.00  0.00     0.000 O
ATOM    109  HD  NAG B   7       6.268  15.577  23.6950  0.00  0.00     0.000 HD
ATOM    109   O  NAG B   7       6.268  16.443  23.7100  0.00  0.00     0.000 O
ATOM    111  HD  NAG B   7       6.268  15.577  23.6950  0.00  0.00     0.000 HD
ENDBRANCH 95 98
ENDBRANCH 82 95
ENDBRANCH 81 85
ENDBRANCH 65 81
ENDBRANCH 64 67
ENDBRANCH 51 64
ENDBRANCH 50 54
ENDBRANCH 34 50
ENDBRANCH 33 36
ENDBRANCH 20 33
ENDBRANCH 19 23
ENDBRANCH 1 19
TORSDOF 19
ENDMDL
MODEL 24
REMARK VINA RESULT:      -6.1      3.352      4.191
ROOT
ATOM      1  C1  NAG B   1      10.477   3.974  15.3900  0.00  0.00     0.000 C
ATOM      2  C2  NAG B   1      10.694   2.531  15.8350  0.00  0.00     0.000 C
ATOM      3  C3  NAG B   1       9.472   1.965  16.5290  0.00  0.00     0.000 C
ATOM      4  C4  NAG B   1       9.199   2.900  17.7030  0.00  0.00     0.000 C
ATOM      5  C5  NAG B   1       8.861   4.297  17.1650  0.00  0.00     0.000 C
ATOM      6  O5  NAG B   1       9.963   4.845  16.4100  0.00  0.00     0.000 O
ATOM      7   O  NAG B   1       9.684   0.610  16.9880  0.00  0.00     0.000 O
ATOM      9  HD  NAG B   1      10.142   0.632  16.2530  0.00  0.00     0.000 HD
ATOM      9   O  NAG B   1       8.118   2.409  18.4770  0.00  0.00     0.000 O
ATOM     11  HD  NAG B   1       8.576   2.431  17.7430  0.00  0.00     0.000 HD
ATOM     11   C  NAG B   1       8.450   5.217  18.3200  0.00  0.00     0.000 C
ATOM     12   O  NAG B   1       8.760   6.580  18.0320  0.00  0.00     0.000 O
ATOM     14  HD  NAG B   1       9.217   6.602  17.2970  0.00  0.00     0.000 HD
ENDROOT
BRANCH 2 16
ATOM     14   N  NAG B   1      11.067   1.593  14.7610  0.00  0.00     0.000 N
ATOM     16  HD  NAG B   1      11.434   1.553  13.9770  0.00  0.00     0.000 HD
ATOM     16   C  NAG B   1      12.318   1.133  14.5890  0.00  0.00     0.000 C
ATOM     17   C  NAG B   1      13.421   1.596  15.5020  0.00  0.00     0.000 C
ATOM     18   O  NAG B   1      12.581   0.312  13.7110  0.00  0.00     0.000 OA
ENDBRANCH 2 16
BRANCH 1 19
ATOM     19  O4  BDP B   2      11.795   4.430  15.1140  0.00  0.00     0.000 O
BRANCH 19 23
ATOM     20  C1  BDP B   2      12.410   7.139  12.0770  0.00  0.00     0.000 C
ATOM     21  C2  BDP B   2      11.082   6.410  12.0700  0.00  0.00     0.000 C
ATOM     22  C3  BDP B   2      10.795   5.781  13.4140  0.00  0.00     0.000 C
ATOM     23  C4  BDP B   2      11.986   4.911  13.8050  0.00  0.00     0.000 C
ATOM     24  C5  BDP B   2      13.249   5.748  13.7890  0.00  0.00     0.000 C
ATOM     25  O5  BDP B   2      13.455   6.271  12.4900  0.00  0.00     0.000 O
ATOM     26   O  BDP B   2      10.039   7.296  11.7260  0.00  0.00     0.000 O
ATOM     28  HD  BDP B   2      10.729   7.781  11.5290  0.00  0.00     0.000 HD
ATOM     28   O  BDP B   2       9.577   5.025  13.3330  0.00  0.00     0.000 O
ATOM     30  HD  BDP B   2      10.267   5.510  13.1350  0.00  0.00     0.000 HD
BRANCH 24 30
ATOM     30   C  BDP B   2      14.454   4.955  14.1510  0.00  0.00     0.000 C
ATOM     31   O  BDP B   2      15.013   5.225  15.2390  0.00  0.00     0.000 OA
ATOM     32   O  BDP B   2      14.851   4.065  13.3470  0.00  0.00     0.000 OA
ENDBRANCH 24 30
BRANCH 20 33
ATOM     33  O3  NAG B   3      12.610   7.496  10.7310  0.00  0.00     0.000 O
BRANCH 33 36
ATOM     34  C1  NAG B   3      14.013  10.883   9.8900  0.00  0.00     0.000 C
ATOM     35  C2  NAG B   3      12.972   9.842  10.2540  0.00  0.00     0.000 C
ATOM     36  C3  NAG B   3      13.625   8.493  10.5940  0.00  0.00     0.000 C
ATOM     37  C4  NAG B   3      14.566   8.088   9.4620  0.00  0.00     0.000 C
ATOM     38  C5  NAG B   3      15.511   9.237   9.1220  0.00  0.00     0.000 C
ATOM     39  O5  NAG B   3      14.764  10.394   8.7870  0.00  0.00     0.000 O
ATOM     40   O  NAG B   3      15.333   6.937   9.8500  0.00  0.00     0.000 O
ATOM     42  HD  NAG B   3      15.991   7.456   9.6310  0.00  0.00     0.000 HD
ATOM     42   C  NAG B   3      16.402   8.966   7.9120  0.00  0.00     0.000 C
ATOM     43   O  NAG B   3      15.592   8.862   6.7350  0.00  0.00     0.000 O
ATOM     45  HD  NAG B   3      16.250   9.381   6.5160  0.00  0.00     0.000 HD
BRANCH 35 47
ATOM     45   N  NAG B   3      12.149  10.243  11.3880  0.00  0.00     0.000 N
ATOM     47  HD  NAG B   3      12.874  10.713  11.3190  0.00  0.00     0.000 HD
ATOM     47   C  NAG B   3      10.832  10.272  11.3440  0.00  0.00     0.000 C
ATOM     48   C  NAG B   3      10.139  10.729  12.5930  0.00  0.00     0.000 C
ATOM     49   O  NAG B   3      10.208   9.968  10.3300  0.00  0.00     0.000 OA
ENDBRANCH 35 47
BRANCH 34 50
ATOM     50  O4  BDP B   4      13.245  12.003   9.5040  0.00  0.00     0.000 O
BRANCH 50 54
ATOM     51  C1  BDP B   4      12.994  16.032  10.0150  0.00  0.00     0.000 C
ATOM     52  C2  BDP B   4      13.635  15.601   8.7010  0.00  0.00     0.000 C
ATOM     53  C3  BDP B   4      13.331  14.152   8.4720  0.00  0.00     0.000 C
ATOM     54  C4  BDP B   4      13.795  13.317   9.7000  0.00  0.00     0.000 C
ATOM     55  C5  BDP B   4      13.296  13.897  11.0170  0.00  0.00     0.000 C
ATOM     56  O5  BDP B   4      13.567  15.295  11.0800  0.00  0.00     0.000 O
ATOM     57   O  BDP B   4      13.118  16.362   7.6310  0.00  0.00     0.000 O
ATOM     59  HD  BDP B   4      13.741  16.936   7.4510  0.00  0.00     0.000 HD
ATOM     59   O  BDP B   4      14.109  13.735   7.3310  0.00  0.00     0.000 O
ATOM     61  HD  BDP B   4      14.732  14.309   7.1510  0.00  0.00     0.000 HD
BRANCH 55 61
ATOM     61   C  BDP B   4      13.998  13.200  12.1680  0.00  0.00     0.000 C
ATOM     62   O  BDP B   4      13.293  12.540  12.9770  0.00  0.00     0.000 OA
ATOM     63   O  BDP B   4      15.258  13.313  12.2610  0.00  0.00     0.000 OA
ENDBRANCH 55 61
BRANCH 51 64
ATOM     64  O3  NAG B   5      13.250  17.441  10.1740  0.00  0.00     0.000 O
BRANCH 64 67
ATOM     65  C1  NAG B   5      10.912  20.027  11.3740  0.00  0.00     0.000 C
ATOM     66  C2  NAG B   5      11.683  19.166  10.3870  0.00  0.00     0.000 C
ATOM     67  C3  NAG B   5      12.399  18.044  11.1280  0.00  0.00     0.000 C
ATOM     68  C4  NAG B   5      13.242  18.599  12.2850  0.00  0.00     0.000 C
ATOM     69  C5  NAG B   5      12.410  19.521  13.1630  0.00  0.00     0.000 C
ATOM     70  O5  NAG B   5      11.787  20.532  12.3570  0.00  0.00     0.000 O
ATOM     71   O  NAG B   5      13.758  17.515  13.0280  0.00  0.00     0.000 O
ATOM     73  HD  NAG B   5      14.471  18.007  13.0220  0.00  0.00     0.000 HD
ATOM     73   C  NAG B   5      13.204  20.222  14.2740  0.00  0.00     0.000 C
ATOM     74   O  NAG B   5      14.186  21.100  13.6850  0.00  0.00     0.000 O
ATOM     76  HD  NAG B   5      14.899  21.593  13.6800  0.00  0.00     0.000 HD
BRANCH 66 78
ATOM     76   N  NAG B   5      10.643  18.794   9.4090  0.00  0.00     0.000 N
ATOM     78  HD  NAG B   5      11.429  19.158   9.3960  0.00  0.00     0.000 HD
ATOM     78   C  NAG B   5      10.787  18.773   8.0740  0.00  0.00     0.000 C
ATOM     79   C  NAG B   5       9.548  18.330   7.3440  0.00  0.00     0.000 C
ATOM     80   O  NAG B   5      11.873  19.107   7.4790  0.00  0.00     0.000 OA
ENDBRANCH 66 78
BRANCH 65 81
ATOM     81  O4  BDP B   6      10.274  21.112  10.6870  0.00  0.00     0.000 O
BRANCH 81 85
ATOM     82  C1  BDP B   6       6.862  23.682  11.0240  0.00  0.00     0.000 C
ATOM     83  C2  BDP B   6       7.961  23.828  12.0730  0.00  0.00     0.000 C
ATOM     84  C3  BDP B   6       9.281  23.182  11.6440  0.00  0.00     0.000 C
ATOM     85  C4  BDP B   6       9.088  21.735  11.1860  0.00  0.00     0.000 C
ATOM     86  C5  BDP B   6       7.932  21.712  10.1580  0.00  0.00     0.000 C
ATOM     87  O5  BDP B   6       6.709  22.308  10.6980  0.00  0.00     0.000 O
ATOM     88   O  BDP B   6       8.147  25.231  12.2350  0.00  0.00     0.000 O
ATOM     90  HD  BDP B   6       8.781  25.814  12.3260  0.00  0.00     0.000 HD
ATOM     90   O  BDP B   6      10.223  23.258  12.7170  0.00  0.00     0.000 O
ATOM     92  HD  BDP B   6      10.857  23.841  12.8080  0.00  0.00     0.000 HD
BRANCH 86 92
ATOM     92   C  BDP B   6       7.531  20.291   9.8430  0.00  0.00     0.000 C
ATOM     93   O  BDP B   6       7.726  19.382  10.7060  0.00  0.00     0.000 OA
ATOM     94   O  BDP B   6       6.987  20.071   8.7170  0.00  0.00     0.000 OA
ENDBRANCH 86 92
BRANCH 82 95
ATOM     95  O3  NAG B   7       5.622  24.140  11.5990  0.00  0.00     0.000 O
BRANCH 95 98
ATOM     96  C1  NAG B   7       2.959  26.455  10.6570  0.00  0.00     0.000 C
ATOM     97  C2  NAG B   7       3.973  25.803  11.5870  0.00  0.00     0.000 C
ATOM     98  C3  NAG B   7       4.629  24.708  10.7470  0.00  0.00     0.000 C
ATOM     99  C4  NAG B   7       3.573  23.708  10.2830  0.00  0.00     0.000 C
ATOM    100  C5  NAG B   7       2.428  24.419   9.5600  0.00  0.00     0.000 C
ATOM    101  O5  NAG B   7       1.952  25.475  10.3790  0.00  0.00     0.000 O
BRANCH 97 104
ATOM    102   N  NAG B   7       5.076  26.663  12.0380  0.00  0.00     0.000 N
ATOM    104  HD  NAG B   7       5.866  26.993  12.1670  0.00  0.00     0.000 HD
ATOM    104   O  NAG B   7       6.457  27.666  13.5270  0.00  0.00     0.000 OA
ATOM    105   C  NAG B   7       5.454  26.962  13.2950  0.00  0.00     0.000 C
ATOM    106   C  NAG B   7       4.661  26.425  14.4370  0.00  0.00     0.000 C
ENDBRANCH 97 104
ATOM    107   O  NAG B   7       0.469  24.069   8.3170  0.00  0.00     0.000 O
ATOM    109  HD  NAG B   7       1.180  24.557   8.3960  0.00  0.00     0.000 HD
ATOM    109   O  NAG B   7       0.469  24.069   8.3170  0.00  0.00     0.000 O
ATOM    111  HD  NAG B   7       1.180  24.557   8.3960  0.00  0.00     0.000 HD
ENDBRANCH 95 98
ENDBRANCH 82 95
ENDBRANCH 81 85
ENDBRANCH 65 81
ENDBRANCH 64 67
ENDBRANCH 51 64
ENDBRANCH 50 54
ENDBRANCH 34 50
ENDBRANCH 33 36
ENDBRANCH 20 33
ENDBRANCH 19 23
ENDBRANCH 1 19
TORSDOF 19
ENDMDL
MODEL 25
REMARK VINA RESULT:      -6.1      5.327      7.365
ROOT
ATOM      1  C1  NAG B   1       9.692   8.485  15.1950  0.00  0.00     0.000 C
ATOM      2  C2  NAG B   1       9.034   9.440  16.1870  0.00  0.00     0.000 C
ATOM      3  C3  NAG B   1       7.557   9.150  16.3540  0.00  0.00     0.000 C
ATOM      4  C4  NAG B   1       6.958   9.261  14.9560  0.00  0.00     0.000 C
ATOM      5  C5  NAG B   1       7.576   8.183  14.0570  0.00  0.00     0.000 C
ATOM      6  O5  NAG B   1       9.004   8.357  13.9400  0.00  0.00     0.000 O
ATOM      7   O  NAG B   1       6.918  10.076  17.2640  0.00  0.00     0.000 O
ATOM      9  HD  NAG B   1       7.707   9.987  17.6100  0.00  0.00     0.000 HD
ATOM      9   O  NAG B   1       5.551   9.092  15.0120  0.00  0.00     0.000 O
ATOM     11  HD  NAG B   1       6.340   9.004  15.3590  0.00  0.00     0.000 HD
ATOM     11   C  NAG B   1       6.889   8.188  12.6850  0.00  0.00     0.000 C
ATOM     12   O  NAG B   1       7.775   7.738  11.6610  0.00  0.00     0.000 O
ATOM     14  HD  NAG B   1       8.564   7.650  12.0080  0.00  0.00     0.000 HD
ENDROOT
BRANCH 2 16
ATOM     14   N  NAG B   1       9.619   9.470  17.5390  0.00  0.00     0.000 N
ATOM     16  HD  NAG B   1      10.345   9.302  17.9800  0.00  0.00     0.000 HD
ATOM     16   C  NAG B   1      10.430  10.453  17.9680  0.00  0.00     0.000 C
ATOM     17   C  NAG B   1      10.801  11.579  17.0400  0.00  0.00     0.000 C
ATOM     18   O  NAG B   1      10.859  10.469  19.1210  0.00  0.00     0.000 OA
ENDBRANCH 2 16
BRANCH 1 19
ATOM     19  O4  BDP B   2      10.927   9.123  14.9010  0.00  0.00     0.000 O
BRANCH 19 23
ATOM     20  C1  BDP B   2      13.091   9.941  11.4960  0.00  0.00     0.000 C
ATOM     21  C2  BDP B   2      11.692  10.517  11.5590  0.00  0.00     0.000 C
ATOM     22  C3  BDP B   2      11.163  10.521  12.9760  0.00  0.00     0.000 C
ATOM     23  C4  BDP B   2      11.284   9.108  13.5400  0.00  0.00     0.000 C
ATOM     24  C5  BDP B   2      12.724   8.644  13.4340  0.00  0.00     0.000 C
ATOM     25  O5  BDP B   2      13.123   8.644  12.0770  0.00  0.00     0.000 O
ATOM     26   O  BDP B   2      11.680  11.831  11.0440  0.00  0.00     0.000 O
ATOM     28  HD  BDP B   2      12.468  11.572  10.7960  0.00  0.00     0.000 HD
ATOM     28   O  BDP B   2       9.805  10.987  12.9730  0.00  0.00     0.000 O
ATOM     30  HD  BDP B   2      10.593  10.727  12.7250  0.00  0.00     0.000 HD
BRANCH 24 30
ATOM     30   C  BDP B   2      12.910   7.265  13.9570  0.00  0.00     0.000 C
ATOM     31   O  BDP B   2      13.023   6.343  13.1180  0.00  0.00     0.000 OA
ATOM     32   O  BDP B   2      12.936   7.096  15.2100  0.00  0.00     0.000 OA
ENDBRANCH 24 30
BRANCH 20 33
ATOM     33  O3  NAG B   3      13.354   9.837  10.1180  0.00  0.00     0.000 O
BRANCH 33 36
ATOM     34  C1  NAG B   3      16.500  10.893   8.3470  0.00  0.00     0.000 C
ATOM     35  C2  NAG B   3      15.064  10.967   8.8300  0.00  0.00     0.000 C
ATOM     36  C3  NAG B   3      14.757   9.856   9.8450  0.00  0.00     0.000 C
ATOM     37  C4  NAG B   3      15.165   8.507   9.2560  0.00  0.00     0.000 C
ATOM     38  C5  NAG B   3      16.595   8.571   8.7260  0.00  0.00     0.000 C
ATOM     39  O5  NAG B   3      16.709   9.612   7.7700  0.00  0.00     0.000 O
ATOM     40   O  NAG B   3      15.074   7.485  10.2610  0.00  0.00     0.000 O
ATOM     42  HD  NAG B   3      15.895   7.351  10.0230  0.00  0.00     0.000 HD
ATOM     42   C  NAG B   3      17.042   7.304   8.0010  0.00  0.00     0.000 C
ATOM     43   O  NAG B   3      16.267   7.137   6.8070  0.00  0.00     0.000 O
ATOM     45  HD  NAG B   3      17.089   7.002   6.5690  0.00  0.00     0.000 HD
BRANCH 35 47
ATOM     45   N  NAG B   3      14.143  11.983   8.3350  0.00  0.00     0.000 N
ATOM     47  HD  NAG B   3      13.950  11.189   8.0480  0.00  0.00     0.000 HD
ATOM     47   C  NAG B   3      13.734  12.998   9.0690  0.00  0.00     0.000 C
ATOM     48   C  NAG B   3      12.769  13.941   8.4140  0.00  0.00     0.000 C
ATOM     49   O  NAG B   3      14.099  13.150  10.2330  0.00  0.00     0.000 OA
ENDBRANCH 35 47
BRANCH 34 50
ATOM     50  O4  BDP B   4      16.572  11.897   7.3560  0.00  0.00     0.000 O
BRANCH 50 54
ATOM     51  C1  BDP B   4      19.015  14.609   5.5600  0.00  0.00     0.000 C
ATOM     52  C2  BDP B   4      19.242  13.167   5.1210  0.00  0.00     0.000 C
ATOM     53  C3  BDP B   4      18.066  12.345   5.5520  0.00  0.00     0.000 C
ATOM     54  C4  BDP B   4      17.844  12.507   7.0830  0.00  0.00     0.000 C
ATOM     55  C5  BDP B   4      17.823  13.967   7.5140  0.00  0.00     0.000 C
ATOM     56  O5  BDP B   4      18.943  14.662   6.9740  0.00  0.00     0.000 O
ATOM     57   O  BDP B   4      19.372  13.097   3.7170  0.00  0.00     0.000 O
ATOM     59  HD  BDP B   4      20.223  13.002   3.5820  0.00  0.00     0.000 HD
ATOM     59   O  BDP B   4      18.402  10.966   5.2950  0.00  0.00     0.000 O
ATOM     61  HD  BDP B   4      19.252  10.871   5.1590  0.00  0.00     0.000 HD
BRANCH 55 61
ATOM     61   C  BDP B   4      17.873  14.043   9.0300  0.00  0.00     0.000 C
ATOM     62   O  BDP B   4      18.895  13.593   9.6110  0.00  0.00     0.000 OA
ATOM     63   O  BDP B   4      16.884  14.556   9.6380  0.00  0.00     0.000 OA
ENDBRANCH 55 61
BRANCH 51 64
ATOM     64  O3  NAG B   5      20.129  15.383   5.0760  0.00  0.00     0.000 O
BRANCH 64 67
ATOM     65  C1  NAG B   5      19.332  18.799   3.9400  0.00  0.00     0.000 C
ATOM     66  C2  NAG B   5      19.359  17.281   3.9420  0.00  0.00     0.000 C
ATOM     67  C3  NAG B   5      19.944  16.774   5.2540  0.00  0.00     0.000 C
ATOM     68  C4  NAG B   5      21.298  17.436   5.5460  0.00  0.00     0.000 C
ATOM     69  C5  NAG B   5      21.192  18.949   5.4300  0.00  0.00     0.000 C
ATOM     70  O5  NAG B   5      20.630  19.303   4.1580  0.00  0.00     0.000 O
ATOM     71   O  NAG B   5      21.720  17.051   6.8370  0.00  0.00     0.000 O
ATOM     73  HD  NAG B   5      22.483  16.978   6.4330  0.00  0.00     0.000 HD
ATOM     73   C  NAG B   5      22.528  19.689   5.5810  0.00  0.00     0.000 C
ATOM     74   O  NAG B   5      23.410  19.322   4.5000  0.00  0.00     0.000 O
ATOM     76  HD  NAG B   5      24.173  19.249   4.0960  0.00  0.00     0.000 HD
BRANCH 66 78
ATOM     76   N  NAG B   5      17.958  16.936   3.6310  0.00  0.00     0.000 N
ATOM     78  HD  NAG B   5      18.745  16.750   3.3190  0.00  0.00     0.000 HD
ATOM     78   C  NAG B   5      17.551  15.976   2.7860  0.00  0.00     0.000 C
ATOM     79   C  NAG B   5      16.054  15.854   2.6950  0.00  0.00     0.000 C
ATOM     80   O  NAG B   5      18.359  15.241   2.1140  0.00  0.00     0.000 OA
ENDBRANCH 66 78
BRANCH 65 81
ATOM     81  O4  BDP B   6      18.826  19.282   2.6890  0.00  0.00     0.000 O
BRANCH 81 85
ATOM     82  C1  BDP B   6      16.209  22.405   1.3630  0.00  0.00     0.000 C
ATOM     83  C2  BDP B   6      17.708  22.608   1.1600  0.00  0.00     0.000 C
ATOM     84  C3  BDP B   6      18.505  21.306   1.2790  0.00  0.00     0.000 C
ATOM     85  C4  BDP B   6      18.178  20.551   2.5690  0.00  0.00     0.000 C
ATOM     86  C5  BDP B   6      16.639  20.441   2.6790  0.00  0.00     0.000 C
ATOM     87  O5  BDP B   6      15.991  21.751   2.6050  0.00  0.00     0.000 O
ATOM     88   O  BDP B   6      17.846  23.133  -0.1570  0.00  0.00     0.000 O
ATOM     90  HD  BDP B   6      18.347  23.051  -0.8590  0.00  0.00     0.000 HD
ATOM     90   O  BDP B   6      19.904  21.591   1.1930  0.00  0.00     0.000 O
ATOM     92  HD  BDP B   6      20.405  21.509   0.4910  0.00  0.00     0.000 HD
BRANCH 86 92
ATOM     92   C  BDP B   6      16.241  19.919   4.0390  0.00  0.00     0.000 C
ATOM     93   O  BDP B   6      15.618  18.818   4.1270  0.00  0.00     0.000 OA
ATOM     94   O  BDP B   6      16.574  20.609   5.0520  0.00  0.00     0.000 OA
ENDBRANCH 86 92
BRANCH 82 95
ATOM     95  O3  NAG B   7      15.581  23.701   1.4300  0.00  0.00     0.000 O
BRANCH 95 98
ATOM     96  C1  NAG B   7      12.944  25.668  -0.1570  0.00  0.00     0.000 C
ATOM     97  C2  NAG B   7      14.216  25.436   0.6480  0.00  0.00     0.000 C
ATOM     98  C3  NAG B   7      14.357  23.917   0.7300  0.00  0.00     0.000 C
ATOM     99  C4  NAG B   7      13.137  23.319   1.4260  0.00  0.00     0.000 C
ATOM    100  C5  NAG B   7      11.844  23.769   0.7450  0.00  0.00     0.000 C
ATOM    101  O5  NAG B   7      11.851  25.184   0.6320  0.00  0.00     0.000 O
BRANCH 97 104
ATOM    102   N  NAG B   7      15.452  25.929   0.0260  0.00  0.00     0.000 N
ATOM    104  HD  NAG B   7      16.230  25.961  -0.3530  0.00  0.00     0.000 HD
ATOM    104   O  NAG B   7      17.423  27.038  -0.0920  0.00  0.00     0.000 OA
ATOM    105   C  NAG B   7      16.387  26.751   0.5390  0.00  0.00     0.000 C
ATOM    106   C  NAG B   7      16.183  27.319   1.9020  0.00  0.00     0.000 C
ENDBRANCH 97 104
ATOM    107   O  NAG B   7       9.519  23.457   0.7060  0.00  0.00     0.000 O
ATOM    109  HD  NAG B   7      10.225  23.585   0.2200  0.00  0.00     0.000 HD
ATOM    109   O  NAG B   7       9.519  23.457   0.7060  0.00  0.00     0.000 O
ATOM    111  HD  NAG B   7      10.225  23.585   0.2200  0.00  0.00     0.000 HD
ENDBRANCH 95 98
ENDBRANCH 82 95
ENDBRANCH 81 85
ENDBRANCH 65 81
ENDBRANCH 64 67
ENDBRANCH 51 64
ENDBRANCH 50 54
ENDBRANCH 34 50
ENDBRANCH 33 36
ENDBRANCH 20 33
ENDBRANCH 19 23
ENDBRANCH 1 19
TORSDOF 19
ENDMDL
MODEL 26
REMARK VINA RESULT:      -6.1      2.919      4.885
ROOT
ATOM      1  C1  NAG B   1       8.155   4.255  20.6620  0.00  0.00     0.000 C
ATOM      2  C2  NAG B   1       7.472   2.900  20.8230  0.00  0.00     0.000 C
ATOM      3  C3  NAG B   1       6.652   2.829  22.0950  0.00  0.00     0.000 C
ATOM      4  C4  NAG B   1       7.631   3.125  23.2280  0.00  0.00     0.000 C
ATOM      5  C5  NAG B   1       8.171   4.551  23.0650  0.00  0.00     0.000 C
ATOM      6  O5  NAG B   1       8.883   4.699  21.8170  0.00  0.00     0.000 O
ATOM      7   O  NAG B   1       6.033   1.535  22.2740  0.00  0.00     0.000 O
ATOM      9  HD  NAG B   1       6.010   1.636  21.4150  0.00  0.00     0.000 HD
ATOM      9   O  NAG B   1       6.980   2.998  24.4810  0.00  0.00     0.000 O
ATOM     11  HD  NAG B   1       6.956   3.099  23.6210  0.00  0.00     0.000 HD
ATOM     11   C  NAG B   1       9.051   4.918  24.2670  0.00  0.00     0.000 C
ATOM     12   O  NAG B   1      10.054   5.866  23.9050  0.00  0.00     0.000 O
ATOM     14  HD  NAG B   1      10.030   5.967  23.0450  0.00  0.00     0.000 HD
ENDROOT
BRANCH 2 16
ATOM     14   N  NAG B   1       6.659   2.596  19.6320  0.00  0.00     0.000 N
ATOM     16  HD  NAG B   1       6.630   2.698  18.7720  0.00  0.00     0.000 HD
ATOM     16   C  NAG B   1       6.938   1.586  18.7890  0.00  0.00     0.000 C
ATOM     17   C  NAG B   1       8.147   0.721  19.0280  0.00  0.00     0.000 C
ATOM     18   O  NAG B   1       6.207   1.332  17.8320  0.00  0.00     0.000 OA
ENDBRANCH 2 16
BRANCH 1 19
ATOM     19  O4  BDP B   2       9.130   4.008  19.6570  0.00  0.00     0.000 O
BRANCH 19 23
ATOM     20  C1  BDP B   2       9.889   6.499  16.4690  0.00  0.00     0.000 C
ATOM     21  C2  BDP B   2       8.774   6.922  17.4030  0.00  0.00     0.000 C
ATOM     22  C3  BDP B   2       8.861   6.193  18.7250  0.00  0.00     0.000 C
ATOM     23  C4  BDP B   2       8.910   4.693  18.4470  0.00  0.00     0.000 C
ATOM     24  C5  BDP B   2      10.067   4.391  17.5160  0.00  0.00     0.000 C
ATOM     25  O5  BDP B   2       9.889   5.089  16.2980  0.00  0.00     0.000 O
ATOM     26   O  BDP B   2       8.823   8.315  17.6240  0.00  0.00     0.000 O
ATOM     28  HD  BDP B   2       9.380   8.241  16.9660  0.00  0.00     0.000 HD
ATOM     28   O  BDP B   2       7.734   6.554  19.5390  0.00  0.00     0.000 O
ATOM     30  HD  BDP B   2       8.291   6.480  18.8810  0.00  0.00     0.000 HD
BRANCH 24 30
ATOM     30   C  BDP B   2      10.166   2.943  17.1940  0.00  0.00     0.000 C
ATOM     31   O  BDP B   2      11.062   2.286  17.7720  0.00  0.00     0.000 OA
ATOM     32   O  BDP B   2       9.354   2.456  16.3560  0.00  0.00     0.000 OA
ENDBRANCH 24 30
BRANCH 20 33
ATOM     33  O3  NAG B   3       9.561   7.113  15.2470  0.00  0.00     0.000 O
BRANCH 33 36
ATOM     34  C1  NAG B   3      11.870   8.864  12.8490  0.00  0.00     0.000 C
ATOM     35  C2  NAG B   3      10.800   8.709  13.9130  0.00  0.00     0.000 C
ATOM     36  C3  NAG B   3      10.705   7.256  14.4020  0.00  0.00     0.000 C
ATOM     37  C4  NAG B   3      10.551   6.327  13.2010  0.00  0.00     0.000 C
ATOM     38  C5  NAG B   3      11.625   6.627  12.1580  0.00  0.00     0.000 C
ATOM     39  O5  NAG B   3      11.558   7.990  11.7740  0.00  0.00     0.000 O
ATOM     40   O  NAG B   3      10.663   4.958  13.6210  0.00  0.00     0.000 O
ATOM     42  HD  NAG B   3      11.271   4.948  13.0040  0.00  0.00     0.000 HD
ATOM     42   C  NAG B   3      11.468   5.833  10.8640  0.00  0.00     0.000 C
ATOM     43   O  NAG B   3      10.262   6.231  10.2010  0.00  0.00     0.000 O
ATOM     45  HD  NAG B   3      10.870   6.220   9.5850  0.00  0.00     0.000 HD
BRANCH 35 47
ATOM     45   N  NAG B   3      10.003   9.849  14.3470  0.00  0.00     0.000 N
ATOM     47  HD  NAG B   3       9.549   9.286  13.8710  0.00  0.00     0.000 HD
ATOM     47   C  NAG B   3      10.133  10.404  15.5360  0.00  0.00     0.000 C
ATOM     48   C  NAG B   3       9.220  11.557  15.8300  0.00  0.00     0.000 C
ATOM     49   O  NAG B   3      10.937   9.985  16.3660  0.00  0.00     0.000 OA
ENDBRANCH 35 47
BRANCH 34 50
ATOM     50  O4  BDP B   4      11.743  10.210  12.4410  0.00  0.00     0.000 O
BRANCH 50 54
ATOM     51  C1  BDP B   4      13.781  13.487  11.1530  0.00  0.00     0.000 C
ATOM     52  C2  BDP B   4      13.964  12.247  10.2840  0.00  0.00     0.000 C
ATOM     53  C3  BDP B   4      12.899  11.255  10.6350  0.00  0.00     0.000 C
ATOM     54  C4  BDP B   4      12.936  10.962  12.1630  0.00  0.00     0.000 C
ATOM     55  C5  BDP B   4      12.954  12.236  12.9970  0.00  0.00     0.000 C
ATOM     56  O5  BDP B   4      13.949  13.133  12.5140  0.00  0.00     0.000 O
ATOM     57   O  BDP B   4      13.856  12.586   8.9180  0.00  0.00     0.000 O
ATOM     59  HD  BDP B   4      14.673  12.594   8.6300  0.00  0.00     0.000 HD
ATOM     59   O  BDP B   4      13.218  10.032   9.9400  0.00  0.00     0.000 O
ATOM     61  HD  BDP B   4      14.035  10.040   9.6520  0.00  0.00     0.000 HD
BRANCH 55 61
ATOM     61   C  BDP B   4      13.258  11.884  14.4420  0.00  0.00     0.000 C
ATOM     62   O  BDP B   4      12.751  12.601  15.3440  0.00  0.00     0.000 OA
ATOM     63   O  BDP B   4      14.007  10.886  14.6720  0.00  0.00     0.000 OA
ENDBRANCH 55 61
BRANCH 51 64
ATOM     64  O3  NAG B   5      14.779  14.444  10.7460  0.00  0.00     0.000 O
BRANCH 64 67
ATOM     65  C1  NAG B   5      14.133  17.985   9.9500  0.00  0.00     0.000 C
ATOM     66  C2  NAG B   5      14.295  16.492   9.7220  0.00  0.00     0.000 C
ATOM     67  C3  NAG B   5      14.416  15.774  11.0600  0.00  0.00     0.000 C
ATOM     68  C4  NAG B   5      15.510  16.410  11.9300  0.00  0.00     0.000 C
ATOM     69  C5  NAG B   5      15.315  17.915  12.0230  0.00  0.00     0.000 C
ATOM     70  O5  NAG B   5      15.215  18.477  10.7060  0.00  0.00     0.000 O
ATOM     71   O  NAG B   5      15.476  15.810  13.2070  0.00  0.00     0.000 O
ATOM     73  HD  NAG B   5      16.336  15.831  13.1070  0.00  0.00     0.000 HD
ATOM     73   C  NAG B   5      16.436  18.652  12.7700  0.00  0.00     0.000 C
ATOM     74   O  NAG B   5      17.675  18.509  12.0450  0.00  0.00     0.000 O
ATOM     76  HD  NAG B   5      18.535  18.531  11.9440  0.00  0.00     0.000 HD
BRANCH 66 78
ATOM     76   N  NAG B   5      14.192  16.017   8.3290  0.00  0.00     0.000 N
ATOM     78  HD  NAG B   5      13.758  15.913   9.0720  0.00  0.00     0.000 HD
ATOM     78   C  NAG B   5      13.147  15.369   7.7920  0.00  0.00     0.000 C
ATOM     79   C  NAG B   5      13.333  15.031   6.3380  0.00  0.00     0.000 C
ATOM     80   O  NAG B   5      12.094  15.059   8.4570  0.00  0.00     0.000 OA
ENDBRANCH 66 78
BRANCH 65 81
ATOM     81  O4  BDP B   6      14.065  18.671   8.6930  0.00  0.00     0.000 O
BRANCH 81 85
ATOM     82  C1  BDP B   6      11.996  21.932   6.8360  0.00  0.00     0.000 C
ATOM     83  C2  BDP B   6      13.128  22.273   7.8000  0.00  0.00     0.000 C
ATOM     84  C3  BDP B   6      14.049  21.082   8.0820  0.00  0.00     0.000 C
ATOM     85  C4  BDP B   6      13.263  19.840   8.5070  0.00  0.00     0.000 C
ATOM     86  C5  BDP B   6      12.129  19.619   7.4780  0.00  0.00     0.000 C
ATOM     87  O5  BDP B   6      11.285  20.807   7.3320  0.00  0.00     0.000 O
ATOM     88   O  BDP B   6      13.871  23.309   7.1630  0.00  0.00     0.000 O
ATOM     90  HD  BDP B   6      14.690  23.555   7.0240  0.00  0.00     0.000 HD
ATOM     90   O  BDP B   6      15.011  21.444   9.0750  0.00  0.00     0.000 O
ATOM     92  HD  BDP B   6      15.830  21.690   8.9360  0.00  0.00     0.000 HD
BRANCH 86 92
ATOM     92   C  BDP B   6      11.173  18.556   7.9620  0.00  0.00     0.000 C
ATOM     93   O  BDP B   6      10.819  18.543   9.1800  0.00  0.00     0.000 OA
ATOM     94   O  BDP B   6      10.743  17.721   7.1070  0.00  0.00     0.000 OA
ENDBRANCH 86 92
BRANCH 82 95
ATOM     95  O3  NAG B   7      11.084  23.047   6.7940  0.00  0.00     0.000 O
BRANCH 95 98
ATOM     96  C1  NAG B   7       9.718  25.306   4.2700  0.00  0.00     0.000 C
ATOM     97  C2  NAG B   7      10.305  24.918   5.6200  0.00  0.00     0.000 C
ATOM     98  C3  NAG B   7      10.475  23.402   5.5530  0.00  0.00     0.000 C
ATOM     99  C4  NAG B   7       9.121  22.737   5.3220  0.00  0.00     0.000 C
ATOM    100  C5  NAG B   7       8.430  23.321   4.0890  0.00  0.00     0.000 C
ATOM    101  O5  NAG B   7       8.406  24.736   4.2020  0.00  0.00     0.000 O
BRANCH 97 104
ATOM    102   N  NAG B   7      11.649  25.428   5.9270  0.00  0.00     0.000 N
ATOM    104  HD  NAG B   7      12.492  25.471   6.1200  0.00  0.00     0.000 HD
ATOM    104   O  NAG B   7      13.237  26.527   7.1100  0.00  0.00     0.000 OA
ATOM    105   C  NAG B   7      12.040  26.221   6.9420  0.00  0.00     0.000 C
ATOM    106   C  NAG B   7      11.016  26.733   7.8970  0.00  0.00     0.000 C
ENDBRANCH 97 104
ATOM    107   O  NAG B   7       6.579  23.082   2.6670  0.00  0.00     0.000 O
ATOM    109  HD  NAG B   7       7.425  23.264   2.7040  0.00  0.00     0.000 HD
ATOM    109   O  NAG B   7       6.579  23.082   2.6670  0.00  0.00     0.000 O
ATOM    111  HD  NAG B   7       7.425  23.264   2.7040  0.00  0.00     0.000 HD
ENDBRANCH 95 98
ENDBRANCH 82 95
ENDBRANCH 81 85
ENDBRANCH 65 81
ENDBRANCH 64 67
ENDBRANCH 51 64
ENDBRANCH 50 54
ENDBRANCH 34 50
ENDBRANCH 33 36
ENDBRANCH 20 33
ENDBRANCH 19 23
ENDBRANCH 1 19
TORSDOF 19
ENDMDL
MODEL 27
REMARK VINA RESULT:      -6.0      2.522      4.207
ROOT
ATOM      1  C1  NAG B   1      11.306   7.411  13.3570  0.00  0.00     0.000 C
ATOM      2  C2  NAG B   1      10.638   6.759  14.5650  0.00  0.00     0.000 C
ATOM      3  C3  NAG B   1       9.670   7.702  15.2510  0.00  0.00     0.000 C
ATOM      4  C4  NAG B   1      10.495   8.926  15.6340  0.00  0.00     0.000 C
ATOM      5  C5  NAG B   1      11.020   9.598  14.3580  0.00  0.00     0.000 C
ATOM      6  O5  NAG B   1      11.876   8.704  13.6140  0.00  0.00     0.000 O
ATOM      7   O  NAG B   1       9.062   7.104  16.4190  0.00  0.00     0.000 O
ATOM      9  HD  NAG B   1       9.142   6.428  15.8830  0.00  0.00     0.000 HD
ATOM      9   O  NAG B   1       9.698   9.842  16.3660  0.00  0.00     0.000 O
ATOM     11  HD  NAG B   1       9.778   9.166  15.8300  0.00  0.00     0.000 HD
ATOM     11   C  NAG B   1      11.737  10.906  14.7130  0.00  0.00     0.000 C
ATOM     12   O  NAG B   1      12.756  11.212  13.7620  0.00  0.00     0.000 O
ATOM     14  HD  NAG B   1      12.836  10.536  13.2270  0.00  0.00     0.000 HD
ENDROOT
BRANCH 2 16
ATOM     14   N  NAG B   1      10.196   5.476  13.9890  0.00  0.00     0.000 N
ATOM     16  HD  NAG B   1      10.479   4.781  13.5570  0.00  0.00     0.000 HD
ATOM     16   C  NAG B   1      10.387   4.293  14.5990  0.00  0.00     0.000 C
ATOM     17   C  NAG B   1      11.105   4.236  15.9210  0.00  0.00     0.000 C
ATOM     18   O  NAG B   1       9.960   3.247  14.1110  0.00  0.00     0.000 OA
ENDBRANCH 2 16
BRANCH 1 19
ATOM     19  O4  BDP B   2      12.402   6.547  13.0880  0.00  0.00     0.000 O
BRANCH 19 23
ATOM     20  C1  BDP B   2      14.222   8.557   9.9920  0.00  0.00     0.000 C
ATOM     21  C2  BDP B   2      12.854   7.974   9.7040  0.00  0.00     0.000 C
ATOM     22  C3  BDP B   2      12.119   7.643  10.9830  0.00  0.00     0.000 C
ATOM     23  C4  BDP B   2      13.014   6.750  11.8370  0.00  0.00     0.000 C
ATOM     24  C5  BDP B   2      14.343   7.440  12.0670  0.00  0.00     0.000 C
ATOM     25  O5  BDP B   2      14.973   7.684  10.8240  0.00  0.00     0.000 O
ATOM     26   O  BDP B   2      12.089   8.877   8.9350  0.00  0.00     0.000 O
ATOM     28  HD  BDP B   2      12.871   9.246   8.8790  0.00  0.00     0.000 HD
ATOM     28   O  BDP B   2      10.871   7.009  10.6610  0.00  0.00     0.000 O
ATOM     30  HD  BDP B   2      11.653   7.377  10.6050  0.00  0.00     0.000 HD
BRANCH 24 30
ATOM     30   C  BDP B   2      15.270   6.615  12.8860  0.00  0.00     0.000 C
ATOM     31   O  BDP B   2      15.406   5.413  12.5630  0.00  0.00     0.000 OA
ATOM     32   O  BDP B   2      15.861   7.163  13.8610  0.00  0.00     0.000 OA
ENDBRANCH 24 30
BRANCH 20 33
ATOM     33  O3  NAG B   3      14.834   8.631   8.7270  0.00  0.00     0.000 O
BRANCH 33 36
ATOM     34  C1  NAG B   3      17.181  11.431   7.8310  0.00  0.00     0.000 C
ATOM     35  C2  NAG B   3      15.864  10.696   7.9960  0.00  0.00     0.000 C
ATOM     36  C3  NAG B   3      16.049   9.382   8.7710  0.00  0.00     0.000 C
ATOM     37  C4  NAG B   3      17.161   8.563   8.1180  0.00  0.00     0.000 C
ATOM     38  C5  NAG B   3      18.407   9.423   7.9240  0.00  0.00     0.000 C
ATOM     39  O5  NAG B   3      18.088  10.571   7.1560  0.00  0.00     0.000 O
ATOM     40   O  NAG B   3      17.484   7.432   8.9410  0.00  0.00     0.000 O
ATOM     42  HD  NAG B   3      18.280   7.766   8.8720  0.00  0.00     0.000 HD
ATOM     42   C  NAG B   3      19.527   8.722   7.1590  0.00  0.00     0.000 C
ATOM     43   O  NAG B   3      19.103   8.469   5.8140  0.00  0.00     0.000 O
ATOM     45  HD  NAG B   3      19.899   8.803   5.7450  0.00  0.00     0.000 HD
BRANCH 35 47
ATOM     45   N  NAG B   3      14.645  11.274   7.4440  0.00  0.00     0.000 N
ATOM     47  HD  NAG B   3      14.935  10.602   6.9810  0.00  0.00     0.000 HD
ATOM     47   C  NAG B   3      13.661  11.726   8.1960  0.00  0.00     0.000 C
ATOM     48   C  NAG B   3      12.469  12.270   7.4670  0.00  0.00     0.000 C
ATOM     49   O  NAG B   3      13.706  11.681   9.4230  0.00  0.00     0.000 OA
ENDBRANCH 35 47
BRANCH 34 50
ATOM     50  O4  BDP B   4      16.848  12.534   7.0150  0.00  0.00     0.000 O
BRANCH 50 54
ATOM     51  C1  BDP B   4      16.809  16.591   7.3100  0.00  0.00     0.000 C
ATOM     52  C2  BDP B   4      17.744  16.045   6.2370  0.00  0.00     0.000 C
ATOM     53  C3  BDP B   4      17.392  14.612   5.9790  0.00  0.00     0.000 C
ATOM     54  C4  BDP B   4      17.433  13.813   7.3130  0.00  0.00     0.000 C
ATOM     55  C5  BDP B   4      16.647  14.497   8.4230  0.00  0.00     0.000 C
ATOM     56  O5  BDP B   4      17.008  15.872   8.5140  0.00  0.00     0.000 O
ATOM     57   O  BDP B   4      17.603  16.784   5.0420  0.00  0.00     0.000 O
ATOM     59  HD  BDP B   4      18.297  17.301   5.0220  0.00  0.00     0.000 HD
ATOM     59   O  BDP B   4      18.412  14.079   5.1090  0.00  0.00     0.000 O
ATOM     61  HD  BDP B   4      19.106  14.596   5.0890  0.00  0.00     0.000 HD
BRANCH 55 61
ATOM     61   C  BDP B   4      16.949  13.814   9.7450  0.00  0.00     0.000 C
ATOM     62   O  BDP B   4      15.977  13.456  10.4600  0.00  0.00     0.000 OA
ATOM     63   O  BDP B   4      18.164  13.634  10.0650  0.00  0.00     0.000 OA
ENDBRANCH 55 61
BRANCH 51 64
ATOM     64  O3  NAG B   5      17.131  17.984   7.4880  0.00  0.00     0.000 O
BRANCH 64 67
ATOM     65  C1  NAG B   5      14.172  20.123   8.0070  0.00  0.00     0.000 C
ATOM     66  C2  NAG B   5      15.127  19.179   7.2960  0.00  0.00     0.000 C
ATOM     67  C3  NAG B   5      16.175  18.667   8.2760  0.00  0.00     0.000 C
ATOM     68  C4  NAG B   5      16.856  19.829   9.0110  0.00  0.00     0.000 C
ATOM     69  C5  NAG B   5      15.820  20.768   9.6100  0.00  0.00     0.000 C
ATOM     70  O5  NAG B   5      14.892  21.181   8.5970  0.00  0.00     0.000 O
ATOM     71   O  NAG B   5      17.702  19.299  10.0090  0.00  0.00     0.000 O
ATOM     73  HD  NAG B   5      18.233  19.918   9.7170  0.00  0.00     0.000 HD
ATOM     73   C  NAG B   5      16.409  22.029  10.2570  0.00  0.00     0.000 C
ATOM     74   O  NAG B   5      17.058  22.832   9.2500  0.00  0.00     0.000 O
ATOM     76  HD  NAG B   5      17.589  23.451   8.9580  0.00  0.00     0.000 HD
BRANCH 66 78
ATOM     76   N  NAG B   5      14.285  18.113   6.7220  0.00  0.00     0.000 N
ATOM     78  HD  NAG B   5      14.817  18.731   6.4300  0.00  0.00     0.000 HD
ATOM     78   C  NAG B   5      14.303  17.693   5.4470  0.00  0.00     0.000 C
ATOM     79   C  NAG B   5      13.338  16.573   5.1700  0.00  0.00     0.000 C
ATOM     80   O  NAG B   5      15.064  18.204   4.5490  0.00  0.00     0.000 OA
ENDBRANCH 66 78
BRANCH 65 81
ATOM     81  O4  BDP B   6      13.212  20.644   7.0790  0.00  0.00     0.000 O
BRANCH 81 85
ATOM     82  C1  BDP B   6       9.059  21.700   7.1340  0.00  0.00     0.000 C
ATOM     83  C2  BDP B   6      10.077  22.837   7.1490  0.00  0.00     0.000 C
ATOM     84  C3  BDP B   6      11.476  22.389   6.7200  0.00  0.00     0.000 C
ATOM     85  C4  BDP B   6      11.949  21.162   7.5030  0.00  0.00     0.000 C
ATOM     86  C5  BDP B   6      10.825  20.099   7.4440  0.00  0.00     0.000 C
ATOM     87  O5  BDP B   6       9.549  20.628   7.9270  0.00  0.00     0.000 O
ATOM     88   O  BDP B   6       9.581  23.803   6.2250  0.00  0.00     0.000 O
ATOM     90  HD  BDP B   6       9.861  24.332   5.5990  0.00  0.00     0.000 HD
ATOM     90   O  BDP B   6      12.394  23.475   6.8690  0.00  0.00     0.000 O
ATOM     92  HD  BDP B   6      12.674  24.005   6.2430  0.00  0.00     0.000 HD
BRANCH 86 92
ATOM     92   C  BDP B   6      11.124  18.960   8.3890  0.00  0.00     0.000 C
ATOM     93   O  BDP B   6      11.461  17.832   7.9190  0.00  0.00     0.000 OA
ATOM     94   O  BDP B   6      11.043  19.196   9.6340  0.00  0.00     0.000 OA
ENDBRANCH 86 92
BRANCH 82 95
ATOM     95  O3  NAG B   7       7.839  22.174   7.7360  0.00  0.00     0.000 O
BRANCH 95 98
ATOM     96  C1  NAG B   7       4.489  20.792   7.2820  0.00  0.00     0.000 C
ATOM     97  C2  NAG B   7       5.613  21.805   7.1100  0.00  0.00     0.000 C
ATOM     98  C3  NAG B   7       6.766  21.258   7.9490  0.00  0.00     0.000 C
ATOM     99  C4  NAG B   7       6.337  21.143   9.4090  0.00  0.00     0.000 C
ATOM    100  C5  NAG B   7       5.054  20.320   9.5380  0.00  0.00     0.000 C
ATOM    101  O5  NAG B   7       4.078  20.847   8.6530  0.00  0.00     0.000 O
BRANCH 97 104
ATOM    102   N  NAG B   7       6.065  22.616   5.9710  0.00  0.00     0.000 N
ATOM    104  HD  NAG B   7       6.087  23.191   5.3240  0.00  0.00     0.000 HD
ATOM    104   O  NAG B   7       6.784  23.023   3.8620  0.00  0.00     0.000 OA
ATOM    105   C  NAG B   7       6.485  22.209   4.7580  0.00  0.00     0.000 C
ATOM    106   C  NAG B   7       6.582  20.749   4.4770  0.00  0.00     0.000 C
ENDBRANCH 97 104
ATOM    107   O  NAG B   7       3.588  19.331  11.0800  0.00  0.00     0.000 O
ATOM    109  HD  NAG B   7       3.982  19.235  10.3140  0.00  0.00     0.000 HD
ATOM    109   O  NAG B   7       3.588  19.331  11.0800  0.00  0.00     0.000 O
ATOM    111  HD  NAG B   7       3.982  19.235  10.3140  0.00  0.00     0.000 HD
ENDBRANCH 95 98
ENDBRANCH 82 95
ENDBRANCH 81 85
ENDBRANCH 65 81
ENDBRANCH 64 67
ENDBRANCH 51 64
ENDBRANCH 50 54
ENDBRANCH 34 50
ENDBRANCH 33 36
ENDBRANCH 20 33
ENDBRANCH 19 23
ENDBRANCH 1 19
TORSDOF 19
ENDMDL
MODEL 28
REMARK VINA RESULT:      -6.0      5.202     11.811
ROOT
ATOM      1  C1  NAG B   1       7.352   3.153  28.3640  0.00  0.00     0.000 C
ATOM      2  C2  NAG B   1       6.636   4.265  29.1260  0.00  0.00     0.000 C
ATOM      3  C3  NAG B   1       5.502   3.727  29.9750  0.00  0.00     0.000 C
ATOM      4  C4  NAG B   1       4.577   2.998  29.0050  0.00  0.00     0.000 C
ATOM      5  C5  NAG B   1       5.333   1.817  28.3820  0.00  0.00     0.000 C
ATOM      6  O5  NAG B   1       6.484   2.270  27.6380  0.00  0.00     0.000 O
ATOM      7   O  NAG B   1       4.794   4.779  30.6690  0.00  0.00     0.000 O
ATOM      9  HD  NAG B   1       5.609   5.071  30.6690  0.00  0.00     0.000 HD
ATOM      9   O  NAG B   1       3.428   2.526  29.6880  0.00  0.00     0.000 O
ATOM     11  HD  NAG B   1       4.243   2.818  29.6880  0.00  0.00     0.000 HD
ATOM     11   C  NAG B   1       4.381   0.989  27.5090  0.00  0.00     0.000 C
ATOM     12   O  NAG B   1       5.082   0.344  26.4470  0.00  0.00     0.000 O
ATOM     14  HD  NAG B   1       5.898   0.636  26.4470  0.00  0.00     0.000 HD
ENDROOT
BRANCH 2 16
ATOM     14   N  NAG B   1       7.719   4.996  29.8070  0.00  0.00     0.000 N
ATOM     16  HD  NAG B   1       8.503   5.342  29.6800  0.00  0.00     0.000 HD
ATOM     16   C  NAG B   1       7.896   6.324  29.6900  0.00  0.00     0.000 C
ATOM     17   C  NAG B   1       6.979   7.129  28.8080  0.00  0.00     0.000 C
ATOM     18   O  NAG B   1       8.782   6.907  30.3130  0.00  0.00     0.000 OA
ENDBRANCH 2 16
BRANCH 1 19
ATOM     19  O4  BDP B   2       8.099   3.861  27.3840  0.00  0.00     0.000 O
BRANCH 19 23
ATOM     20  C1  BDP B   2       8.329   3.862  23.2750  0.00  0.00     0.000 C
ATOM     21  C2  BDP B   2       7.053   4.411  23.8770  0.00  0.00     0.000 C
ATOM     22  C3  BDP B   2       7.239   4.750  25.3390  0.00  0.00     0.000 C
ATOM     23  C4  BDP B   2       7.791   3.520  26.0540  0.00  0.00     0.000 C
ATOM     24  C5  BDP B   2       9.068   3.072  25.3720  0.00  0.00     0.000 C
ATOM     25  O5  BDP B   2       8.796   2.748  24.0220  0.00  0.00     0.000 O
ATOM     26   O  BDP B   2       6.632   5.559  23.1720  0.00  0.00     0.000 O
ATOM     28  HD  BDP B   2       7.245   5.261  22.6370  0.00  0.00     0.000 HD
ATOM     28   O  BDP B   2       5.982   5.176  25.8890  0.00  0.00     0.000 O
ATOM     30  HD  BDP B   2       6.595   4.879  25.3550  0.00  0.00     0.000 HD
BRANCH 24 30
ATOM     30   C  BDP B   2       9.655   1.866  26.0150  0.00  0.00     0.000 C
ATOM     31   O  BDP B   2       8.998   0.802  25.9450  0.00  0.00     0.000 OA
ATOM     32   O  BDP B   2      10.770   1.978  26.5990  0.00  0.00     0.000 OA
ENDBRANCH 24 30
BRANCH 20 33
ATOM     33  O3  NAG B   3       7.942   3.430  21.9930  0.00  0.00     0.000 O
BRANCH 33 36
ATOM     34  C1  NAG B   3      10.394   3.454  19.1400  0.00  0.00     0.000 C
ATOM     35  C2  NAG B   3       9.355   3.988  20.1080  0.00  0.00     0.000 C
ATOM     36  C3  NAG B   3       9.062   2.977  21.2270  0.00  0.00     0.000 C
ATOM     37  C4  NAG B   3       8.723   1.623  20.6090  0.00  0.00     0.000 C
ATOM     38  C5  NAG B   3       9.788   1.224  19.5920  0.00  0.00     0.000 C
ATOM     39  O5  NAG B   3       9.912   2.231  18.6020  0.00  0.00     0.000 O
ATOM     40   O  NAG B   3       8.643   0.621  21.6350  0.00  0.00     0.000 O
ATOM     42  HD  NAG B   3       9.218   0.227  21.1220  0.00  0.00     0.000 HD
ATOM     42   C  NAG B   3       9.463  -0.057  18.8280  0.00  0.00     0.000 C
ATOM     43   O  NAG B   3       8.306   0.153  18.0100  0.00  0.00     0.000 O
ATOM     45  HD  NAG B   3       8.881  -0.242  17.4970  0.00  0.00     0.000 HD
BRANCH 35 47
ATOM     45   N  NAG B   3       8.637   5.254  20.0380  0.00  0.00     0.000 N
ATOM     47  HD  NAG B   3       8.107   4.569  20.0380  0.00  0.00     0.000 HD
ATOM     47   C  NAG B   3       9.015   6.330  20.6990  0.00  0.00     0.000 C
ATOM     48   C  NAG B   3       8.151   7.545  20.5320  0.00  0.00     0.000 C
ATOM     49   O  NAG B   3      10.002   6.332  21.4300  0.00  0.00     0.000 OA
ENDBRANCH 35 47
BRANCH 34 50
ATOM     50  O4  BDP B   4      10.455   4.444  18.1350  0.00  0.00     0.000 O
BRANCH 50 54
ATOM     51  C1  BDP B   4      12.109   5.426  14.5500  0.00  0.00     0.000 C
ATOM     52  C2  BDP B   4      10.982   4.404  14.4670  0.00  0.00     0.000 C
ATOM     53  C3  BDP B   4      10.228   4.415  15.7610  0.00  0.00     0.000 C
ATOM     54  C4  BDP B   4      11.210   4.170  16.9430  0.00  0.00     0.000 C
ATOM     55  C5  BDP B   4      12.430   5.080  16.8800  0.00  0.00     0.000 C
ATOM     56  O5  BDP B   4      13.008   5.049  15.5780  0.00  0.00     0.000 O
ATOM     57   O  BDP B   4      10.103   4.729  13.4110  0.00  0.00     0.000 O
ATOM     59  HD  BDP B   4      10.307   4.175  12.7780  0.00  0.00     0.000 HD
ATOM     59   O  BDP B   4       9.302   3.310  15.7170  0.00  0.00     0.000 O
ATOM     61  HD  BDP B   4       9.506   2.755  15.0840  0.00  0.00     0.000 HD
BRANCH 55 61
ATOM     61   C  BDP B   4      13.458   4.609  17.8940  0.00  0.00     0.000 C
ATOM     62   O  BDP B   4      13.988   3.481  17.7170  0.00  0.00     0.000 OA
ATOM     63   O  BDP B   4      13.735   5.374  18.8680  0.00  0.00     0.000 OA
ENDBRANCH 55 61
BRANCH 51 64
ATOM     64  O3  NAG B   5      12.772   5.437  13.2710  0.00  0.00     0.000 O
BRANCH 64 67
ATOM     65  C1  NAG B   5      14.038   8.388  11.4600  0.00  0.00     0.000 C
ATOM     66  C2  NAG B   5      13.075   7.287  11.8700  0.00  0.00     0.000 C
ATOM     67  C3  NAG B   5      13.608   6.564  13.1010  0.00  0.00     0.000 C
ATOM     68  C4  NAG B   5      15.055   6.099  12.8840  0.00  0.00     0.000 C
ATOM     69  C5  NAG B   5      15.919   7.247  12.3870  0.00  0.00     0.000 C
ATOM     70  O5  NAG B   5      15.318   7.847  11.2300  0.00  0.00     0.000 O
ATOM     71   O  NAG B   5      15.548   5.576  14.0980  0.00  0.00     0.000 O
ATOM     73  HD  NAG B   5      15.874   4.975  13.5670  0.00  0.00     0.000 HD
ATOM     73   C  NAG B   5      17.355   6.845  12.0210  0.00  0.00     0.000 C
ATOM     74   O  NAG B   5      17.331   5.926  10.9090  0.00  0.00     0.000 O
ATOM     76  HD  NAG B   5      17.657   5.325  10.3780  0.00  0.00     0.000 HD
BRANCH 66 78
ATOM     76   N  NAG B   5      11.751   7.850  12.1950  0.00  0.00     0.000 N
ATOM     78  HD  NAG B   5      12.108   7.392  11.5530  0.00  0.00     0.000 HD
ATOM     78   C  NAG B   5      10.601   7.581  11.5580  0.00  0.00     0.000 C
ATOM     79   C  NAG B   5       9.412   8.298  12.1370  0.00  0.00     0.000 C
ATOM     80   O  NAG B   5      10.524   6.794  10.5480  0.00  0.00     0.000 OA
ENDBRANCH 66 78
BRANCH 65 81
ATOM     81  O4  BDP B   6      13.564   9.041  10.2750  0.00  0.00     0.000 O
BRANCH 81 85
ATOM     82  C1  BDP B   6      13.739  12.842   8.3040  0.00  0.00     0.000 C
ATOM     83  C2  BDP B   6      15.040  12.056   8.4370  0.00  0.00     0.000 C
ATOM     84  C3  BDP B   6      14.812  10.579   8.7700  0.00  0.00     0.000 C
ATOM     85  C4  BDP B   6      13.887  10.401   9.9760  0.00  0.00     0.000 C
ATOM     86  C5  BDP B   6      12.627  11.268   9.7400  0.00  0.00     0.000 C
ATOM     87  O5  BDP B   6      12.968  12.668   9.4840  0.00  0.00     0.000 O
ATOM     88   O  BDP B   6      15.682  12.165   7.1690  0.00  0.00     0.000 O
ATOM     90  HD  BDP B   6      16.123  11.682   6.6010  0.00  0.00     0.000 HD
ATOM     90   O  BDP B   6      16.070   9.937   8.9920  0.00  0.00     0.000 O
ATOM     92  HD  BDP B   6      16.511   9.455   8.4230  0.00  0.00     0.000 HD
BRANCH 86 92
ATOM     92   C  BDP B   6      11.782  11.326  10.9900  0.00  0.00     0.000 C
ATOM     93   O  BDP B   6      10.523  11.210  10.8990  0.00  0.00     0.000 OA
ATOM     94   O  BDP B   6      12.386  11.470  12.0990  0.00  0.00     0.000 OA
ENDBRANCH 86 92
BRANCH 82 95
ATOM     95  O3  NAG B   7      14.064  14.241   8.1890  0.00  0.00     0.000 O
BRANCH 95 98
ATOM     96  C1  NAG B   7      13.375  16.975   5.8670  0.00  0.00     0.000 C
ATOM     97  C2  NAG B   7      14.221  16.123   6.8050  0.00  0.00     0.000 C
ATOM     98  C3  NAG B   7      13.257  15.077   7.3600  0.00  0.00     0.000 C
ATOM     99  C4  NAG B   7      12.117  15.765   8.1060  0.00  0.00     0.000 C
ATOM    100  C5  NAG B   7      11.432  16.804   7.2170  0.00  0.00     0.000 C
ATOM    101  O5  NAG B   7      12.418  17.668   6.6750  0.00  0.00     0.000 O
BRANCH 97 104
ATOM    102   N  NAG B   7      15.295  15.265   6.2860  0.00  0.00     0.000 N
ATOM    104  HD  NAG B   7      15.825  14.593   6.1560  0.00  0.00     0.000 HD
ATOM    104   O  NAG B   7      17.427  14.624   5.8690  0.00  0.00     0.000 OA
ATOM    105   C  NAG B   7      16.625  15.478   6.2960  0.00  0.00     0.000 C
ATOM    106   C  NAG B   7      17.150  16.760   6.8460  0.00  0.00     0.000 C
ENDBRANCH 97 104
ATOM    107   O  NAG B   7       9.610  18.276   7.0880  0.00  0.00     0.000 O
ATOM    109  HD  NAG B   7      10.101  17.717   6.6460  0.00  0.00     0.000 HD
ATOM    109   O  NAG B   7       9.610  18.276   7.0880  0.00  0.00     0.000 O
ATOM    111  HD  NAG B   7      10.101  17.717   6.6460  0.00  0.00     0.000 HD
ENDBRANCH 95 98
ENDBRANCH 82 95
ENDBRANCH 81 85
ENDBRANCH 65 81
ENDBRANCH 64 67
ENDBRANCH 51 64
ENDBRANCH 50 54
ENDBRANCH 34 50
ENDBRANCH 33 36
ENDBRANCH 20 33
ENDBRANCH 19 23
ENDBRANCH 1 19
TORSDOF 19
ENDMDL
MODEL 29
REMARK VINA RESULT:      -6.0      5.223     16.595
ROOT
ATOM      1  C1  NAG B   1      17.393  16.291   3.8120  0.00  0.00     0.000 C
ATOM      2  C2  NAG B   1      17.813  16.910   2.4820  0.00  0.00     0.000 C
ATOM      3  C3  NAG B   1      18.025  15.859   1.4120  0.00  0.00     0.000 C
ATOM      4  C4  NAG B   1      19.083  14.914   1.9730  0.00  0.00     0.000 C
ATOM      5  C5  NAG B   1      18.533  14.234   3.2330  0.00  0.00     0.000 C
ATOM      6  O5  NAG B   1      18.222  15.205   4.2550  0.00  0.00     0.000 O
ATOM      7   O  NAG B   1      18.461  16.436   0.1600  0.00  0.00     0.000 O
ATOM      9  HD  NAG B   1      17.926  17.043   0.4690  0.00  0.00     0.000 HD
ATOM      9   O  NAG B   1      19.422  13.933   1.0070  0.00  0.00     0.000 O
ATOM     11  HD  NAG B   1      18.887  14.540   1.3160  0.00  0.00     0.000 HD
ATOM     11   C  NAG B   1      19.526  13.179   3.7350  0.00  0.00     0.000 C
ATOM     12   O  NAG B   1      19.427  13.005   5.1470  0.00  0.00     0.000 O
ATOM     14  HD  NAG B   1      18.892  13.612   5.4560  0.00  0.00     0.000 HD
ENDROOT
BRANCH 2 16
ATOM     14   N  NAG B   1      16.850  17.921   2.0070  0.00  0.00     0.000 N
ATOM     16  HD  NAG B   1      16.276  18.509   2.2820  0.00  0.00     0.000 HD
ATOM     16   C  NAG B   1      17.120  19.237   1.9820  0.00  0.00     0.000 C
ATOM     17   C  NAG B   1      18.448  19.743   2.4790  0.00  0.00     0.000 C
ATOM     18   O  NAG B   1      16.309  20.046   1.5320  0.00  0.00     0.000 OA
ENDBRANCH 2 16
BRANCH 1 19
ATOM     19  O4  BDP B   2      17.601  17.346   4.7410  0.00  0.00     0.000 O
BRANCH 19 23
ATOM     20  C1  BDP B   2      14.916  15.996   7.5540  0.00  0.00     0.000 C
ATOM     21  C2  BDP B   2      14.348  16.842   6.4330  0.00  0.00     0.000 C
ATOM     22  C3  BDP B   2      15.308  16.922   5.2670  0.00  0.00     0.000 C
ATOM     23  C4  BDP B   2      16.661  17.399   5.7870  0.00  0.00     0.000 C
ATOM     24  C5  BDP B   2      17.131  16.473   6.8920  0.00  0.00     0.000 C
ATOM     25  O5  BDP B   2      16.191  16.482   7.9500  0.00  0.00     0.000 O
ATOM     26   O  BDP B   2      13.114  16.313   5.9980  0.00  0.00     0.000 O
ATOM     28  HD  BDP B   2      13.234  15.856   6.7240  0.00  0.00     0.000 HD
ATOM     28   O  BDP B   2      14.770  17.808   4.2720  0.00  0.00     0.000 O
ATOM     30  HD  BDP B   2      14.889  17.351   4.9980  0.00  0.00     0.000 HD
BRANCH 24 30
ATOM     30   C  BDP B   2      18.443  16.888   7.4530  0.00  0.00     0.000 C
ATOM     31   O  BDP B   2      19.377  16.055   7.4070  0.00  0.00     0.000 OA
ATOM     32   O  BDP B   2      18.546  18.046   7.9500  0.00  0.00     0.000 OA
ENDBRANCH 24 30
BRANCH 20 33
ATOM     33  O3  NAG B   3      14.005  16.175   8.6100  0.00  0.00     0.000 O
BRANCH 33 36
ATOM     34  C1  NAG B   3      13.733  13.281  10.9990  0.00  0.00     0.000 C
ATOM     35  C2  NAG B   3      13.562  14.064   9.7110  0.00  0.00     0.000 C
ATOM     36  C3  NAG B   3      14.352  15.381   9.7480  0.00  0.00     0.000 C
ATOM     37  C4  NAG B   3      13.991  16.151  11.0160  0.00  0.00     0.000 C
ATOM     38  C5  NAG B   3      14.116  15.245  12.2390  0.00  0.00     0.000 C
ATOM     39  O5  NAG B   3      13.298  14.099  12.0760  0.00  0.00     0.000 O
ATOM     40   O  NAG B   3      14.862  17.282  11.1690  0.00  0.00     0.000 O
ATOM     42  HD  NAG B   3      14.994  16.920  11.9440  0.00  0.00     0.000 HD
ATOM     42   C  NAG B   3      13.648  15.895  13.5380  0.00  0.00     0.000 C
ATOM     43   O  NAG B   3      12.239  16.144  13.4700  0.00  0.00     0.000 O
ATOM     45  HD  NAG B   3      12.371  15.781  14.2450  0.00  0.00     0.000 HD
BRANCH 35 47
ATOM     45   N  NAG B   3      12.753  13.772   8.5340  0.00  0.00     0.000 N
ATOM     47  HD  NAG B   3      12.588  14.555   8.8670  0.00  0.00     0.000 HD
ATOM     47   C  NAG B   3      13.216  13.115   7.4900  0.00  0.00     0.000 C
ATOM     48   C  NAG B   3      12.256  12.918   6.3540  0.00  0.00     0.000 C
ATOM     49   O  NAG B   3      14.376  12.711   7.4370  0.00  0.00     0.000 OA
ENDBRANCH 35 47
BRANCH 34 50
ATOM     50  O4  BDP B   4      12.865  12.179  10.8370  0.00  0.00     0.000 O
BRANCH 50 54
ATOM     51  C1  BDP B   4      12.741   8.858  13.1850  0.00  0.00     0.000 C
ATOM     52  C2  BDP B   4      13.991   9.712  13.3640  0.00  0.00     0.000 C
ATOM     53  C3  BDP B   4      13.747  11.055  12.7470  0.00  0.00     0.000 C
ATOM     54  C4  BDP B   4      13.313  10.881  11.2630  0.00  0.00     0.000 C
ATOM     55  C5  BDP B   4      12.190   9.865  11.1030  0.00  0.00     0.000 C
ATOM     56  O5  BDP B   4      12.502   8.664  11.8030  0.00  0.00     0.000 O
ATOM     57   O  BDP B   4      14.282   9.873  14.7360  0.00  0.00     0.000 O
ATOM     59  HD  BDP B   4      14.942   9.332  14.8840  0.00  0.00     0.000 HD
ATOM     59   O  BDP B   4      15.005  11.760  12.7630  0.00  0.00     0.000 O
ATOM     61  HD  BDP B   4      15.665  11.219  12.9110  0.00  0.00     0.000 HD
BRANCH 55 61
ATOM     61   C  BDP B   4      12.005   9.551   9.6290  0.00  0.00     0.000 C
ATOM     62   O  BDP B   4      12.686   8.615   9.1350  0.00  0.00     0.000 OA
ATOM     63   O  BDP B   4      11.174  10.244   8.9670  0.00  0.00     0.000 OA
ENDBRANCH 55 61
BRANCH 51 64
ATOM     64  O3  NAG B   5      12.986   7.600  13.8430  0.00  0.00     0.000 O
BRANCH 64 67
ATOM     65  C1  NAG B   5      10.328   5.892  15.7440  0.00  0.00     0.000 C
ATOM     66  C2  NAG B   5      11.441   6.882  15.4490  0.00  0.00     0.000 C
ATOM     67  C3  NAG B   5      11.815   6.818  13.9740  0.00  0.00     0.000 C
ATOM     68  C4  NAG B   5      12.114   5.375  13.5430  0.00  0.00     0.000 C
ATOM     69  C5  NAG B   5      10.987   4.445  13.9630  0.00  0.00     0.000 C
ATOM     70  O5  NAG B   5      10.727   4.594  15.3670  0.00  0.00     0.000 O
ATOM     71   O  NAG B   5      12.302   5.351  12.1450  0.00  0.00     0.000 O
ATOM     73  HD  NAG B   5      12.950   4.819  12.3630  0.00  0.00     0.000 HD
ATOM     73   C  NAG B   5      11.257   2.959  13.6870  0.00  0.00     0.000 C
ATOM     74   O  NAG B   5      12.381   2.517  14.4760  0.00  0.00     0.000 O
ATOM     76  HD  NAG B   5      13.029   1.986  14.6940  0.00  0.00     0.000 HD
BRANCH 66 78
ATOM     76   N  NAG B   5      11.943   7.797  16.4930  0.00  0.00     0.000 N
ATOM     78  HD  NAG B   5      11.463   7.852  15.7750  0.00  0.00     0.000 HD
ATOM     78   C  NAG B   5      11.557   9.069  16.6800  0.00  0.00     0.000 C
ATOM     79   C  NAG B   5      12.239   9.737  17.8430  0.00  0.00     0.000 C
ATOM     80   O  NAG B   5      10.697   9.659  15.9350  0.00  0.00     0.000 OA
ENDBRANCH 66 78
BRANCH 65 81
ATOM     81  O4  BDP B   6      10.005   5.916  17.1410  0.00  0.00     0.000 O
BRANCH 81 85
ATOM     82  C1  BDP B   6       6.670   5.326  19.7660  0.00  0.00     0.000 C
ATOM     83  C2  BDP B   6       7.050   4.175  18.8390  0.00  0.00     0.000 C
ATOM     84  C3  BDP B   6       8.460   4.319  18.2580  0.00  0.00     0.000 C
ATOM     85  C4  BDP B   6       8.676   5.692  17.6180  0.00  0.00     0.000 C
ATOM     86  C5  BDP B   6       8.225   6.768  18.6340  0.00  0.00     0.000 C
ATOM     87  O5  BDP B   6       6.846   6.556  19.0770  0.00  0.00     0.000 O
ATOM     88   O  BDP B   6       6.984   3.001  19.6440  0.00  0.00     0.000 O
ATOM     90  HD  BDP B   6       7.419   2.266  19.7890  0.00  0.00     0.000 HD
ATOM     90   O  BDP B   6       8.700   3.271  17.3160  0.00  0.00     0.000 O
ATOM     92  HD  BDP B   6       9.134   2.536  17.4610  0.00  0.00     0.000 HD
BRANCH 86 92
ATOM     92   C  BDP B   6       8.189   8.129  17.9840  0.00  0.00     0.000 C
ATOM     93   O  BDP B   6       7.628   8.266  16.8540  0.00  0.00     0.000 OA
ATOM     94   O  BDP B   6       8.711   9.097  18.6190  0.00  0.00     0.000 OA
ENDBRANCH 86 92
BRANCH 82 95
ATOM     95  O3  NAG B   7       5.273   5.200  20.0970  0.00  0.00     0.000 O
BRANCH 95 98
ATOM     96  C1  NAG B   7       3.321   5.514  23.1670  0.00  0.00     0.000 C
ATOM     97  C2  NAG B   7       3.804   4.848  21.8860  0.00  0.00     0.000 C
ATOM     98  C3  NAG B   7       4.773   5.851  21.2640  0.00  0.00     0.000 C
ATOM     99  C4  NAG B   7       4.048   7.162  20.9730  0.00  0.00     0.000 C
ATOM    100  C5  NAG B   7       3.355   7.693  22.2290  0.00  0.00     0.000 C
ATOM    101  O5  NAG B   7       2.554   6.661  22.7830  0.00  0.00     0.000 O
BRANCH 97 104
ATOM    102   N  NAG B   7       4.652   3.648  21.8670  0.00  0.00     0.000 N
ATOM    104  HD  NAG B   7       5.244   3.059  21.6390  0.00  0.00     0.000 HD
ATOM    104   O  NAG B   7       5.126   1.438  21.7290  0.00  0.00     0.000 OA
ATOM    105   C  NAG B   7       4.284   2.355  21.7970  0.00  0.00     0.000 C
ATOM    106   C  NAG B   7       2.833   2.014  21.7870  0.00  0.00     0.000 C
ENDBRANCH 97 104
ATOM    107   O  NAG B   7       2.177   9.520  23.1110  0.00  0.00     0.000 O
ATOM    109  HD  NAG B   7       2.773   8.914  23.2780  0.00  0.00     0.000 HD
ATOM    109   O  NAG B   7       2.177   9.520  23.1110  0.00  0.00     0.000 O
ATOM    111  HD  NAG B   7       2.773   8.914  23.2780  0.00  0.00     0.000 HD
ENDBRANCH 95 98
ENDBRANCH 82 95
ENDBRANCH 81 85
ENDBRANCH 65 81
ENDBRANCH 64 67
ENDBRANCH 51 64
ENDBRANCH 50 54
ENDBRANCH 34 50
ENDBRANCH 33 36
ENDBRANCH 20 33
ENDBRANCH 19 23
ENDBRANCH 1 19
TORSDOF 19
ENDMDL
MODEL 30
REMARK VINA RESULT:      -6.0      7.327     17.272
ROOT
ATOM      1  C1  NAG B   1       7.156  21.210   6.0960  0.00  0.00     0.000 C
ATOM      2  C2  NAG B   1       5.644  21.320   5.9280  0.00  0.00     0.000 C
ATOM      3  C3  NAG B   1       5.248  21.476   4.4740  0.00  0.00     0.000 C
ATOM      4  C4  NAG B   1       5.979  22.721   3.9830  0.00  0.00     0.000 C
ATOM      5  C5  NAG B   1       7.492  22.479   4.0610  0.00  0.00     0.000 C
ATOM      6  O5  NAG B   1       7.910  22.229   5.4200  0.00  0.00     0.000 O
ATOM      7   O  NAG B   1       3.818  21.620   4.3100  0.00  0.00     0.000 O
ATOM      9  HD  NAG B   1       3.875  21.074   4.9800  0.00  0.00     0.000 HD
ATOM      9   O  NAG B   1       5.607  23.010   2.6460  0.00  0.00     0.000 O
ATOM     11  HD  NAG B   1       5.665  22.465   3.3160  0.00  0.00     0.000 HD
ATOM     11   C  NAG B   1       8.244  23.665   3.4450  0.00  0.00     0.000 C
ATOM     12   O  NAG B   1       9.531  23.828   4.0410  0.00  0.00     0.000 O
ATOM     14  HD  NAG B   1       9.588  23.282   4.7100  0.00  0.00     0.000 HD
ENDROOT
BRANCH 2 16
ATOM     14   N  NAG B   1       4.985  20.163   6.5600  0.00  0.00     0.000 N
ATOM     16  HD  NAG B   1       5.042  19.619   7.2320  0.00  0.00     0.000 HD
ATOM     16   C  NAG B   1       4.178  20.272   7.6300  0.00  0.00     0.000 C
ATOM     17   C  NAG B   1       3.934  21.620   8.2540  0.00  0.00     0.000 C
ATOM     18   O  NAG B   1       3.605  19.289   8.1000  0.00  0.00     0.000 OA
ENDBRANCH 2 16
BRANCH 1 19
ATOM     19  O4  BDP B   2       7.345  21.440   7.4860  0.00  0.00     0.000 O
BRANCH 19 23
ATOM     20  C1  BDP B   2      11.108  19.796   7.7720  0.00  0.00     0.000 C
ATOM     21  C2  BDP B   2       9.946  18.824   7.7780  0.00  0.00     0.000 C
ATOM     22  C3  BDP B   2       8.685  19.474   7.2550  0.00  0.00     0.000 C
ATOM     23  C4  BDP B   2       8.436  20.752   8.0500  0.00  0.00     0.000 C
ATOM     24  C5  BDP B   2       9.656  21.647   7.9620  0.00  0.00     0.000 C
ATOM     25  O5  BDP B   2      10.779  20.972   8.4970  0.00  0.00     0.000 O
ATOM     26   O  BDP B   2      10.255  17.689   6.9980  0.00  0.00     0.000 O
ATOM     28  HD  BDP B   2      11.035  18.061   7.0490  0.00  0.00     0.000 HD
ATOM     28   O  BDP B   2       7.594  18.547   7.3670  0.00  0.00     0.000 O
ATOM     30  HD  BDP B   2       8.374  18.919   7.4180  0.00  0.00     0.000 HD
BRANCH 24 30
ATOM     30   C  BDP B   2       9.484  22.910   8.7270  0.00  0.00     0.000 C
ATOM     31   O  BDP B   2       9.703  23.984   8.1200  0.00  0.00     0.000 OA
ATOM     32   O  BDP B   2       9.136  22.835   9.9400  0.00  0.00     0.000 OA
ENDBRANCH 24 30
BRANCH 20 33
ATOM     33  O3  NAG B   3      12.131  19.107   8.4480  0.00  0.00     0.000 O
BRANCH 33 36
ATOM     34  C1  NAG B   3      15.683  18.439   7.4040  0.00  0.00     0.000 C
ATOM     35  C2  NAG B   3      14.239  18.136   7.7580  0.00  0.00     0.000 C
ATOM     36  C3  NAG B   3      13.422  19.427   7.9210  0.00  0.00     0.000 C
ATOM     37  C4  NAG B   3      14.137  20.359   8.8960  0.00  0.00     0.000 C
ATOM     38  C5  NAG B   3      15.600  20.524   8.4930  0.00  0.00     0.000 C
ATOM     39  O5  NAG B   3      16.230  19.256   8.4280  0.00  0.00     0.000 O
ATOM     40   O  NAG B   3      13.496  21.644   8.9060  0.00  0.00     0.000 O
ATOM     42  HD  NAG B   3      14.302  21.910   8.7340  0.00  0.00     0.000 HD
ATOM     42   C  NAG B   3      16.425  21.338   9.4870  0.00  0.00     0.000 C
ATOM     43   O  NAG B   3      16.516  20.628  10.7280  0.00  0.00     0.000 O
ATOM     45  HD  NAG B   3      17.322  20.893  10.5560  0.00  0.00     0.000 HD
BRANCH 35 47
ATOM     45   N  NAG B   3      13.736  16.781   7.9400  0.00  0.00     0.000 N
ATOM     47  HD  NAG B   3      13.749  17.234   8.6780  0.00  0.00     0.000 HD
ATOM     47   C  NAG B   3      12.970  16.176   7.0540  0.00  0.00     0.000 C
ATOM     48   C  NAG B   3      12.522  14.788   7.4070  0.00  0.00     0.000 C
ATOM     49   O  NAG B   3      12.619  16.725   6.0120  0.00  0.00     0.000 OA
ENDBRANCH 35 47
BRANCH 34 50
ATOM     50  O4  BDP B   4      16.301  17.169   7.4050  0.00  0.00     0.000 O
BRANCH 50 54
ATOM     51  C1  BDP B   4      18.971  14.784   5.4730  0.00  0.00     0.000 C
ATOM     52  C2  BDP B   4      19.603  15.873   6.3330  0.00  0.00     0.000 C
ATOM     53  C3  BDP B   4      18.560  16.418   7.2590  0.00  0.00     0.000 C
ATOM     54  C4  BDP B   4      17.330  16.902   6.4380  0.00  0.00     0.000 C
ATOM     55  C5  BDP B   4      16.849  15.854   5.4430  0.00  0.00     0.000 C
ATOM     56  O5  BDP B   4      17.943  15.351   4.6820  0.00  0.00     0.000 O
ATOM     57   O  BDP B   4      20.669  15.341   7.0910  0.00  0.00     0.000 O
ATOM     59  HD  BDP B   4      21.383  15.609   6.6800  0.00  0.00     0.000 HD
ATOM     59   O  BDP B   4      19.138  17.567   7.9130  0.00  0.00     0.000 O
ATOM     61  HD  BDP B   4      19.852  17.834   7.5020  0.00  0.00     0.000 HD
BRANCH 55 61
ATOM     61   C  BDP B   4      15.835  16.483   4.5040  0.00  0.00     0.000 C
ATOM     62   O  BDP B   4      15.992  17.692   4.1880  0.00  0.00     0.000 OA
ATOM     63   O  BDP B   4      14.880  15.763   4.0820  0.00  0.00     0.000 OA
ENDBRANCH 55 61
BRANCH 51 64
ATOM     64  O3  NAG B   5      20.013  14.237   4.6420  0.00  0.00     0.000 O
BRANCH 64 67
ATOM     65  C1  NAG B   5      20.071  10.644   3.8180  0.00  0.00     0.000 C
ATOM     66  C2  NAG B   5      20.266  11.910   4.6340  0.00  0.00     0.000 C
ATOM     67  C3  NAG B   5      19.597  13.086   3.9340  0.00  0.00     0.000 C
ATOM     68  C4  NAG B   5      20.056  13.192   2.4730  0.00  0.00     0.000 C
ATOM     69  C5  NAG B   5      19.909  11.854   1.7660  0.00  0.00     0.000 C
ATOM     70  O5  NAG B   5      20.577  10.828   2.5160  0.00  0.00     0.000 O
ATOM     71   O  NAG B   5      19.297  14.195   1.8320  0.00  0.00     0.000 O
ATOM     73  HD  NAG B   5      20.070  14.395   1.4960  0.00  0.00     0.000 HD
ATOM     73   C  NAG B   5      20.463  11.831   0.3340  0.00  0.00     0.000 C
ATOM     74   O  NAG B   5      21.889  12.050   0.3640  0.00  0.00     0.000 O
ATOM     76  HD  NAG B   5      22.662  12.251   0.0280  0.00  0.00     0.000 HD
BRANCH 66 78
ATOM     76   N  NAG B   5      19.772  11.494   5.9610  0.00  0.00     0.000 N
ATOM     78  HD  NAG B   5      20.483  11.865   5.6330  0.00  0.00     0.000 HD
ATOM     78   C  NAG B   5      20.324  11.809   7.1430  0.00  0.00     0.000 C
ATOM     79   C  NAG B   5      19.577  11.250   8.3220  0.00  0.00     0.000 C
ATOM     80   O  NAG B   5      21.391  12.512   7.2550  0.00  0.00     0.000 OA
ENDBRANCH 66 78
BRANCH 65 81
ATOM     81  O4  BDP B   6      20.738   9.544   4.4490  0.00  0.00     0.000 O
BRANCH 81 85
ATOM     82  C1  BDP B   6      20.623   5.261   4.5550  0.00  0.00     0.000 C
ATOM     83  C2  BDP B   6      21.316   5.919   3.3640  0.00  0.00     0.000 C
ATOM     84  C3  BDP B   6      21.661   7.390   3.6150  0.00  0.00     0.000 C
ATOM     85  C4  BDP B   6      20.452   8.185   4.1100  0.00  0.00     0.000 C
ATOM     86  C5  BDP B   6      19.818   7.404   5.2870  0.00  0.00     0.000 C
ATOM     87  O5  BDP B   6      19.484   6.029   4.9120  0.00  0.00     0.000 O
ATOM     88   O  BDP B   6      22.515   5.175   3.1630  0.00  0.00     0.000 O
ATOM     90  HD  BDP B   6      23.353   5.297   2.9810  0.00  0.00     0.000 HD
ATOM     90   O  BDP B   6      22.200   7.966   2.4230  0.00  0.00     0.000 O
ATOM     92  HD  BDP B   6      23.038   8.087   2.2410  0.00  0.00     0.000 HD
BRANCH 86 92
ATOM     92   C  BDP B   6      18.488   8.007   5.6680  0.00  0.00     0.000 C
ATOM     93   O  BDP B   6      17.493   7.862   4.8950  0.00  0.00     0.000 OA
ATOM     94   O  BDP B   6      18.420   8.625   6.7760  0.00  0.00     0.000 OA
ENDBRANCH 86 92
BRANCH 82 95
ATOM     95  O3  NAG B   7      20.168   3.956   4.1490  0.00  0.00     0.000 O
BRANCH 95 98
ATOM     96  C1  NAG B   7      20.383   0.657   5.7030  0.00  0.00     0.000 C
ATOM     97  C2  NAG B   7      20.586   1.698   4.6100  0.00  0.00     0.000 C
ATOM     98  C3  NAG B   7      19.922   2.965   5.1460  0.00  0.00     0.000 C
ATOM     99  C4  NAG B   7      18.439   2.704   5.4020  0.00  0.00     0.000 C
ATOM    100  C5  NAG B   7      18.247   1.491   6.3120  0.00  0.00     0.000 C
ATOM    101  O5  NAG B   7      18.978   0.396   5.7810  0.00  0.00     0.000 O
BRANCH 97 104
ATOM    102   N  NAG B   7      21.689   2.007   3.6890  0.00  0.00     0.000 N
ATOM    104  HD  NAG B   7      22.270   1.954   3.0500  0.00  0.00     0.000 HD
ATOM    104   O  NAG B   7      23.825   2.438   3.0710  0.00  0.00     0.000 OA
ATOM    105   C  NAG B   7      22.984   2.246   3.9710  0.00  0.00     0.000 C
ATOM    106   C  NAG B   7      23.423   2.267   5.3950  0.00  0.00     0.000 C
ENDBRANCH 97 104
ATOM    107   O  NAG B   7      16.649   0.259   7.5090  0.00  0.00     0.000 O
ATOM    109  HD  NAG B   7      17.457   0.571   7.5210  0.00  0.00     0.000 HD
ATOM    109   O  NAG B   7      16.649   0.259   7.5090  0.00  0.00     0.000 O
ATOM    111  HD  NAG B   7      17.457   0.571   7.5210  0.00  0.00     0.000 HD
ENDBRANCH 95 98
ENDBRANCH 82 95
ENDBRANCH 81 85
ENDBRANCH 65 81
ENDBRANCH 64 67
ENDBRANCH 51 64
ENDBRANCH 50 54
ENDBRANCH 34 50
ENDBRANCH 33 36
ENDBRANCH 20 33
ENDBRANCH 19 23
ENDBRANCH 1 19
TORSDOF 19
ENDMDL
MODEL 31
REMARK VINA RESULT:      -6.0      4.639     17.968
ROOT
ATOM      1  C1  NAG B   1      16.950  21.717   1.5060  0.00  0.00     0.000 C
ATOM      2  C2  NAG B   1      16.058  22.954   1.5390  0.00  0.00     0.000 C
ATOM      3  C3  NAG B   1      16.865  24.234   1.4660  0.00  0.00     0.000 C
ATOM      4  C4  NAG B   1      17.826  24.179   2.6490  0.00  0.00     0.000 C
ATOM      5  C5  NAG B   1      18.773  22.986   2.4720  0.00  0.00     0.000 C
ATOM      6  O5  NAG B   1      18.042  21.741   2.4390  0.00  0.00     0.000 O
ATOM      7   O  NAG B   1      16.028  25.411   1.5360  0.00  0.00     0.000 O
ATOM      9  HD  NAG B   1      15.530  24.854   1.0970  0.00  0.00     0.000 HD
ATOM      9   O  NAG B   1      18.576  25.381   2.7240  0.00  0.00     0.000 O
ATOM     11  HD  NAG B   1      18.078  24.824   2.2860  0.00  0.00     0.000 HD
ATOM     11   C  NAG B   1      19.835  22.992   3.5780  0.00  0.00     0.000 C
ATOM     12   O  NAG B   1      20.286  21.671   3.8710  0.00  0.00     0.000 O
ATOM     14  HD  NAG B   1      19.789  21.114   3.4320  0.00  0.00     0.000 HD
ENDROOT
BRANCH 2 16
ATOM     14   N  NAG B   1      15.044  22.517   0.5620  0.00  0.00     0.000 N
ATOM     16  HD  NAG B   1      14.447  21.908   0.4150  0.00  0.00     0.000 HD
ATOM     16   C  NAG B   1      13.731  22.765   0.7060  0.00  0.00     0.000 C
ATOM     17   C  NAG B   1      13.233  23.498   1.9230  0.00  0.00     0.000 C
ATOM     18   O  NAG B   1      12.920  22.428  -0.1560  0.00  0.00     0.000 OA
ENDBRANCH 2 16
BRANCH 1 19
ATOM     19  O4  BDP B   2      16.083  20.680   1.9460  0.00  0.00     0.000 O
BRANCH 19 23
ATOM     20  C1  BDP B   2      16.135  17.850   4.9340  0.00  0.00     0.000 C
ATOM     21  C2  BDP B   2      16.045  19.296   5.3780  0.00  0.00     0.000 C
ATOM     22  C3  BDP B   2      15.616  20.193   4.2390  0.00  0.00     0.000 C
ATOM     23  C4  BDP B   2      16.553  19.956   3.0580  0.00  0.00     0.000 C
ATOM     24  C5  BDP B   2      16.550  18.484   2.6990  0.00  0.00     0.000 C
ATOM     25  O5  BDP B   2      16.992  17.725   3.8090  0.00  0.00     0.000 O
ATOM     26   O  BDP B   2      15.139  19.423   6.4520  0.00  0.00     0.000 O
ATOM     28  HD  BDP B   2      15.222  18.562   6.4170  0.00  0.00     0.000 HD
ATOM     28   O  BDP B   2      15.636  21.560   4.6790  0.00  0.00     0.000 O
ATOM     30  HD  BDP B   2      15.719  20.698   4.6450  0.00  0.00     0.000 HD
BRANCH 24 30
ATOM     30   C  BDP B   2      17.455  18.182   1.5590  0.00  0.00     0.000 C
ATOM     31   O  BDP B   2      16.939  17.681   0.5330  0.00  0.00     0.000 OA
ATOM     32   O  BDP B   2      18.687  18.435   1.6850  0.00  0.00     0.000 OA
ENDBRANCH 24 30
BRANCH 20 33
ATOM     33  O3  NAG B   3      16.716  17.192   6.0340  0.00  0.00     0.000 O
BRANCH 33 36
ATOM     34  C1  NAG B   3      16.047  13.637   7.0660  0.00  0.00     0.000 C
ATOM     35  C2  NAG B   3      15.932  15.150   7.0710  0.00  0.00     0.000 C
ATOM     36  C3  NAG B   3      16.678  15.771   5.8800  0.00  0.00     0.000 C
ATOM     37  C4  NAG B   3      18.108  15.239   5.8460  0.00  0.00     0.000 C
ATOM     38  C5  NAG B   3      18.108  13.715   5.9310  0.00  0.00     0.000 C
ATOM     39  O5  NAG B   3      17.425  13.297   7.1010  0.00  0.00     0.000 O
ATOM     40   O  NAG B   3      18.756  15.650   4.6320  0.00  0.00     0.000 O
ATOM     42  HD  NAG B   3      18.896  14.798   4.5650  0.00  0.00     0.000 HD
ATOM     42   C  NAG B   3      19.503  13.103   6.0350  0.00  0.00     0.000 C
ATOM     43   O  NAG B   3      20.105  13.490   7.2760  0.00  0.00     0.000 O
ATOM     45  HD  NAG B   3      20.246  12.638   7.2080  0.00  0.00     0.000 HD
BRANCH 35 47
ATOM     45   N  NAG B   3      15.220  15.886   8.1080  0.00  0.00     0.000 N
ATOM     47  HD  NAG B   3      16.075  16.020   8.1310  0.00  0.00     0.000 HD
ATOM     47   C  NAG B   3      14.041  16.443   7.9110  0.00  0.00     0.000 C
ATOM     48   C  NAG B   3      13.456  17.181   9.0780  0.00  0.00     0.000 C
ATOM     49   O  NAG B   3      13.466  16.384   6.8260  0.00  0.00     0.000 OA
ENDBRANCH 35 47
BRANCH 34 50
ATOM     50  O4  BDP B   4      15.414  13.250   8.2680  0.00  0.00     0.000 O
BRANCH 50 54
ATOM     51  C1  BDP B   4      13.449  10.145  10.0140  0.00  0.00     0.000 C
ATOM     52  C2  BDP B   4      14.588   9.732   9.0900  0.00  0.00     0.000 C
ATOM     53  C3  BDP B   4      15.445  10.930   8.8200  0.00  0.00     0.000 C
ATOM     54  C4  BDP B   4      14.570  12.087   8.2580  0.00  0.00     0.000 C
ATOM     55  C5  BDP B   4      13.329  12.338   9.1050  0.00  0.00     0.000 C
ATOM     56  O5  BDP B   4      12.647  11.115   9.3640  0.00  0.00     0.000 O
ATOM     57   O  BDP B   4      15.370   8.724   9.6950  0.00  0.00     0.000 O
ATOM     59  HD  BDP B   4      15.126   7.993   9.3010  0.00  0.00     0.000 HD
ATOM     59   O  BDP B   4      16.389  10.550   7.7970  0.00  0.00     0.000 O
ATOM     61  HD  BDP B   4      16.145   9.818   7.4030  0.00  0.00     0.000 HD
BRANCH 55 61
ATOM     61   C  BDP B   4      12.399  13.281   8.3620  0.00  0.00     0.000 C
ATOM     62   O  BDP B   4      12.385  13.228   7.1050  0.00  0.00     0.000 OA
ATOM     63   O  BDP B   4      11.680  14.074   9.0430  0.00  0.00     0.000 OA
ENDBRANCH 55 61
BRANCH 51 64
ATOM     64  O3  NAG B   5      12.683   8.960  10.3050  0.00  0.00     0.000 O
BRANCH 64 67
ATOM     65  C1  NAG B   5      11.463   7.797  13.5840  0.00  0.00     0.000 C
ATOM     66  C2  NAG B   5      12.369   7.902  12.3690  0.00  0.00     0.000 C
ATOM     67  C3  NAG B   5      11.935   9.075  11.4990  0.00  0.00     0.000 C
ATOM     68  C4  NAG B   5      10.437   8.995  11.1730  0.00  0.00     0.000 C
ATOM     69  C5  NAG B   5       9.621   8.797  12.4410  0.00  0.00     0.000 C
ATOM     70  O5  NAG B   5      10.121   7.669  13.1730  0.00  0.00     0.000 O
ATOM     71   O  NAG B   5      10.057  10.176  10.4990  0.00  0.00     0.000 O
ATOM     73  HD  NAG B   5       9.615   9.612  10.0130  0.00  0.00     0.000 HD
ATOM     73   C  NAG B   5       8.121   8.578  12.1990  0.00  0.00     0.000 C
ATOM     74   O  NAG B   5       7.923   7.351  11.4670  0.00  0.00     0.000 O
ATOM     76  HD  NAG B   5       7.480   6.787  10.9810  0.00  0.00     0.000 HD
BRANCH 66 78
ATOM     76   N  NAG B   5      13.705   7.926  12.9950  0.00  0.00     0.000 N
ATOM     78  HD  NAG B   5      13.302   7.483  12.3690  0.00  0.00     0.000 HD
ATOM     78   C  NAG B   5      14.800   7.297  12.5400  0.00  0.00     0.000 C
ATOM     79   C  NAG B   5      16.020   7.529  13.3900  0.00  0.00     0.000 C
ATOM     80   O  NAG B   5      14.804   6.563  11.4890  0.00  0.00     0.000 OA
ENDBRANCH 66 78
BRANCH 65 81
ATOM     81  O4  BDP B   6      11.838   6.667  14.3820  0.00  0.00     0.000 O
BRANCH 81 85
ATOM     82  C1  BDP B   6      10.737   4.716  18.0350  0.00  0.00     0.000 C
ATOM     83  C2  BDP B   6       9.856   4.473  16.8120  0.00  0.00     0.000 C
ATOM     84  C3  BDP B   6      10.541   4.862  15.4990  0.00  0.00     0.000 C
ATOM     85  C4  BDP B   6      11.107   6.283  15.5490  0.00  0.00     0.000 C
ATOM     86  C5  BDP B   6      11.946   6.416  16.8410  0.00  0.00     0.000 C
ATOM     87  O5  BDP B   6      11.171   6.068  18.0330  0.00  0.00     0.000 O
ATOM     88   O  BDP B   6       9.584   3.074  16.8110  0.00  0.00     0.000 O
ATOM     90  HD  BDP B   6       9.533   2.404  16.2640  0.00  0.00     0.000 HD
ATOM     90   O  BDP B   6       9.619   4.716  14.4160  0.00  0.00     0.000 O
ATOM     92  HD  BDP B   6       9.568   4.046  13.8690  0.00  0.00     0.000 HD
BRANCH 86 92
ATOM     92   C  BDP B   6      12.337   7.855  17.0740  0.00  0.00     0.000 C
ATOM     93   O  BDP B   6      13.395   8.309  16.5410  0.00  0.00     0.000 OA
ATOM     94   O  BDP B   6      11.562   8.565  17.7880  0.00  0.00     0.000 OA
ENDBRANCH 86 92
BRANCH 82 95
ATOM     95  O3  NAG B   7       9.939   4.508  19.2170  0.00  0.00     0.000 O
BRANCH 95 98
ATOM     96  C1  NAG B   7      10.466   2.824  22.4140  0.00  0.00     0.000 C
ATOM     97  C2  NAG B   7       9.735   3.161  21.1210  0.00  0.00     0.000 C
ATOM     98  C3  NAG B   7      10.590   4.238  20.4570  0.00  0.00     0.000 C
ATOM     99  C4  NAG B   7      10.697   5.455  21.3730  0.00  0.00     0.000 C
ATOM    100  C5  NAG B   7      11.204   5.052  22.7580  0.00  0.00     0.000 C
ATOM    101  O5  NAG B   7      10.405   3.986  23.2480  0.00  0.00     0.000 O
BRANCH 97 104
ATOM    102   N  NAG B   7       8.993   2.371  20.1290  0.00  0.00     0.000 N
ATOM    104  HD  NAG B   7       8.390   1.881  19.7480  0.00  0.00     0.000 HD
ATOM    104   O  NAG B   7       8.614   0.659  18.6950  0.00  0.00     0.000 OA
ATOM    105   C  NAG B   7       9.382   1.262  19.4720  0.00  0.00     0.000 C
ATOM    106   C  NAG B   7      10.759   0.735  19.6890  0.00  0.00     0.000 C
ENDBRANCH 97 104
ATOM    107   O  NAG B   7      11.920   5.893  24.8280  0.00  0.00     0.000 O
ATOM    109  HD  NAG B   7      12.056   5.287  24.2240  0.00  0.00     0.000 HD
ATOM    109   O  NAG B   7      11.920   5.893  24.8280  0.00  0.00     0.000 O
ATOM    111  HD  NAG B   7      12.056   5.287  24.2240  0.00  0.00     0.000 HD
ENDBRANCH 95 98
ENDBRANCH 82 95
ENDBRANCH 81 85
ENDBRANCH 65 81
ENDBRANCH 64 67
ENDBRANCH 51 64
ENDBRANCH 50 54
ENDBRANCH 34 50
ENDBRANCH 33 36
ENDBRANCH 20 33
ENDBRANCH 19 23
ENDBRANCH 1 19
TORSDOF 19
ENDMDL
MODEL 32
REMARK VINA RESULT:      -6.0      7.268     16.941
ROOT
ATOM      1  C1  NAG B   1       4.848  21.575   6.6280  0.00  0.00     0.000 C
ATOM      2  C2  NAG B   1       4.069  22.127   5.4380  0.00  0.00     0.000 C
ATOM      3  C3  NAG B   1       2.616  22.381   5.7830  0.00  0.00     0.000 C
ATOM      4  C4  NAG B   1       2.071  21.039   6.2630  0.00  0.00     0.000 C
ATOM      5  C5  NAG B   1       2.816  20.620   7.5370  0.00  0.00     0.000 C
ATOM      6  O5  NAG B   1       4.228  20.457   7.2830  0.00  0.00     0.000 O
ATOM      7   O  NAG B   1       1.862  22.867   4.6490  0.00  0.00     0.000 O
ATOM      9  HD  NAG B   1       2.640  23.227   4.5250  0.00  0.00     0.000 HD
ATOM      9   O  NAG B   1       0.683  21.145   6.5330  0.00  0.00     0.000 O
ATOM     11  HD  NAG B   1       1.460  21.505   6.4080  0.00  0.00     0.000 HD
ATOM     11   C  NAG B   1       2.192  19.343   8.1130  0.00  0.00     0.000 C
ATOM     12   O  NAG B   1       3.156  18.572   8.8280  0.00  0.00     0.000 O
ATOM     14  HD  NAG B   1       3.934  18.932   8.7040  0.00  0.00     0.000 HD
ENDROOT
BRANCH 2 16
ATOM     14   N  NAG B   1       4.994  22.235   4.2950  0.00  0.00     0.000 N
ATOM     16  HD  NAG B   1       5.018  22.315   3.4330  0.00  0.00     0.000 HD
ATOM     16   C  NAG B   1       5.295  23.403   3.7020  0.00  0.00     0.000 C
ATOM     17   C  NAG B   1       4.655  24.678   4.1840  0.00  0.00     0.000 C
ATOM     18   O  NAG B   1       6.110  23.460   2.7820  0.00  0.00     0.000 OA
ENDBRANCH 2 16
BRANCH 1 19
ATOM     19  O4  BDP B   2       6.036  21.071   6.0320  0.00  0.00     0.000 O
BRANCH 19 23
ATOM     20  C1  BDP B   2       9.852  20.235   7.3280  0.00  0.00     0.000 C
ATOM     21  C2  BDP B   2       8.779  19.235   7.7040  0.00  0.00     0.000 C
ATOM     22  C3  BDP B   2       7.545  19.406   6.8480  0.00  0.00     0.000 C
ATOM     23  C4  BDP B   2       7.099  20.864   6.9310  0.00  0.00     0.000 C
ATOM     24  C5  BDP B   2       8.247  21.766   6.5220  0.00  0.00     0.000 C
ATOM     25  O5  BDP B   2       9.344  21.560   7.3910  0.00  0.00     0.000 O
ATOM     26   O  BDP B   2       9.270  17.918   7.5730  0.00  0.00     0.000 O
ATOM     28  HD  BDP B   2      10.006  18.368   7.4990  0.00  0.00     0.000 HD
ATOM     28   O  BDP B   2       6.525  18.503   7.3020  0.00  0.00     0.000 O
ATOM     30  HD  BDP B   2       7.261  18.954   7.2290  0.00  0.00     0.000 HD
BRANCH 24 30
ATOM     30   C  BDP B   2       7.881  23.205   6.5910  0.00  0.00     0.000 C
ATOM     31   O  BDP B   2       7.801  23.830   5.5080  0.00  0.00     0.000 OA
ATOM     32   O  BDP B   2       7.681  23.721   7.7280  0.00  0.00     0.000 OA
ENDBRANCH 24 30
BRANCH 20 33
ATOM     33  O3  NAG B   3      10.836  20.070   8.3200  0.00  0.00     0.000 O
BRANCH 33 36
ATOM     34  C1  NAG B   3      14.535  19.719   7.7320  0.00  0.00     0.000 C
ATOM     35  C2  NAG B   3      13.107  19.289   8.0120  0.00  0.00     0.000 C
ATOM     36  C3  NAG B   3      12.129  20.463   7.8540  0.00  0.00     0.000 C
ATOM     37  C4  NAG B   3      12.617  21.644   8.6900  0.00  0.00     0.000 C
ATOM     38  C5  NAG B   3      14.085  21.934   8.3900  0.00  0.00     0.000 C
ATOM     39  O5  NAG B   3      14.864  20.774   8.6240  0.00  0.00     0.000 O
ATOM     40   O  NAG B   3      11.830  22.810   8.3990  0.00  0.00     0.000 O
ATOM     42  HD  NAG B   3      12.613  23.149   8.2490  0.00  0.00     0.000 HD
ATOM     42   C  NAG B   3      14.694  23.017   9.2770  0.00  0.00     0.000 C
ATOM     43   O  NAG B   3      14.731  22.560  10.6340  0.00  0.00     0.000 O
ATOM     45  HD  NAG B   3      15.514  22.899  10.4840  0.00  0.00     0.000 HD
BRANCH 35 47
ATOM     45   N  NAG B   3      12.826  17.906   8.3760  0.00  0.00     0.000 N
ATOM     47  HD  NAG B   3      12.769  18.447   9.0500  0.00  0.00     0.000 HD
ATOM     47   C  NAG B   3      12.164  17.079   7.5920  0.00  0.00     0.000 C
ATOM     48   C  NAG B   3      11.944  15.695   8.1270  0.00  0.00     0.000 C
ATOM     49   O  NAG B   3      11.729  17.428   6.4970  0.00  0.00     0.000 OA
ENDBRANCH 35 47
BRANCH 34 50
ATOM     50  O4  BDP B   4      15.295  18.567   8.0300  0.00  0.00     0.000 O
BRANCH 50 54
ATOM     51  C1  BDP B   4      18.011  16.033   6.3700  0.00  0.00     0.000 C
ATOM     52  C2  BDP B   4      18.605  17.049   7.3390  0.00  0.00     0.000 C
ATOM     53  C3  BDP B   4      17.493  17.650   8.1440  0.00  0.00     0.000 C
ATOM     54  C4  BDP B   4      16.417  18.246   7.1920  0.00  0.00     0.000 C
ATOM     55  C5  BDP B   4      15.993  17.262   6.1100  0.00  0.00     0.000 C
ATOM     56  O5  BDP B   4      17.136  16.696   5.4750  0.00  0.00     0.000 O
ATOM     57   O  BDP B   4      19.524  16.420   8.2070  0.00  0.00     0.000 O
ATOM     59  HD  BDP B   4      20.302  16.642   7.8990  0.00  0.00     0.000 HD
ATOM     59   O  BDP B   4      18.064  18.735   8.9040  0.00  0.00     0.000 O
ATOM     61  HD  BDP B   4      18.843  18.957   8.5960  0.00  0.00     0.000 HD
BRANCH 55 61
ATOM     61   C  BDP B   4      15.156  17.989   5.0730  0.00  0.00     0.000 C
ATOM     62   O  BDP B   4      15.587  19.085   4.6280  0.00  0.00     0.000 OA
ATOM     63   O  BDP B   4      14.065  17.458   4.7020  0.00  0.00     0.000 OA
ENDBRANCH 55 61
BRANCH 51 64
ATOM     64  O3  NAG B   5      19.109  15.429   5.6590  0.00  0.00     0.000 O
BRANCH 64 67
ATOM     65  C1  NAG B   5      19.194  11.932   4.4930  0.00  0.00     0.000 C
ATOM     66  C2  NAG B   5      19.381  13.116   5.4270  0.00  0.00     0.000 C
ATOM     67  C3  NAG B   5      18.700  14.348   4.8440  0.00  0.00     0.000 C
ATOM     68  C4  NAG B   5      19.154  14.597   3.3990  0.00  0.00     0.000 C
ATOM     69  C5  NAG B   5      19.017  13.332   2.5670  0.00  0.00     0.000 C
ATOM     70  O5  NAG B   5      19.695  12.245   3.2140  0.00  0.00     0.000 O
ATOM     71   O  NAG B   5      18.385  15.651   2.8600  0.00  0.00     0.000 O
ATOM     73  HD  NAG B   5      19.156  15.889   2.5430  0.00  0.00     0.000 HD
ATOM     73   C  NAG B   5      19.567  13.452   1.1390  0.00  0.00     0.000 C
ATOM     74   O  NAG B   5      20.991  13.679   1.1870  0.00  0.00     0.000 O
ATOM     76  HD  NAG B   5      21.761  13.918   0.8710  0.00  0.00     0.000 HD
BRANCH 66 78
ATOM     76   N  NAG B   5      18.791  12.806   6.7430  0.00  0.00     0.000 N
ATOM     78  HD  NAG B   5      19.583  12.900   6.4060  0.00  0.00     0.000 HD
ATOM     78   C  NAG B   5      19.446  12.775   7.9140  0.00  0.00     0.000 C
ATOM     79   C  NAG B   5      18.564  12.445   9.0870  0.00  0.00     0.000 C
ATOM     80   O  NAG B   5      20.705  12.995   8.0210  0.00  0.00     0.000 OA
ENDBRANCH 66 78
BRANCH 65 81
ATOM     81  O4  BDP B   6      19.872  10.782   5.0140  0.00  0.00     0.000 O
BRANCH 81 85
ATOM     82  C1  BDP B   6      19.567   6.507   5.0440  0.00  0.00     0.000 C
ATOM     83  C2  BDP B   6      19.612   7.202   3.6850  0.00  0.00     0.000 C
ATOM     84  C3  BDP B   6      20.124   8.643   3.7700  0.00  0.00     0.000 C
ATOM     85  C4  BDP B   6      19.373   9.455   4.8270  0.00  0.00     0.000 C
ATOM     86  C5  BDP B   6      19.366   8.637   6.1400  0.00  0.00     0.000 C
ATOM     87  O5  BDP B   6      18.807   7.298   5.9460  0.00  0.00     0.000 O
ATOM     88   O  BDP B   6      20.503   6.425   2.8900  0.00  0.00     0.000 O
ATOM     90  HD  BDP B   6      21.144   6.524   2.3160  0.00  0.00     0.000 HD
ATOM     90   O  BDP B   6      20.030   9.262   2.4850  0.00  0.00     0.000 O
ATOM     92  HD  BDP B   6      20.670   9.361   1.9110  0.00  0.00     0.000 HD
BRANCH 86 92
ATOM     92   C  BDP B   6      18.442   9.269   7.1530  0.00  0.00     0.000 C
ATOM     93   O  BDP B   6      17.434   9.926   6.7540  0.00  0.00     0.000 OA
ATOM     94   O  BDP B   6      18.709   9.090   8.3820  0.00  0.00     0.000 OA
ENDBRANCH 86 92
BRANCH 82 95
ATOM     95  O3  NAG B   7      18.892   5.244   4.8850  0.00  0.00     0.000 O
BRANCH 95 98
ATOM     96  C1  NAG B   7      19.510   1.661   5.2320  0.00  0.00     0.000 C
ATOM     97  C2  NAG B   7      18.840   2.912   4.6790  0.00  0.00     0.000 C
ATOM     98  C3  NAG B   7      19.475   4.069   5.4480  0.00  0.00     0.000 C
ATOM     99  C4  NAG B   7      19.209   3.907   6.9420  0.00  0.00     0.000 C
ATOM    100  C5  NAG B   7      19.669   2.534   7.4330  0.00  0.00     0.000 C
ATOM    101  O5  NAG B   7      19.103   1.534   6.5990  0.00  0.00     0.000 O
BRANCH 97 104
ATOM    102   N  NAG B   7      19.081   3.291   3.2800  0.00  0.00     0.000 N
ATOM    104  HD  NAG B   7      19.277   3.746   2.5700  0.00  0.00     0.000 HD
ATOM    104   O  NAG B   7      18.562   3.671   1.1090  0.00  0.00     0.000 OA
ATOM    105   C  NAG B   7      18.230   3.258   2.2370  0.00  0.00     0.000 C
ATOM    106   C  NAG B   7      16.853   2.728   2.4430  0.00  0.00     0.000 C
ENDBRANCH 97 104
ATOM    107   O  NAG B   7      19.978   1.216   9.3490  0.00  0.00     0.000 O
ATOM    109  HD  NAG B   7      20.307   1.432   8.5770  0.00  0.00     0.000 HD
ATOM    109   O  NAG B   7      19.978   1.216   9.3490  0.00  0.00     0.000 O
ATOM    111  HD  NAG B   7      20.307   1.432   8.5770  0.00  0.00     0.000 HD
ENDBRANCH 95 98
ENDBRANCH 82 95
ENDBRANCH 81 85
ENDBRANCH 65 81
ENDBRANCH 64 67
ENDBRANCH 51 64
ENDBRANCH 50 54
ENDBRANCH 34 50
ENDBRANCH 33 36
ENDBRANCH 20 33
ENDBRANCH 19 23
ENDBRANCH 1 19
TORSDOF 19
ENDMDL
MODEL 33
REMARK VINA RESULT:      -5.9      3.841     17.938
ROOT
ATOM      1  C1  NAG B   1      15.500  23.736   4.5090  0.00  0.00     0.000 C
ATOM      2  C2  NAG B   1      14.264  24.583   4.8000  0.00  0.00     0.000 C
ATOM      3  C3  NAG B   1      14.631  25.944   5.3540  0.00  0.00     0.000 C
ATOM      4  C4  NAG B   1      15.454  25.666   6.6080  0.00  0.00     0.000 C
ATOM      5  C5  NAG B   1      16.740  24.929   6.2130  0.00  0.00     0.000 C
ATOM      6  O5  NAG B   1      16.443  23.661   5.5900  0.00  0.00     0.000 O
ATOM      7   O  NAG B   1      13.464  26.738   5.6690  0.00  0.00     0.000 O
ATOM      9  HD  NAG B   1      13.207  26.297   4.9690  0.00  0.00     0.000 HD
ATOM      9   O  NAG B   1      15.779  26.884   7.2590  0.00  0.00     0.000 O
ATOM     11  HD  NAG B   1      15.522  26.443   6.5590  0.00  0.00     0.000 HD
ATOM     11   C  NAG B   1      17.645  24.762   7.4390  0.00  0.00     0.000 C
ATOM     12   O  NAG B   1      18.461  23.597   7.3250  0.00  0.00     0.000 O
ATOM     14  HD  NAG B   1      18.204  23.156   6.6250  0.00  0.00     0.000 HD
ENDROOT
BRANCH 2 16
ATOM     14   N  NAG B   1      13.482  24.548   3.5520  0.00  0.00     0.000 N
ATOM     16  HD  NAG B   1      13.192  24.015   2.9340  0.00  0.00     0.000 HD
ATOM     16   C  NAG B   1      12.197  24.157   3.5010  0.00  0.00     0.000 C
ATOM     17   C  NAG B   1      11.499  23.701   4.7550  0.00  0.00     0.000 C
ATOM     18   O  NAG B   1      11.561  24.189   2.4470  0.00  0.00     0.000 OA
ENDBRANCH 2 16
BRANCH 1 19
ATOM     19  O4  BDP B   2      14.968  22.426   4.3630  0.00  0.00     0.000 O
BRANCH 19 23
ATOM     20  C1  BDP B   2      15.458  18.807   6.2610  0.00  0.00     0.000 C
ATOM     21  C2  BDP B   2      14.816  19.912   7.0740  0.00  0.00     0.000 C
ATOM     22  C3  BDP B   2      14.310  21.024   6.1850  0.00  0.00     0.000 C
ATOM     23  C4  BDP B   2      15.457  21.488   5.2920  0.00  0.00     0.000 C
ATOM     24  C5  BDP B   2      16.008  20.304   4.5220  0.00  0.00     0.000 C
ATOM     25  O5  BDP B   2      16.485  19.329   5.4300  0.00  0.00     0.000 O
ATOM     26   O  BDP B   2      13.752  19.397   7.8450  0.00  0.00     0.000 O
ATOM     28  HD  BDP B   2      14.123  18.662   7.5780  0.00  0.00     0.000 HD
ATOM     28   O  BDP B   2      13.798  22.088   7.0020  0.00  0.00     0.000 O
ATOM     30  HD  BDP B   2      14.168  21.352   6.7350  0.00  0.00     0.000 HD
BRANCH 24 30
ATOM     30   C  BDP B   2      17.141  20.687   3.6380  0.00  0.00     0.000 C
ATOM     31   O  BDP B   2      16.987  20.526   2.4050  0.00  0.00     0.000 OA
ATOM     32   O  BDP B   2      18.193  21.142   4.1710  0.00  0.00     0.000 OA
ENDBRANCH 24 30
BRANCH 20 33
ATOM     33  O3  NAG B   3      16.031  17.961   7.2280  0.00  0.00     0.000 O
BRANCH 33 36
ATOM     34  C1  NAG B   3      15.591  14.251   7.6710  0.00  0.00     0.000 C
ATOM     35  C2  NAG B   3      15.453  15.731   7.9740  0.00  0.00     0.000 C
ATOM     36  C3  NAG B   3      15.994  16.591   6.8210  0.00  0.00     0.000 C
ATOM     37  C4  NAG B   3      17.411  16.139   6.4760  0.00  0.00     0.000 C
ATOM     38  C5  NAG B   3      17.450  14.626   6.2760  0.00  0.00     0.000 C
ATOM     39  O5  NAG B   3      16.964  13.973   7.4360  0.00  0.00     0.000 O
ATOM     40   O  NAG B   3      17.855  16.791   5.2760  0.00  0.00     0.000 O
ATOM     42  HD  NAG B   3      17.998  15.973   5.0310  0.00  0.00     0.000 HD
ATOM     42   C  NAG B   3      18.854  14.069   6.0540  0.00  0.00     0.000 C
ATOM     43   O  NAG B   3      19.635  14.253   7.2420  0.00  0.00     0.000 O
ATOM     45  HD  NAG B   3      19.778  13.435   6.9970  0.00  0.00     0.000 HD
BRANCH 35 47
ATOM     45   N  NAG B   3      14.902  16.247   9.2210  0.00  0.00     0.000 N
ATOM     47  HD  NAG B   3      15.746  16.422   9.1310  0.00  0.00     0.000 HD
ATOM     47   C  NAG B   3      13.693  16.764   9.3110  0.00  0.00     0.000 C
ATOM     48   C  NAG B   3      13.289  17.267  10.6660  0.00  0.00     0.000 C
ATOM     49   O  NAG B   3      12.949  16.854   8.3380  0.00  0.00     0.000 OA
ENDBRANCH 35 47
BRANCH 34 50
ATOM     50  O4  BDP B   4      15.159  13.625   8.8610  0.00  0.00     0.000 O
BRANCH 50 54
ATOM     51  C1  BDP B   4      13.327  10.323  10.3750  0.00  0.00     0.000 C
ATOM     52  C2  BDP B   4      14.509  10.026   9.4590  0.00  0.00     0.000 C
ATOM     53  C3  BDP B   4      15.305  11.282   9.2810  0.00  0.00     0.000 C
ATOM     54  C4  BDP B   4      14.381  12.421   8.7620  0.00  0.00     0.000 C
ATOM     55  C5  BDP B   4      13.109  12.555   9.5880  0.00  0.00     0.000 C
ATOM     56  O5  BDP B   4      12.489  11.284   9.7590  0.00  0.00     0.000 O
ATOM     57   O  BDP B   4      15.331   9.028  10.0280  0.00  0.00     0.000 O
ATOM     59  HD  BDP B   4      15.137   8.308   9.5860  0.00  0.00     0.000 HD
ATOM     59   O  BDP B   4      16.293  11.013   8.2650  0.00  0.00     0.000 O
ATOM     61  HD  BDP B   4      16.099  10.293   7.8230  0.00  0.00     0.000 HD
BRANCH 55 61
ATOM     61   C  BDP B   4      12.146  13.488   8.8760  0.00  0.00     0.000 C
ATOM     62   O  BDP B   4      11.390  14.207   9.5800  0.00  0.00     0.000 OA
ATOM     63   O  BDP B   4      12.149  13.501   7.6070  0.00  0.00     0.000 OA
ENDBRANCH 55 61
BRANCH 51 64
ATOM     64  O3  NAG B   5      12.621   9.083  10.5770  0.00  0.00     0.000 O
BRANCH 64 67
ATOM     65  C1  NAG B   5      11.463   7.537  13.7170  0.00  0.00     0.000 C
ATOM     66  C2  NAG B   5      12.341   7.782  12.5020  0.00  0.00     0.000 C
ATOM     67  C3  NAG B   5      11.903   9.058  11.7950  0.00  0.00     0.000 C
ATOM     68  C4  NAG B   5      10.397   9.036  11.5000  0.00  0.00     0.000 C
ATOM     69  C5  NAG B   5       9.609   8.692  12.7540  0.00  0.00     0.000 C
ATOM     70  O5  NAG B   5      10.110   7.477  13.3280  0.00  0.00     0.000 O
ATOM     71   O  NAG B   5      10.019  10.295  10.9870  0.00  0.00     0.000 O
ATOM     73  HD  NAG B   5       9.557   9.801  10.4460  0.00  0.00     0.000 HD
ATOM     73   C  NAG B   5       8.100   8.522  12.5260  0.00  0.00     0.000 C
ATOM     74   O  NAG B   5       7.867   7.397  11.6530  0.00  0.00     0.000 O
ATOM     76  HD  NAG B   5       7.405   6.903  11.1120  0.00  0.00     0.000 HD
BRANCH 66 78
ATOM     76   N  NAG B   5      13.693   7.716  13.0900  0.00  0.00     0.000 N
ATOM     78  HD  NAG B   5      13.268   7.355  12.4270  0.00  0.00     0.000 HD
ATOM     78   C  NAG B   5      14.767   7.132  12.5350  0.00  0.00     0.000 C
ATOM     79   C  NAG B   5      16.012   7.248  13.3730  0.00  0.00     0.000 C
ATOM     80   O  NAG B   5      14.733   6.527  11.4050  0.00  0.00     0.000 OA
ENDBRANCH 66 78
BRANCH 65 81
ATOM     81  O4  BDP B   6      11.841   6.313  14.3600  0.00  0.00     0.000 O
BRANCH 81 85
ATOM     82  C1  BDP B   6      11.257   4.297  18.0960  0.00  0.00     0.000 C
ATOM     83  C2  BDP B   6      10.229   4.054  16.9950  0.00  0.00     0.000 C
ATOM     84  C3  BDP B   6      10.729   4.472  15.6100  0.00  0.00     0.000 C
ATOM     85  C4  BDP B   6      11.275   5.902  15.6060  0.00  0.00     0.000 C
ATOM     86  C5  BDP B   6      12.274   6.033  16.7800  0.00  0.00     0.000 C
ATOM     87  O5  BDP B   6      11.667   5.656  18.0580  0.00  0.00     0.000 O
ATOM     88   O  BDP B   6       9.981   2.651  17.0090  0.00  0.00     0.000 O
ATOM     90  HD  BDP B   6       9.868   1.988  16.4630  0.00  0.00     0.000 HD
ATOM     90   O  BDP B   6       9.677   4.323  14.6540  0.00  0.00     0.000 O
ATOM     92  HD  BDP B   6       9.564   3.660  14.1080  0.00  0.00     0.000 HD
BRANCH 86 92
ATOM     92   C  BDP B   6      12.670   7.475  16.9810  0.00  0.00     0.000 C
ATOM     93   O  BDP B   6      11.960   8.220  17.7230  0.00  0.00     0.000 OA
ATOM     94   O  BDP B   6      13.727   7.879  16.4050  0.00  0.00     0.000 OA
ENDBRANCH 86 92
BRANCH 82 95
ATOM     95  O3  NAG B   7      10.624   4.061  19.3680  0.00  0.00     0.000 O
BRANCH 95 98
ATOM     96  C1  NAG B   7      11.412   2.136  22.3710  0.00  0.00     0.000 C
ATOM     97  C2  NAG B   7      10.539   2.644  21.2310  0.00  0.00     0.000 C
ATOM     98  C3  NAG B   7      11.420   3.634  20.4730  0.00  0.00     0.000 C
ATOM     99  C4  NAG B   7      11.843   4.770  21.4010  0.00  0.00     0.000 C
ATOM    100  C5  NAG B   7      12.502   4.223  22.6680  0.00  0.00     0.000 C
ATOM    101  O5  NAG B   7      11.650   3.245  23.2450  0.00  0.00     0.000 O
BRANCH 97 104
ATOM    102   N  NAG B   7      10.126   1.737  20.1510  0.00  0.00     0.000 N
ATOM    104  HD  NAG B   7       9.953   1.411  19.3670  0.00  0.00     0.000 HD
ATOM    104   O  NAG B   7       8.704   0.459  18.9360  0.00  0.00     0.000 OA
ATOM    105   C  NAG B   7       8.925   1.166  19.9390  0.00  0.00     0.000 C
ATOM    106   C  NAG B   7       7.829   1.399  20.9230  0.00  0.00     0.000 C
ENDBRANCH 97 104
ATOM    107   O  NAG B   7      13.651   4.838  24.6190  0.00  0.00     0.000 O
ATOM    109  HD  NAG B   7      13.602   4.256  23.9800  0.00  0.00     0.000 HD
ATOM    109   O  NAG B   7      13.651   4.838  24.6190  0.00  0.00     0.000 O
ATOM    111  HD  NAG B   7      13.602   4.256  23.9800  0.00  0.00     0.000 HD
ENDBRANCH 95 98
ENDBRANCH 82 95
ENDBRANCH 81 85
ENDBRANCH 65 81
ENDBRANCH 64 67
ENDBRANCH 51 64
ENDBRANCH 50 54
ENDBRANCH 34 50
ENDBRANCH 33 36
ENDBRANCH 20 33
ENDBRANCH 19 23
ENDBRANCH 1 19
TORSDOF 19
ENDMDL
MODEL 34
REMARK VINA RESULT:      -5.9      4.062     17.270
ROOT
ATOM      1  C1  NAG B   1      13.357  16.128   6.6860  0.00  0.00     0.000 C
ATOM      2  C2  NAG B   1      13.255  17.613   7.0250  0.00  0.00     0.000 C
ATOM      3  C3  NAG B   1      14.186  18.451   6.1730  0.00  0.00     0.000 C
ATOM      4  C4  NAG B   1      15.583  17.892   6.4240  0.00  0.00     0.000 C
ATOM      5  C5  NAG B   1      15.638  16.439   5.9350  0.00  0.00     0.000 C
ATOM      6  O5  NAG B   1      14.697  15.613   6.6530  0.00  0.00     0.000 O
ATOM      7   O  NAG B   1      14.124  19.855   6.5160  0.00  0.00     0.000 O
ATOM      9  HD  NAG B   1      13.306  19.596   6.6380  0.00  0.00     0.000 HD
ATOM      9   O  NAG B   1      16.550  18.668   5.7350  0.00  0.00     0.000 O
ATOM     11  HD  NAG B   1      15.732  18.409   5.8580  0.00  0.00     0.000 HD
ATOM     11   C  NAG B   1      17.070  15.902   6.0520  0.00  0.00     0.000 C
ATOM     12   O  NAG B   1      17.078  14.490   6.2550  0.00  0.00     0.000 O
ATOM     14  HD  NAG B   1      16.261  14.231   6.3770  0.00  0.00     0.000 HD
ENDROOT
BRANCH 2 16
ATOM     14   N  NAG B   1      11.801  17.850   6.9850  0.00  0.00     0.000 N
ATOM     16  HD  NAG B   1      11.045  17.550   7.2840  0.00  0.00     0.000 HD
ATOM     16   C  NAG B   1      11.131  18.475   7.9680  0.00  0.00     0.000 C
ATOM     17   C  NAG B   1      11.865  18.947   9.1960  0.00  0.00     0.000 C
ATOM     18   O  NAG B   1       9.924  18.699   7.8760  0.00  0.00     0.000 OA
ENDBRANCH 2 16
BRANCH 1 19
ATOM     19  O4  BDP B   2      12.723  15.500   7.7920  0.00  0.00     0.000 O
BRANCH 19 23
ATOM     20  C1  BDP B   2      13.752  12.565  10.4880  0.00  0.00     0.000 C
ATOM     21  C2  BDP B   2      14.327  13.943  10.7410  0.00  0.00     0.000 C
ATOM     22  C3  BDP B   2      13.572  15.002   9.9710  0.00  0.00     0.000 C
ATOM     23  C4  BDP B   2      13.539  14.598   8.4990  0.00  0.00     0.000 C
ATOM     24  C5  BDP B   2      12.936  13.213   8.3700  0.00  0.00     0.000 C
ATOM     25  O5  BDP B   2      13.720  12.285   9.0960  0.00  0.00     0.000 O
ATOM     26   O  BDP B   2      14.292  14.242  12.1200  0.00  0.00     0.000 O
ATOM     28  HD  BDP B   2      14.106  13.397  12.1380  0.00  0.00     0.000 HD
ATOM     28   O  BDP B   2      14.208  16.275  10.1660  0.00  0.00     0.000 O
ATOM     30  HD  BDP B   2      14.022  15.429  10.1840  0.00  0.00     0.000 HD
BRANCH 24 30
ATOM     30   C  BDP B   2      12.885  12.751   6.9580  0.00  0.00     0.000 C
ATOM     31   O  BDP B   2      13.901  12.176   6.5050  0.00  0.00     0.000 OA
ATOM     32   O  BDP B   2      11.833  12.969   6.2920  0.00  0.00     0.000 OA
ENDBRANCH 24 30
BRANCH 20 33
ATOM     33  O3  NAG B   3      14.664  11.696  11.1140  0.00  0.00     0.000 O
BRANCH 33 36
ATOM     34  C1  NAG B   3      13.481   8.364  12.3970  0.00  0.00     0.000 C
ATOM     35  C2  NAG B   3      13.738   9.858  12.3900  0.00  0.00     0.000 C
ATOM     36  C3  NAG B   3      14.245  10.332  11.0190  0.00  0.00     0.000 C
ATOM     37  C4  NAG B   3      15.437   9.476  10.5980  0.00  0.00     0.000 C
ATOM     38  C5  NAG B   3      15.096   7.994  10.7250  0.00  0.00     0.000 C
ATOM     39  O5  NAG B   3      14.690   7.703  12.0510  0.00  0.00     0.000 O
ATOM     40   O  NAG B   3      15.796   9.769   9.2390  0.00  0.00     0.000 O
ATOM     42  HD  NAG B   3      15.703   8.912   9.1600  0.00  0.00     0.000 HD
ATOM     42   C  NAG B   3      16.274   7.064  10.4480  0.00  0.00     0.000 C
ATOM     43   O  NAG B   3      17.276   7.246  11.4560  0.00  0.00     0.000 O
ATOM     45  HD  NAG B   3      17.183   6.389  11.3770  0.00  0.00     0.000 HD
BRANCH 35 47
ATOM     45   N  NAG B   3      13.625  10.835  13.4660  0.00  0.00     0.000 N
ATOM     47  HD  NAG B   3      14.405  10.841  13.0910  0.00  0.00     0.000 HD
ATOM     47   C  NAG B   3      12.527  11.529  13.6910  0.00  0.00     0.000 C
ATOM     48   C  NAG B   3      12.586  12.508  14.8260  0.00  0.00     0.000 C
ATOM     49   O  NAG B   3      11.522  11.403  12.9950  0.00  0.00     0.000 OA
ENDBRANCH 35 47
BRANCH 34 50
ATOM     50  O4  BDP B   4      13.138   8.090  13.7400  0.00  0.00     0.000 O
BRANCH 50 54
ATOM     51  C1  BDP B   4      11.670   5.192  16.1900  0.00  0.00     0.000 C
ATOM     52  C2  BDP B   4      13.192   5.238  16.1060  0.00  0.00     0.000 C
ATOM     53  C3  BDP B   4      13.599   6.544  15.4960  0.00  0.00     0.000 C
ATOM     54  C4  BDP B   4      12.889   6.727  14.1240  0.00  0.00     0.000 C
ATOM     55  C5  BDP B   4      11.390   6.477  14.2090  0.00  0.00     0.000 C
ATOM     56  O5  BDP B   4      11.128   5.249  14.8830  0.00  0.00     0.000 O
ATOM     57   O  BDP B   4      13.757   5.127  17.3940  0.00  0.00     0.000 O
ATOM     59  HD  BDP B   4      14.040   4.309  17.4390  0.00  0.00     0.000 HD
ATOM     59   O  BDP B   4      15.020   6.470  15.2560  0.00  0.00     0.000 O
ATOM     61  HD  BDP B   4      15.302   5.652  15.3000  0.00  0.00     0.000 HD
BRANCH 55 61
ATOM     61   C  BDP B   4      10.813   6.409  12.8060  0.00  0.00     0.000 C
ATOM     62   O  BDP B   4       9.712   6.982  12.5920  0.00  0.00     0.000 OA
ATOM     63   O  BDP B   4      11.466   5.783  11.9170  0.00  0.00     0.000 OA
ENDBRANCH 55 61
BRANCH 51 64
ATOM     64  O3  NAG B   5      11.315   3.956  16.8370  0.00  0.00     0.000 O
BRANCH 64 67
ATOM     65  C1  NAG B   5       8.144   3.954  18.7190  0.00  0.00     0.000 C
ATOM     66  C2  NAG B   5       9.586   4.291  18.3790  0.00  0.00     0.000 C
ATOM     67  C3  NAG B   5       9.917   3.796  16.9760  0.00  0.00     0.000 C
ATOM     68  C4  NAG B   5       9.553   2.314  16.8150  0.00  0.00     0.000 C
ATOM     69  C5  NAG B   5       8.123   2.059  17.2660  0.00  0.00     0.000 C
ATOM     70  O5  NAG B   5       7.933   2.566  18.5950  0.00  0.00     0.000 O
ATOM     71   O  NAG B   5       9.735   1.949  15.4630  0.00  0.00     0.000 O
ATOM     73  HD  NAG B   5      10.077   1.241  15.8270  0.00  0.00     0.000 HD
ATOM     73   C  NAG B   5       7.713   0.580  17.2600  0.00  0.00     0.000 C
ATOM     74   O  NAG B   5       8.511  -0.148  18.2160  0.00  0.00     0.000 O
ATOM     76  HD  NAG B   5       8.852  -0.856  18.5790  0.00  0.00     0.000 HD
BRANCH 66 78
ATOM     76   N  NAG B   5       9.582   5.708  18.7890  0.00  0.00     0.000 N
ATOM     78  HD  NAG B   5      10.117   5.030  18.8460  0.00  0.00     0.000 HD
ATOM     78   C  NAG B   5      10.637   6.400  19.2480  0.00  0.00     0.000 C
ATOM     79   C  NAG B   5      10.320   7.836  19.5670  0.00  0.00     0.000 C
ATOM     80   O  NAG B   5      11.800   5.884  19.4080  0.00  0.00     0.000 OA
ENDBRANCH 66 78
BRANCH 65 81
ATOM     81  O4  BDP B   6       7.841   4.376  20.0550  0.00  0.00     0.000 O
BRANCH 81 85
ATOM     82  C1  BDP B   6       4.508   4.611  22.7380  0.00  0.00     0.000 C
ATOM     83  C2  BDP B   6       5.207   3.262  22.5980  0.00  0.00     0.000 C
ATOM     84  C3  BDP B   6       6.594   3.374  21.9590  0.00  0.00     0.000 C
ATOM     85  C4  BDP B   6       6.558   4.161  20.6480  0.00  0.00     0.000 C
ATOM     86  C5  BDP B   6       5.799   5.484  20.9080  0.00  0.00     0.000 C
ATOM     87  O5  BDP B   6       4.468   5.248  21.4690  0.00  0.00     0.000 O
ATOM     88   O  BDP B   6       5.333   2.759  23.9250  0.00  0.00     0.000 O
ATOM     90  HD  BDP B   6       5.904   2.352  24.4340  0.00  0.00     0.000 HD
ATOM     90   O  BDP B   6       7.136   2.066  21.7570  0.00  0.00     0.000 O
ATOM     92  HD  BDP B   6       7.707   1.659  22.2660  0.00  0.00     0.000 HD
BRANCH 86 92
ATOM     92   C  BDP B   6       5.520   6.199  19.6080  0.00  0.00     0.000 C
ATOM     93   O  BDP B   6       6.319   7.097  19.2050  0.00  0.00     0.000 OA
ATOM     94   O  BDP B   6       4.490   5.845  18.9540  0.00  0.00     0.000 OA
ENDBRANCH 86 92
BRANCH 82 95
ATOM     95  O3  NAG B   7       3.150   4.377  23.1580  0.00  0.00     0.000 O
BRANCH 95 98
ATOM     96  C1  NAG B   7       1.098   5.056  26.1030  0.00  0.00     0.000 C
ATOM     97  C2  NAG B   7       1.633   4.235  24.9370  0.00  0.00     0.000 C
ATOM     98  C3  NAG B   7       2.602   5.167  24.2130  0.00  0.00     0.000 C
ATOM     99  C4  NAG B   7       1.862   6.411  23.7270  0.00  0.00     0.000 C
ATOM    100  C5  NAG B   7       1.121   7.090  24.8800  0.00  0.00     0.000 C
ATOM    101  O5  NAG B   7       0.323   6.123  25.5460  0.00  0.00     0.000 O
BRANCH 97 104
ATOM    102   N  NAG B   7       2.408   3.045  25.3140  0.00  0.00     0.000 N
ATOM    104  HD  NAG B   7       3.060   2.487  25.4290  0.00  0.00     0.000 HD
ATOM    104   O  NAG B   7       3.023   0.866  25.2790  0.00  0.00     0.000 OA
ATOM    105   C  NAG B   7       2.242   1.769  24.9190  0.00  0.00     0.000 C
ATOM    106   C  NAG B   7       1.105   1.432  24.0160  0.00  0.00     0.000 C
ENDBRANCH 97 104
ATOM    107   O  NAG B   7      -0.118   8.992  25.4730  0.00  0.00     0.000 O
ATOM    109  HD  NAG B   7       0.484   8.427  25.7370  0.00  0.00     0.000 HD
ATOM    109   O  NAG B   7      -0.118   8.992  25.4730  0.00  0.00     0.000 O
ATOM    111  HD  NAG B   7       0.484   8.427  25.7370  0.00  0.00     0.000 HD
ENDBRANCH 95 98
ENDBRANCH 82 95
ENDBRANCH 81 85
ENDBRANCH 65 81
ENDBRANCH 64 67
ENDBRANCH 51 64
ENDBRANCH 50 54
ENDBRANCH 34 50
ENDBRANCH 33 36
ENDBRANCH 20 33
ENDBRANCH 19 23
ENDBRANCH 1 19
TORSDOF 19
ENDMDL
MODEL 35
REMARK VINA RESULT:      -5.9      5.281      7.084
ROOT
ATOM      1  C1  NAG B   1       9.947  10.253  15.5890  0.00  0.00     0.000 C
ATOM      2  C2  NAG B   1       8.802  10.335  16.5950  0.00  0.00     0.000 C
ATOM      3  C3  NAG B   1       8.826  11.636  17.3720  0.00  0.00     0.000 C
ATOM      4  C4  NAG B   1      10.195  11.684  18.0440  0.00  0.00     0.000 C
ATOM      5  C5  NAG B   1      11.284  11.732  16.9640  0.00  0.00     0.000 C
ATOM      6  O5  NAG B   1      11.243  10.553  16.1310  0.00  0.00     0.000 O
ATOM      7   O  NAG B   1       7.768  11.704  18.3540  0.00  0.00     0.000 O
ATOM      9  HD  NAG B   1       7.394  11.266  17.7080  0.00  0.00     0.000 HD
ATOM      9   O  NAG B   1      10.291  12.829  18.8740  0.00  0.00     0.000 O
ATOM     11  HD  NAG B   1       9.918  12.391  18.2270  0.00  0.00     0.000 HD
ATOM     11   C  NAG B   1      12.660  11.919  17.6160  0.00  0.00     0.000 C
ATOM     12   O  NAG B   1      13.692  11.336  16.8220  0.00  0.00     0.000 O
ATOM     14  HD  NAG B   1      13.319  10.897  16.1760  0.00  0.00     0.000 HD
ENDROOT
BRANCH 2 16
ATOM     14   N  NAG B   1       7.640   9.973  15.7640  0.00  0.00     0.000 N
ATOM     16  HD  NAG B   1       7.346   9.370  15.2160  0.00  0.00     0.000 HD
ATOM     16   C  NAG B   1       6.723   9.065  16.1390  0.00  0.00     0.000 C
ATOM     17   C  NAG B   1       6.873   8.344  17.4520  0.00  0.00     0.000 C
ATOM     18   O  NAG B   1       5.739   8.824  15.4390  0.00  0.00     0.000 OA
ENDBRANCH 2 16
BRANCH 1 19
ATOM     19  O4  BDP B   2       9.977   8.874  15.2450  0.00  0.00     0.000 O
BRANCH 19 23
ATOM     20  C1  BDP B   2      12.095   9.464  11.7650  0.00  0.00     0.000 C
ATOM     21  C2  BDP B   2      10.589   9.372  11.6290  0.00  0.00     0.000 C
ATOM     22  C3  BDP B   2       9.905   9.579  12.9620  0.00  0.00     0.000 C
ATOM     23  C4  BDP B   2      10.504   8.601  13.9690  0.00  0.00     0.000 C
ATOM     24  C5  BDP B   2      12.006   8.793  14.0260  0.00  0.00     0.000 C
ATOM     25  O5  BDP B   2      12.564   8.552  12.7490  0.00  0.00     0.000 O
ATOM     26   O  BDP B   2      10.122  10.328  10.7010  0.00  0.00     0.000 O
ATOM     28  HD  BDP B   2      10.975  10.371  10.5560  0.00  0.00     0.000 HD
ATOM     28   O  BDP B   2       8.490   9.390  12.8010  0.00  0.00     0.000 O
ATOM     30  HD  BDP B   2       9.343   9.433  12.6560  0.00  0.00     0.000 HD
BRANCH 24 30
ATOM     30   C  BDP B   2      12.656   7.860  14.9840  0.00  0.00     0.000 C
ATOM     31   O  BDP B   2      13.415   8.359  15.8460  0.00  0.00     0.000 OA
ATOM     32   O  BDP B   2      12.417   6.624  14.8750  0.00  0.00     0.000 OA
ENDBRANCH 24 30
BRANCH 20 33
ATOM     33  O3  NAG B   3      12.575   9.070  10.5030  0.00  0.00     0.000 O
BRANCH 33 36
ATOM     34  C1  NAG B   3      15.776  10.422   9.0630  0.00  0.00     0.000 C
ATOM     35  C2  NAG B   3      14.292  10.344   9.3680  0.00  0.00     0.000 C
ATOM     36  C3  NAG B   3      13.990   9.245  10.3970  0.00  0.00     0.000 C
ATOM     37  C4  NAG B   3      14.617   7.932   9.9340  0.00  0.00     0.000 C
ATOM     38  C5  NAG B   3      16.085   8.145   9.5730  0.00  0.00     0.000 C
ATOM     39  O5  NAG B   3      16.199   9.154   8.5840  0.00  0.00     0.000 O
ATOM     40   O  NAG B   3      14.519   6.947  10.9730  0.00  0.00     0.000 O
ATOM     42  HD  NAG B   3      15.373   6.901  10.8410  0.00  0.00     0.000 HD
ATOM     42   C  NAG B   3      16.759   6.913   8.9750  0.00  0.00     0.000 C
ATOM     43   O  NAG B   3      16.162   6.608   7.7090  0.00  0.00     0.000 O
ATOM     45  HD  NAG B   3      17.017   6.563   7.5770  0.00  0.00     0.000 HD
BRANCH 35 47
ATOM     45   N  NAG B   3      13.855  11.680   9.7540  0.00  0.00     0.000 N
ATOM     47  HD  NAG B   3      14.709  11.635   9.6200  0.00  0.00     0.000 HD
ATOM     47   C  NAG B   3      12.721  12.211   9.3400  0.00  0.00     0.000 C
ATOM     48   C  NAG B   3      12.432  13.604   9.8150  0.00  0.00     0.000 C
ATOM     49   O  NAG B   3      11.957  11.610   8.5880  0.00  0.00     0.000 OA
ENDBRANCH 35 47
BRANCH 34 50
ATOM     50  O4  BDP B   4      15.856  11.388   8.0350  0.00  0.00     0.000 O
BRANCH 50 54
ATOM     51  C1  BDP B   4      18.182  14.323   6.4460  0.00  0.00     0.000 C
ATOM     52  C2  BDP B   4      18.548  12.913   5.9950  0.00  0.00     0.000 C
ATOM     53  C3  BDP B   4      17.417  11.993   6.3360  0.00  0.00     0.000 C
ATOM     54  C4  BDP B   4      17.091  12.101   7.8540  0.00  0.00     0.000 C
ATOM     55  C5  BDP B   4      16.929  13.545   8.3100  0.00  0.00     0.000 C
ATOM     56  O5  BDP B   4      18.021  14.337   7.8530  0.00  0.00     0.000 O
ATOM     57   O  BDP B   4      18.768  12.887   4.6010  0.00  0.00     0.000 O
ATOM     59  HD  BDP B   4      19.629  12.861   4.5160  0.00  0.00     0.000 HD
ATOM     59   O  BDP B   4      17.875  10.650   6.0750  0.00  0.00     0.000 O
ATOM     61  HD  BDP B   4      18.736  10.624   5.9900  0.00  0.00     0.000 HD
BRANCH 55 61
ATOM     61   C  BDP B   4      16.881  13.588   9.8270  0.00  0.00     0.000 C
ATOM     62   O  BDP B   4      15.823  13.999  10.3730  0.00  0.00     0.000 OA
ATOM     63   O  BDP B   4      17.905  13.207  10.4710  0.00  0.00     0.000 OA
ENDBRANCH 55 61
BRANCH 51 64
ATOM     64  O3  NAG B   5      19.259  15.192   6.0460  0.00  0.00     0.000 O
BRANCH 64 67
ATOM     65  C1  NAG B   5      18.636  18.661   4.9630  0.00  0.00     0.000 C
ATOM     66  C2  NAG B   5      18.737  17.148   4.8710  0.00  0.00     0.000 C
ATOM     67  C3  NAG B   5      18.963  16.559   6.2580  0.00  0.00     0.000 C
ATOM     68  C4  NAG B   5      20.149  17.236   6.9580  0.00  0.00     0.000 C
ATOM     69  C5  NAG B   5      20.004  18.749   6.9180  0.00  0.00     0.000 C
ATOM     70  O5  NAG B   5      19.797  19.185   5.5660  0.00  0.00     0.000 O
ATOM     71   O  NAG B   5      20.219  16.764   8.2860  0.00  0.00     0.000 O
ATOM     73  HD  NAG B   5      21.066  16.745   8.1070  0.00  0.00     0.000 HD
ATOM     73   C  NAG B   5      21.208  19.515   7.4830  0.00  0.00     0.000 C
ATOM     74   O  NAG B   5      22.370  19.259   6.6680  0.00  0.00     0.000 O
ATOM     76  HD  NAG B   5      23.218  19.240   6.4880  0.00  0.00     0.000 HD
BRANCH 66 78
ATOM     76   N  NAG B   5      17.489  16.757   4.1880  0.00  0.00     0.000 N
ATOM     78  HD  NAG B   5      18.340  16.660   4.0640  0.00  0.00     0.000 HD
ATOM     78   C  NAG B   5      17.384  15.884   3.1740  0.00  0.00     0.000 C
ATOM     79   C  NAG B   5      15.970  15.680   2.7010  0.00  0.00     0.000 C
ATOM     80   O  NAG B   5      18.393  15.289   2.6520  0.00  0.00     0.000 OA
ENDBRANCH 66 78
BRANCH 65 81
ATOM     81  O4  BDP B   6      18.469  19.224   3.6550  0.00  0.00     0.000 O
BRANCH 81 85
ATOM     82  C1  BDP B   6      16.115  22.355   1.9180  0.00  0.00     0.000 C
ATOM     83  C2  BDP B   6      17.619  22.588   2.0410  0.00  0.00     0.000 C
ATOM     84  C3  BDP B   6      18.404  21.295   2.2800  0.00  0.00     0.000 C
ATOM     85  C4  BDP B   6      17.832  20.486   3.4460  0.00  0.00     0.000 C
ATOM     86  C5  BDP B   6      16.307  20.348   3.2270  0.00  0.00     0.000 C
ATOM     87  O5  BDP B   6      15.659  21.651   3.0640  0.00  0.00     0.000 O
ATOM     88   O  BDP B   6      18.017  23.165   0.8000  0.00  0.00     0.000 O
ATOM     90  HD  BDP B   6      18.655  23.118   0.2170  0.00  0.00     0.000 HD
ATOM     90   O  BDP B   6      19.782  21.604   2.4970  0.00  0.00     0.000 O
ATOM     92  HD  BDP B   6      20.421  21.558   1.9140  0.00  0.00     0.000 HD
BRANCH 86 92
ATOM     92   C  BDP B   6      15.646  19.769   4.4540  0.00  0.00     0.000 C
ATOM     93   O  BDP B   6      15.610  20.449   5.5240  0.00  0.00     0.000 OA
ATOM     94   O  BDP B   6      15.126  18.615   4.3500  0.00  0.00     0.000 OA
ENDBRANCH 86 92
BRANCH 82 95
ATOM     95  O3  NAG B   7      15.458  23.637   1.8960  0.00  0.00     0.000 O
BRANCH 95 98
ATOM     96  C1  NAG B   7      13.156  25.587  -0.1630  0.00  0.00     0.000 C
ATOM     97  C2  NAG B   7      14.270  25.364   0.8510  0.00  0.00     0.000 C
ATOM     98  C3  NAG B   7      14.372  23.847   0.9940  0.00  0.00     0.000 C
ATOM     99  C4  NAG B   7      13.044  23.281   1.4910  0.00  0.00     0.000 C
ATOM    100  C5  NAG B   7      11.891  23.726   0.5890  0.00  0.00     0.000 C
ATOM    101  O5  NAG B   7      11.939  25.136   0.4420  0.00  0.00     0.000 O
BRANCH 97 104
ATOM    102   N  NAG B   7      15.620  25.788   0.4550  0.00  0.00     0.000 N
ATOM    104  HD  NAG B   7      16.463  25.782   0.2590  0.00  0.00     0.000 HD
ATOM    104   O  NAG B   7      17.580  26.910   0.6200  0.00  0.00     0.000 OA
ATOM    105   C  NAG B   7      16.426  26.695   1.0390  0.00  0.00     0.000 C
ATOM    106   C  NAG B   7      15.928  27.450   2.2240  0.00  0.00     0.000 C
ENDBRANCH 97 104
ATOM    107   O  NAG B   7       9.601  23.437   0.1670  0.00  0.00     0.000 O
ATOM    109  HD  NAG B   7      10.380  23.544  -0.1960  0.00  0.00     0.000 HD
ATOM    109   O  NAG B   7       9.601  23.437   0.1670  0.00  0.00     0.000 O
ATOM    111  HD  NAG B   7      10.380  23.544  -0.1960  0.00  0.00     0.000 HD
ENDBRANCH 95 98
ENDBRANCH 82 95
ENDBRANCH 81 85
ENDBRANCH 65 81
ENDBRANCH 64 67
ENDBRANCH 51 64
ENDBRANCH 50 54
ENDBRANCH 34 50
ENDBRANCH 33 36
ENDBRANCH 20 33
ENDBRANCH 19 23
ENDBRANCH 1 19
TORSDOF 19
ENDMDL
MODEL 36
REMARK VINA RESULT:      -5.9      1.678      2.673
ROOT
ATOM      1  C1  NAG B   1      13.283   4.263  16.0580  0.00  0.00     0.000 C
ATOM      2  C2  NAG B   1      12.645   3.185  16.9290  0.00  0.00     0.000 C
ATOM      3  C3  NAG B   1      12.411   3.669  18.3450  0.00  0.00     0.000 C
ATOM      4  C4  NAG B   1      13.781   4.099  18.8610  0.00  0.00     0.000 C
ATOM      5  C5  NAG B   1      14.291   5.272  18.0150  0.00  0.00     0.000 C
ATOM      6  O5  NAG B   1      14.442   4.889  16.6310  0.00  0.00     0.000 O
ATOM      7   O  NAG B   1      11.843   2.640  19.1870  0.00  0.00     0.000 O
ATOM      9  HD  NAG B   1      11.478   2.475  18.4190  0.00  0.00     0.000 HD
ATOM      9   O  NAG B   1      13.689   4.492  20.2200  0.00  0.00     0.000 O
ATOM     11  HD  NAG B   1      13.324   4.328  19.4520  0.00  0.00     0.000 HD
ATOM     11   C  NAG B   1      15.603   5.809  18.6010  0.00  0.00     0.000 C
ATOM     12   O  NAG B   1      16.426   6.384  17.5880  0.00  0.00     0.000 O
ATOM     14  HD  NAG B   1      16.061   6.219  16.8190  0.00  0.00     0.000 HD
ENDROOT
BRANCH 2 16
ATOM     14   N  NAG B   1      12.458   1.898  16.2350  0.00  0.00     0.000 N
ATOM     16  HD  NAG B   1      12.219   1.075  16.3600  0.00  0.00     0.000 HD
ATOM     16   C  NAG B   1      11.256   1.443  15.8420  0.00  0.00     0.000 C
ATOM     17   C  NAG B   1      10.017   2.248  16.1320  0.00  0.00     0.000 C
ATOM     18   O  NAG B   1      11.145   0.387  15.2200  0.00  0.00     0.000 OA
ENDBRANCH 2 16
BRANCH 1 19
ATOM     19  O4  BDP B   2      13.749   3.535  14.9300  0.00  0.00     0.000 O
BRANCH 19 23
ATOM     20  C1  BDP B   2      13.737   6.743  12.3510  0.00  0.00     0.000 C
ATOM     21  C2  BDP B   2      12.447   5.957  12.4530  0.00  0.00     0.000 C
ATOM     22  C3  BDP B   2      12.425   5.098  13.6970  0.00  0.00     0.000 C
ATOM     23  C4  BDP B   2      13.686   4.237  13.7120  0.00  0.00     0.000 C
ATOM     24  C5  BDP B   2      14.907   5.131  13.6170  0.00  0.00     0.000 C
ATOM     25  O5  BDP B   2      14.859   5.873  12.4140  0.00  0.00     0.000 O
ATOM     26   O  BDP B   2      11.340   6.832  12.4600  0.00  0.00     0.000 O
ATOM     28  HD  BDP B   2      11.971   7.379  12.2310  0.00  0.00     0.000 HD
ATOM     28   O  BDP B   2      11.229   4.303  13.7030  0.00  0.00     0.000 O
ATOM     30  HD  BDP B   2      11.860   4.849  13.4730  0.00  0.00     0.000 HD
BRANCH 24 30
ATOM     30   C  BDP B   2      16.173   4.352  13.6150  0.00  0.00     0.000 C
ATOM     31   O  BDP B   2      16.986   4.575  14.5420  0.00  0.00     0.000 OA
ATOM     32   O  BDP B   2      16.366   3.520  12.6830  0.00  0.00     0.000 OA
ENDBRANCH 24 30
BRANCH 20 33
ATOM     33  O3  NAG B   3      13.678   7.330  11.0740  0.00  0.00     0.000 O
BRANCH 33 36
ATOM     34  C1  NAG B   3      14.988  10.777  10.3300  0.00  0.00     0.000 C
ATOM     35  C2  NAG B   3      13.987   9.705  10.7170  0.00  0.00     0.000 C
ATOM     36  C3  NAG B   3      14.673   8.344  10.9120  0.00  0.00     0.000 C
ATOM     37  C4  NAG B   3      15.512   8.020   9.6780  0.00  0.00     0.000 C
ATOM     38  C5  NAG B   3      16.419   9.197   9.3300  0.00  0.00     0.000 C
ATOM     39  O5  NAG B   3      15.640  10.366   9.1370  0.00  0.00     0.000 O
ATOM     40   O  NAG B   3      16.316   6.855   9.9230  0.00  0.00     0.000 O
ATOM     42  HD  NAG B   3      16.950   7.393   9.6810  0.00  0.00     0.000 HD
ATOM     42   C  NAG B   3      17.201   9.012   8.0320  0.00  0.00     0.000 C
ATOM     43   O  NAG B   3      16.291   8.974   6.9260  0.00  0.00     0.000 O
ATOM     45  HD  NAG B   3      16.925   9.512   6.6840  0.00  0.00     0.000 HD
BRANCH 35 47
ATOM     45   N  NAG B   3      12.564   9.988  10.8510  0.00  0.00     0.000 N
ATOM     47  HD  NAG B   3      12.742   9.491  10.1640  0.00  0.00     0.000 HD
ATOM     47   C  NAG B   3      11.950  10.044  12.0160  0.00  0.00     0.000 C
ATOM     48   C  NAG B   3      10.477  10.326  11.9740  0.00  0.00     0.000 C
ATOM     49   O  NAG B   3      12.543   9.849  13.0740  0.00  0.00     0.000 OA
ENDBRANCH 35 47
BRANCH 34 50
ATOM     50  O4  BDP B   4      14.183  11.912  10.0850  0.00  0.00     0.000 O
BRANCH 50 54
ATOM     51  C1  BDP B   4      14.072  15.977  10.1900  0.00  0.00     0.000 C
ATOM     52  C2  BDP B   4      15.180  15.398   9.3180  0.00  0.00     0.000 C
ATOM     53  C3  BDP B   4      14.885  13.951   9.0670  0.00  0.00     0.000 C
ATOM     54  C4  BDP B   4      14.701  13.209  10.4220  0.00  0.00     0.000 C
ATOM     55  C5  BDP B   4      13.733  13.930  11.3500  0.00  0.00     0.000 C
ATOM     56  O5  BDP B   4      14.065  15.313  11.4410  0.00  0.00     0.000 O
ATOM     57   O  BDP B   4      15.242  16.084   8.0850  0.00  0.00     0.000 O
ATOM     59  HD  BDP B   4      15.927  16.608   8.1620  0.00  0.00     0.000 HD
ATOM     59   O  BDP B   4      16.042  13.395   8.4090  0.00  0.00     0.000 O
ATOM     61  HD  BDP B   4      16.727  13.919   8.4850  0.00  0.00     0.000 HD
BRANCH 55 61
ATOM     61   C  BDP B   4      13.807  13.307  12.7330  0.00  0.00     0.000 C
ATOM     62   O  BDP B   4      12.735  13.173  13.3780  0.00  0.00     0.000 OA
ATOM     63   O  BDP B   4      14.943  12.950  13.1710  0.00  0.00     0.000 OA
ENDBRANCH 55 61
BRANCH 51 64
ATOM     64  O3  NAG B   5      14.350  17.381  10.3590  0.00  0.00     0.000 O
BRANCH 64 67
ATOM     65  C1  NAG B   5      11.846  19.997   9.6690  0.00  0.00     0.000 C
ATOM     66  C2  NAG B   5      12.939  18.979   9.3930  0.00  0.00     0.000 C
ATOM     67  C3  NAG B   5      13.188  18.136  10.6380  0.00  0.00     0.000 C
ATOM     68  C4  NAG B   5      13.439  19.025  11.8640  0.00  0.00     0.000 C
ATOM     69  C5  NAG B   5      12.343  20.070  12.0030  0.00  0.00     0.000 C
ATOM     70  O5  NAG B   5      12.202  20.797  10.7740  0.00  0.00     0.000 O
ATOM     71   O  NAG B   5      13.511  18.204  13.0100  0.00  0.00     0.000 O
ATOM     73  HD  NAG B   5      14.171  18.733  13.1990  0.00  0.00     0.000 HD
ATOM     73   C  NAG B   5      12.578  21.086  13.1300  0.00  0.00     0.000 C
ATOM     74   O  NAG B   5      13.760  21.862  12.8420  0.00  0.00     0.000 O
ATOM     76  HD  NAG B   5      14.420  22.391  13.0310  0.00  0.00     0.000 HD
BRANCH 66 78
ATOM     76   N  NAG B   5      12.500  18.144   8.2590  0.00  0.00     0.000 N
ATOM     78  HD  NAG B   5      13.118  18.730   8.4170  0.00  0.00     0.000 HD
ATOM     78   C  NAG B   5      13.174  17.952   7.1130  0.00  0.00     0.000 C
ATOM     79   C  NAG B   5      12.473  17.029   6.1530  0.00  0.00     0.000 C
ATOM     80   O  NAG B   5      14.300  18.510   6.8580  0.00  0.00     0.000 OA
ENDBRANCH 66 78
BRANCH 65 81
ATOM     81  O4  BDP B   6      11.640  20.823   8.5160  0.00  0.00     0.000 O
BRANCH 81 85
ATOM     82  C1  BDP B   6       8.232  22.229   6.3310  0.00  0.00     0.000 C
ATOM     83  C2  BDP B   6       9.052  23.262   7.1010  0.00  0.00     0.000 C
ATOM     84  C3  BDP B   6      10.439  22.747   7.4930  0.00  0.00     0.000 C
ATOM     85  C4  BDP B   6      10.367  21.396   8.2080  0.00  0.00     0.000 C
ATOM     86  C5  BDP B   6       9.486  20.452   7.3540  0.00  0.00     0.000 C
ATOM     87  O5  BDP B   6       8.168  21.029   7.0880  0.00  0.00     0.000 O
ATOM     88   O  BDP B   6       9.188  24.373   6.2190  0.00  0.00     0.000 O
ATOM     90  HD  BDP B   6       9.779  24.948   5.9570  0.00  0.00     0.000 HD
ATOM     90   O  BDP B   6      11.100  23.721   8.3050  0.00  0.00     0.000 O
ATOM     92  HD  BDP B   6      11.692  24.296   8.0420  0.00  0.00     0.000 HD
BRANCH 86 92
ATOM     92   C  BDP B   6       9.178  19.184   8.1130  0.00  0.00     0.000 C
ATOM     93   O  BDP B   6       9.634  18.078   7.6910  0.00  0.00     0.000 OA
ATOM     94   O  BDP B   6       8.482  19.289   9.1700  0.00  0.00     0.000 OA
ENDBRANCH 86 92
BRANCH 82 95
ATOM     95  O3  NAG B   7       6.890  22.733   6.1860  0.00  0.00     0.000 O
BRANCH 95 98
ATOM     96  C1  NAG B   7       3.847  21.774   4.4080  0.00  0.00     0.000 C
ATOM     97  C2  NAG B   7       4.911  22.729   4.9340  0.00  0.00     0.000 C
ATOM     98  C3  NAG B   7       5.859  21.850   5.7460  0.00  0.00     0.000 C
ATOM     99  C4  NAG B   7       5.097  21.179   6.8870  0.00  0.00     0.000 C
ATOM    100  C5  NAG B   7       3.878  20.422   6.3580  0.00  0.00     0.000 C
ATOM    101  O5  NAG B   7       3.113  21.295   5.5410  0.00  0.00     0.000 O
BRANCH 97 104
ATOM    102   N  NAG B   7       5.874  23.397   4.0490  0.00  0.00     0.000 N
ATOM    104  HD  NAG B   7       6.601  23.745   3.7320  0.00  0.00     0.000 HD
ATOM    104   O  NAG B   7       6.751  25.094   2.8320  0.00  0.00     0.000 OA
ATOM    105   C  NAG B   7       5.822  24.637   3.5260  0.00  0.00     0.000 C
ATOM    106   C  NAG B   7       4.628  25.488   3.7970  0.00  0.00     0.000 C
ENDBRANCH 97 104
ATOM    107   O  NAG B   7       2.149  18.958   6.9680  0.00  0.00     0.000 O
ATOM    109  HD  NAG B   7       2.722  19.159   6.3510  0.00  0.00     0.000 HD
ATOM    109   O  NAG B   7       2.149  18.958   6.9680  0.00  0.00     0.000 O
ATOM    111  HD  NAG B   7       2.722  19.159   6.3510  0.00  0.00     0.000 HD
ENDBRANCH 95 98
ENDBRANCH 82 95
ENDBRANCH 81 85
ENDBRANCH 65 81
ENDBRANCH 64 67
ENDBRANCH 51 64
ENDBRANCH 50 54
ENDBRANCH 34 50
ENDBRANCH 33 36
ENDBRANCH 20 33
ENDBRANCH 19 23
ENDBRANCH 1 19
TORSDOF 19
ENDMDL
MODEL 37
REMARK VINA RESULT:      -5.9      5.877     15.461
ROOT
ATOM      1  C1  NAG B   1      17.392  17.491   3.5710  0.00  0.00     0.000 C
ATOM      2  C2  NAG B   1      17.182  17.994   2.1460  0.00  0.00     0.000 C
ATOM      3  C3  NAG B   1      16.705  16.891   1.2230  0.00  0.00     0.000 C
ATOM      4  C4  NAG B   1      17.770  15.802   1.3040  0.00  0.00     0.000 C
ATOM      5  C5  NAG B   1      17.826  15.259   2.7380  0.00  0.00     0.000 C
ATOM      6  O5  NAG B   1      18.185  16.298   3.6740  0.00  0.00     0.000 O
ATOM      7   O  NAG B   1      16.540  17.351  -0.1380  0.00  0.00     0.000 O
ATOM      9  HD  NAG B   1      16.309  18.046   0.3240  0.00  0.00     0.000 HD
ATOM      9   O  NAG B   1      17.462  14.751   0.4040  0.00  0.00     0.000 O
ATOM     11  HD  NAG B   1      17.230  15.446   0.8660  0.00  0.00     0.000 HD
ATOM     11   C  NAG B   1      18.792  14.070   2.8100  0.00  0.00     0.000 C
ATOM     12   O  NAG B   1      19.377  13.957   4.1060  0.00  0.00     0.000 O
ATOM     14  HD  NAG B   1      19.146  14.652   4.5680  0.00  0.00     0.000 HD
ENDROOT
BRANCH 2 16
ATOM     14   N  NAG B   1      16.255  19.139   2.1160  0.00  0.00     0.000 N
ATOM     16  HD  NAG B   1      15.994  19.827   2.5730  0.00  0.00     0.000 HD
ATOM     16   C  NAG B   1      16.638  20.387   1.7960  0.00  0.00     0.000 C
ATOM     17   C  NAG B   1      18.082  20.670   1.4740  0.00  0.00     0.000 C
ATOM     18   O  NAG B   1      15.825  21.309   1.7340  0.00  0.00     0.000 OA
ENDBRANCH 2 16
BRANCH 1 19
ATOM     19  O4  BDP B   2      18.163  18.525   4.1690  0.00  0.00     0.000 O
BRANCH 19 23
ATOM     20  C1  BDP B   2      16.893  17.684   7.9930  0.00  0.00     0.000 C
ATOM     21  C2  BDP B   2      16.163  18.798   7.2710  0.00  0.00     0.000 C
ATOM     22  C3  BDP B   2      16.410  18.739   5.7810  0.00  0.00     0.000 C
ATOM     23  C4  BDP B   2      17.917  18.720   5.5410  0.00  0.00     0.000 C
ATOM     24  C5  BDP B   2      18.534  17.562   6.3010  0.00  0.00     0.000 C
ATOM     25  O5  BDP B   2      18.280  17.714   7.6840  0.00  0.00     0.000 O
ATOM     26   O  BDP B   2      14.777  18.721   7.5270  0.00  0.00     0.000 O
ATOM     28  HD  BDP B   2      15.077  18.160   8.1150  0.00  0.00     0.000 HD
ATOM     28   O  BDP B   2      15.778  19.864   5.1510  0.00  0.00     0.000 O
ATOM     30  HD  BDP B   2      16.078  19.303   5.7390  0.00  0.00     0.000 HD
BRANCH 24 30
ATOM     30   C  BDP B   2      20.008  17.492   6.1190  0.00  0.00     0.000 C
ATOM     31   O  BDP B   2      20.490  16.395   5.7550  0.00  0.00     0.000 OA
ATOM     32   O  BDP B   2      20.691  18.530   6.3470  0.00  0.00     0.000 OA
ENDBRANCH 24 30
BRANCH 20 33
ATOM     33  O3  NAG B   3      16.717  17.989   9.3550  0.00  0.00     0.000 O
BRANCH 33 36
ATOM     34  C1  NAG B   3      16.119  15.244  11.8580  0.00  0.00     0.000 C
ATOM     35  C2  NAG B   3      15.791  16.280  10.7990  0.00  0.00     0.000 C
ATOM     36  C3  NAG B   3      17.067  16.885  10.1940  0.00  0.00     0.000 C
ATOM     37  C4  NAG B   3      17.971  17.385  11.3180  0.00  0.00     0.000 C
ATOM     38  C5  NAG B   3      18.164  16.294  12.3670  0.00  0.00     0.000 C
ATOM     39  O5  NAG B   3      16.905  15.870  12.8620  0.00  0.00     0.000 O
ATOM     40   O  NAG B   3      19.248  17.769  10.7860  0.00  0.00     0.000 O
ATOM     42  HD  NAG B   3      19.528  17.216  11.3910  0.00  0.00     0.000 HD
ATOM     42   C  NAG B   3      18.950  16.749  13.5940  0.00  0.00     0.000 C
ATOM     43   O  NAG B   3      18.198  17.741  14.3030  0.00  0.00     0.000 O
ATOM     45  HD  NAG B   3      18.477  17.189  14.9080  0.00  0.00     0.000 HD
BRANCH 35 47
ATOM     45   N  NAG B   3      14.412  16.614  10.4640  0.00  0.00     0.000 N
ATOM     47  HD  NAG B   3      14.816  17.251  10.8890  0.00  0.00     0.000 HD
ATOM     47   C  NAG B   3      13.844  16.261   9.3290  0.00  0.00     0.000 C
ATOM     48   C  NAG B   3      12.424  16.704   9.1350  0.00  0.00     0.000 C
ATOM     49   O  NAG B   3      14.449  15.628   8.4660  0.00  0.00     0.000 OA
ENDBRANCH 35 47
BRANCH 34 50
ATOM     50  O4  BDP B   4      14.856  14.884  12.3750  0.00  0.00     0.000 O
BRANCH 50 54
ATOM     51  C1  BDP B   4      12.615  11.801  13.7990  0.00  0.00     0.000 C
ATOM     52  C2  BDP B   4      13.895  12.066  14.5830  0.00  0.00     0.000 C
ATOM     53  C3  BDP B   4      14.417  13.418  14.2050  0.00  0.00     0.000 C
ATOM     54  C4  BDP B   4      14.599  13.499  12.6620  0.00  0.00     0.000 C
ATOM     55  C5  BDP B   4      13.360  13.034  11.9080  0.00  0.00     0.000 C
ATOM     56  O5  BDP B   4      12.910  11.780  12.4150  0.00  0.00     0.000 O
ATOM     57   O  BDP B   4      13.635  12.036  15.9710  0.00  0.00     0.000 O
ATOM     59  HD  BDP B   4      13.938  11.268  16.2330  0.00  0.00     0.000 HD
ATOM     59   O  BDP B   4      15.719  13.551  14.8130  0.00  0.00     0.000 O
ATOM     61  HD  BDP B   4      16.021  12.783  15.0760  0.00  0.00     0.000 HD
BRANCH 55 61
ATOM     61   C  BDP B   4      13.696  12.886  10.4350  0.00  0.00     0.000 C
ATOM     62   O  BDP B   4      14.867  12.538  10.1290  0.00  0.00     0.000 OA
ATOM     63   O  BDP B   4      12.784  13.117   9.5850  0.00  0.00     0.000 OA
ENDBRANCH 55 61
BRANCH 51 64
ATOM     64  O3  NAG B   5      12.105  10.525  14.2320  0.00  0.00     0.000 O
BRANCH 64 67
ATOM     65  C1  NAG B   5       8.650   9.649  15.1730  0.00  0.00     0.000 C
ATOM     66  C2  NAG B   5      10.105  10.045  15.3500  0.00  0.00     0.000 C
ATOM     67  C3  NAG B   5      10.718  10.385  13.9970  0.00  0.00     0.000 C
ATOM     68  C4  NAG B   5      10.483   9.254  12.9860  0.00  0.00     0.000 C
ATOM     69  C5  NAG B   5       9.013   8.865  12.9480  0.00  0.00     0.000 C
ATOM     70  O5  NAG B   5       8.551   8.569  14.2740  0.00  0.00     0.000 O
ATOM     71   O  NAG B   5      10.932   9.681  11.7180  0.00  0.00     0.000 O
ATOM     73  HD  NAG B   5      11.245   8.874  11.6910  0.00  0.00     0.000 HD
ATOM     73   C  NAG B   5       8.704   7.654  12.0560  0.00  0.00     0.000 C
ATOM     74   O  NAG B   5       9.357   6.482  12.5880  0.00  0.00     0.000 O
ATOM     76  HD  NAG B   5       9.669   5.675  12.5610  0.00  0.00     0.000 HD
BRANCH 66 78
ATOM     76   N  NAG B   5      10.597  10.142  16.7380  0.00  0.00     0.000 N
ATOM     78  HD  NAG B   5      10.486  10.673  16.0630  0.00  0.00     0.000 HD
ATOM     78   C  NAG B   5      10.846  11.277  17.4100  0.00  0.00     0.000 C
ATOM     79   C  NAG B   5      11.322  11.048  18.8190  0.00  0.00     0.000 C
ATOM     80   O  NAG B   5      10.701  12.444  16.8970  0.00  0.00     0.000 OA
ENDBRANCH 66 78
BRANCH 65 81
ATOM     81  O4  BDP B   6       8.081   9.284  16.4380  0.00  0.00     0.000 O
BRANCH 81 85
ATOM     82  C1  BDP B   6       4.190   9.256  18.2320  0.00  0.00     0.000 C
ATOM     83  C2  BDP B   6       4.264   9.226  16.7080  0.00  0.00     0.000 C
ATOM     84  C3  BDP B   6       5.649   8.830  16.1870  0.00  0.00     0.000 C
ATOM     85  C4  BDP B   6       6.759   9.672  16.8180  0.00  0.00     0.000 C
ATOM     86  C5  BDP B   6       6.557   9.654  18.3520  0.00  0.00     0.000 C
ATOM     87  O5  BDP B   6       5.216  10.101  18.7310  0.00  0.00     0.000 O
ATOM     88   O  BDP B   6       3.305   8.254  16.2990  0.00  0.00     0.000 O
ATOM     90  HD  BDP B   6       3.212   7.607  15.7320  0.00  0.00     0.000 HD
ATOM     90   O  BDP B   6       5.673   8.935  14.7620  0.00  0.00     0.000 O
ATOM     92  HD  BDP B   6       5.579   8.288  14.1940  0.00  0.00     0.000 HD
BRANCH 86 92
ATOM     92   C  BDP B   6       7.472  10.653  19.0190  0.00  0.00     0.000 C
ATOM     93   O  BDP B   6       8.012  10.361  20.1280  0.00  0.00     0.000 OA
ATOM     94   O  BDP B   6       7.679  11.752  18.4160  0.00  0.00     0.000 OA
ENDBRANCH 86 92
BRANCH 82 95
ATOM     95  O3  NAG B   7       2.922   9.826  18.6130  0.00  0.00     0.000 O
BRANCH 95 98
ATOM     96  C1  NAG B   7      -0.101   8.672  20.3060  0.00  0.00     0.000 C
ATOM     97  C2  NAG B   7       0.707   9.394  19.2360  0.00  0.00     0.000 C
ATOM     98  C3  NAG B   7       2.164   9.204  19.6500  0.00  0.00     0.000 C
ATOM     99  C4  NAG B   7       2.395   9.814  21.0300  0.00  0.00     0.000 C
ATOM    100  C5  NAG B   7       1.401   9.253  22.0480  0.00  0.00     0.000 C
ATOM    101  O5  NAG B   7       0.087   9.389  21.5310  0.00  0.00     0.000 O
BRANCH 97 104
ATOM    102   N  NAG B   7       0.597   8.838  17.8800  0.00  0.00     0.000 N
ATOM    104  HD  NAG B   7       0.786   8.458  17.1250  0.00  0.00     0.000 HD
ATOM    104   O  NAG B   7       0.260   8.869  15.6400  0.00  0.00     0.000 OA
ATOM    105   C  NAG B   7       0.253   9.462  16.7370  0.00  0.00     0.000 C
ATOM    106   C  NAG B   7      -0.133  10.901  16.7850  0.00  0.00     0.000 C
ENDBRANCH 97 104
ATOM    107   O  NAG B   7       0.847   9.215  24.3270  0.00  0.00     0.000 O
ATOM    109  HD  NAG B   7       0.899   8.743  23.6030  0.00  0.00     0.000 HD
ATOM    109   O  NAG B   7       0.847   9.215  24.3270  0.00  0.00     0.000 O
ATOM    111  HD  NAG B   7       0.899   8.743  23.6030  0.00  0.00     0.000 HD
ENDBRANCH 95 98
ENDBRANCH 82 95
ENDBRANCH 81 85
ENDBRANCH 65 81
ENDBRANCH 64 67
ENDBRANCH 51 64
ENDBRANCH 50 54
ENDBRANCH 34 50
ENDBRANCH 33 36
ENDBRANCH 20 33
ENDBRANCH 19 23
ENDBRANCH 1 19
TORSDOF 19
ENDMDL
MODEL 38
REMARK VINA RESULT:      -5.9      3.627      4.421
ROOT
ATOM      1  C1  NAG B   1      10.383   5.426  16.0520  0.00  0.00     0.000 C
ATOM      2  C2  NAG B   1       9.852   4.339  16.9820  0.00  0.00     0.000 C
ATOM      3  C3  NAG B   1       8.834   4.883  17.9630  0.00  0.00     0.000 C
ATOM      4  C4  NAG B   1       9.551   5.996  18.7200  0.00  0.00     0.000 C
ATOM      5  C5  NAG B   1       9.934   7.108  17.7350  0.00  0.00     0.000 C
ATOM      6  O5  NAG B   1      10.832   6.617  16.7180  0.00  0.00     0.000 O
ATOM      7   O  NAG B   1       8.356   3.866  18.8730  0.00  0.00     0.000 O
ATOM      9  HD  NAG B   1       8.474   3.420  18.1410  0.00  0.00     0.000 HD
ATOM      9   O  NAG B   1       8.708   6.520  19.7320  0.00  0.00     0.000 O
ATOM     11  HD  NAG B   1       8.826   6.074  18.9990  0.00  0.00     0.000 HD
ATOM     11   C  NAG B   1      10.533   8.298  18.4950  0.00  0.00     0.000 C
ATOM     12   O  NAG B   1      11.461   9.017  17.6840  0.00  0.00     0.000 O
ATOM     14  HD  NAG B   1      11.579   8.571  16.9520  0.00  0.00     0.000 HD
ENDROOT
BRANCH 2 16
ATOM     14   N  NAG B   1       9.263   3.194  16.2650  0.00  0.00     0.000 N
ATOM     16  HD  NAG B   1       9.304   2.752  15.5210  0.00  0.00     0.000 HD
ATOM     16   C  NAG B   1       9.855   1.990  16.1900  0.00  0.00     0.000 C
ATOM     17   C  NAG B   1      11.198   1.771  16.8360  0.00  0.00     0.000 C
ATOM     18   O  NAG B   1       9.309   1.044  15.6240  0.00  0.00     0.000 OA
ENDBRANCH 2 16
BRANCH 1 19
ATOM     19  O4  BDP B   2      11.544   4.831  15.4880  0.00  0.00     0.000 O
BRANCH 19 23
ATOM     20  C1  BDP B   2      12.030   7.359  12.2760  0.00  0.00     0.000 C
ATOM     21  C2  BDP B   2      10.905   6.350  12.1740  0.00  0.00     0.000 C
ATOM     22  C3  BDP B   2      10.554   5.781  13.5300  0.00  0.00     0.000 C
ATOM     23  C4  BDP B   2      11.828   5.237  14.1700  0.00  0.00     0.000 C
ATOM     24  C5  BDP B   2      12.872   6.335  14.2290  0.00  0.00     0.000 C
ATOM     25  O5  BDP B   2      13.160   6.785  12.9190  0.00  0.00     0.000 O
ATOM     26   O  BDP B   2       9.763   6.946  11.5970  0.00  0.00     0.000 O
ATOM     28  HD  BDP B   2      10.356   7.557  11.4400  0.00  0.00     0.000 HD
ATOM     28   O  BDP B   2       9.552   4.764  13.3720  0.00  0.00     0.000 O
ATOM     30  HD  BDP B   2      10.145   5.376  13.2150  0.00  0.00     0.000 HD
BRANCH 24 30
ATOM     30   C  BDP B   2      14.147   5.867  14.8340  0.00  0.00     0.000 C
ATOM     31   O  BDP B   2      14.634   6.562  15.7550  0.00  0.00     0.000 OA
ATOM     32   O  BDP B   2      14.671   4.807  14.3860  0.00  0.00     0.000 OA
ENDBRANCH 24 30
BRANCH 20 33
ATOM     33  O3  NAG B   3      12.355   7.643  10.9370  0.00  0.00     0.000 O
BRANCH 33 36
ATOM     34  C1  NAG B   3      13.658  11.110  10.2760  0.00  0.00     0.000 C
ATOM     35  C2  NAG B   3      12.650  10.022  10.5970  0.00  0.00     0.000 C
ATOM     36  C3  NAG B   3      13.343   8.672  10.8390  0.00  0.00     0.000 C
ATOM     37  C4  NAG B   3      14.267   8.361   9.6640  0.00  0.00     0.000 C
ATOM     38  C5  NAG B   3      15.176   9.552   9.3760  0.00  0.00     0.000 C
ATOM     39  O5  NAG B   3      14.394  10.708   9.1300  0.00  0.00     0.000 O
ATOM     40   O  NAG B   3      15.069   7.208   9.9640  0.00  0.00     0.000 O
ATOM     42  HD  NAG B   3      15.710   7.756   9.7630  0.00  0.00     0.000 HD
ATOM     42   C  NAG B   3      16.045   9.378   8.1330  0.00  0.00     0.000 C
ATOM     43   O  NAG B   3      15.211   9.326   6.9690  0.00  0.00     0.000 O
ATOM     45  HD  NAG B   3      15.852   9.873   6.7680  0.00  0.00     0.000 HD
BRANCH 35 47
ATOM     45   N  NAG B   3      11.844  10.392  11.7540  0.00  0.00     0.000 N
ATOM     47  HD  NAG B   3      12.532  10.907  11.6490  0.00  0.00     0.000 HD
ATOM     47   C  NAG B   3      10.527  10.331  11.7580  0.00  0.00     0.000 C
ATOM     48   C  NAG B   3       9.850  10.767  13.0240  0.00  0.00     0.000 C
ATOM     49   O  NAG B   3       9.888   9.965  10.7740  0.00  0.00     0.000 OA
ENDBRANCH 35 47
BRANCH 34 50
ATOM     50  O4  BDP B   4      12.855  12.232   9.9770  0.00  0.00     0.000 O
BRANCH 50 54
ATOM     51  C1  BDP B   4      12.912  16.213   9.1420  0.00  0.00     0.000 C
ATOM     52  C2  BDP B   4      13.298  15.317   7.9710  0.00  0.00     0.000 C
ATOM     53  C3  BDP B   4      12.881  13.913   8.2850  0.00  0.00     0.000 C
ATOM     54  C4  BDP B   4      13.500  13.472   9.6430  0.00  0.00     0.000 C
ATOM     55  C5  BDP B   4      13.264  14.495  10.7460  0.00  0.00     0.000 C
ATOM     56  O5  BDP B   4      13.617  15.801  10.2990  0.00  0.00     0.000 O
ATOM     57   O  BDP B   4      12.649  15.744   6.7920  0.00  0.00     0.000 O
ATOM     59  HD  BDP B   4      13.263  16.160   6.3440  0.00  0.00     0.000 HD
ATOM     59   O  BDP B   4      13.431  13.070   7.2510  0.00  0.00     0.000 O
ATOM     61  HD  BDP B   4      14.045  13.485   6.8030  0.00  0.00     0.000 HD
BRANCH 55 61
ATOM     61   C  BDP B   4      14.111  14.134  11.9530  0.00  0.00     0.000 C
ATOM     62   O  BDP B   4      15.347  14.367  11.8980  0.00  0.00     0.000 OA
ATOM     63   O  BDP B   4      13.535  13.618  12.9590  0.00  0.00     0.000 OA
ENDBRANCH 55 61
BRANCH 51 64
ATOM     64  O3  NAG B   5      13.267  17.562   8.7820  0.00  0.00     0.000 O
BRANCH 64 67
ATOM     65  C1  NAG B   5      11.784  20.648  10.1490  0.00  0.00     0.000 C
ATOM     66  C2  NAG B   5      11.985  19.474   9.2070  0.00  0.00     0.000 C
ATOM     67  C3  NAG B   5      12.983  18.492   9.8080  0.00  0.00     0.000 C
ATOM     68  C4  NAG B   5      14.277  19.207  10.2230  0.00  0.00     0.000 C
ATOM     69  C5  NAG B   5      13.968  20.420  11.0860  0.00  0.00     0.000 C
ATOM     70  O5  NAG B   5      13.022  21.267  10.4180  0.00  0.00     0.000 O
ATOM     71   O  NAG B   5      15.100  18.287  10.9090  0.00  0.00     0.000 O
ATOM     73  HD  NAG B   5      15.715  18.666  10.4300  0.00  0.00     0.000 HD
ATOM     73   C  NAG B   5      15.195  21.270  11.4430  0.00  0.00     0.000 C
ATOM     74   O  NAG B   5      15.758  21.836  10.2420  0.00  0.00     0.000 O
ATOM     76  HD  NAG B   5      16.373  22.215   9.7630  0.00  0.00     0.000 HD
BRANCH 66 78
ATOM     76   N  NAG B   5      10.564  19.345   8.8330  0.00  0.00     0.000 N
ATOM     78  HD  NAG B   5      11.334  19.150   8.4870  0.00  0.00     0.000 HD
ATOM     78   C  NAG B   5      10.081  18.629   7.8050  0.00  0.00     0.000 C
ATOM     79   C  NAG B   5       8.581  18.679   7.6920  0.00  0.00     0.000 C
ATOM     80   O  NAG B   5      10.826  17.974   6.9920  0.00  0.00     0.000 OA
ENDBRANCH 66 78
BRANCH 65 81
ATOM     81  O4  BDP B   6      10.881  21.598   9.5680  0.00  0.00     0.000 O
BRANCH 81 85
ATOM     82  C1  BDP B   6       7.998  24.478  10.8910  0.00  0.00     0.000 C
ATOM     83  C2  BDP B   6       9.394  24.986  10.5440  0.00  0.00     0.000 C
ATOM     84  C3  BDP B   6      10.202  23.986   9.7120  0.00  0.00     0.000 C
ATOM     85  C4  BDP B   6      10.219  22.595  10.3490  0.00  0.00     0.000 C
ATOM     86  C5  BDP B   6       8.759  22.208  10.6850  0.00  0.00     0.000 C
ATOM     87  O5  BDP B   6       8.108  23.213  11.5270  0.00  0.00     0.000 O
ATOM     88   O  BDP B   6       9.189  26.178   9.7890  0.00  0.00     0.000 O
ATOM     90  HD  BDP B   6       9.494  26.585   9.0890  0.00  0.00     0.000 HD
ATOM     90   O  BDP B   6      11.530  24.480   9.5240  0.00  0.00     0.000 O
ATOM     92  HD  BDP B   6      11.836  24.888   8.8240  0.00  0.00     0.000 HD
BRANCH 86 92
ATOM     92   C  BDP B   6       8.724  20.956  11.5280  0.00  0.00     0.000 C
ATOM     93   O  BDP B   6       9.089  21.009  12.7410  0.00  0.00     0.000 OA
ATOM     94   O  BDP B   6       8.301  19.891  10.9790  0.00  0.00     0.000 OA
ENDBRANCH 86 92
BRANCH 82 95
ATOM     95  O3  NAG B   7       7.402  25.395  11.8300  0.00  0.00     0.000 O
BRANCH 95 98
ATOM     96  C1  NAG B   7       4.239  27.199  12.1120  0.00  0.00     0.000 C
ATOM     97  C2  NAG B   7       5.751  27.023  12.1570  0.00  0.00     0.000 C
ATOM     98  C3  NAG B   7       5.983  25.545  11.8500  0.00  0.00     0.000 C
ATOM     99  C4  NAG B   7       5.289  24.681  12.9010  0.00  0.00     0.000 C
ATOM    100  C5  NAG B   7       3.809  25.047  13.0170  0.00  0.00     0.000 C
ATOM    101  O5  NAG B   7       3.695  26.450  13.2050  0.00  0.00     0.000 O
BRANCH 97 104
ATOM    102   N  NAG B   7       6.625  27.649  11.1550  0.00  0.00     0.000 N
ATOM    104  HD  NAG B   7       7.261  27.784  10.5830  0.00  0.00     0.000 HD
ATOM    104   O  NAG B   7       8.109  29.152  10.3380  0.00  0.00     0.000 OA
ATOM    105   C  NAG B   7       7.361  28.771  11.2600  0.00  0.00     0.000 C
ATOM    106   C  NAG B   7       7.290  29.570  12.5170  0.00  0.00     0.000 C
ENDBRANCH 97 104
ATOM    107   O  NAG B   7       1.779  24.425  14.0150  0.00  0.00     0.000 O
ATOM    109  HD  NAG B   7       2.150  24.724  13.2920  0.00  0.00     0.000 HD
ATOM    109   O  NAG B   7       1.779  24.425  14.0150  0.00  0.00     0.000 O
ATOM    111  HD  NAG B   7       2.150  24.724  13.2920  0.00  0.00     0.000 HD
ENDBRANCH 95 98
ENDBRANCH 82 95
ENDBRANCH 81 85
ENDBRANCH 65 81
ENDBRANCH 64 67
ENDBRANCH 51 64
ENDBRANCH 50 54
ENDBRANCH 34 50
ENDBRANCH 33 36
ENDBRANCH 20 33
ENDBRANCH 19 23
ENDBRANCH 1 19
TORSDOF 19
ENDMDL
MODEL 39
REMARK VINA RESULT:      -5.8      6.221     19.759
ROOT
ATOM      1  C1  NAG B   1      13.512  12.839   7.6800  0.00  0.00     0.000 C
ATOM      2  C2  NAG B   1      13.901  14.315   7.6500  0.00  0.00     0.000 C
ATOM      3  C3  NAG B   1      15.114  14.561   6.7760  0.00  0.00     0.000 C
ATOM      4  C4  NAG B   1      16.218  13.681   7.3520  0.00  0.00     0.000 C
ATOM      5  C5  NAG B   1      15.806  12.209   7.2240  0.00  0.00     0.000 C
ATOM      6  O5  NAG B   1      14.596  11.941   7.9650  0.00  0.00     0.000 O
ATOM      7   O  NAG B   1      15.511  15.952   6.7740  0.00  0.00     0.000 O
ATOM      9  HD  NAG B   1      14.649  16.004   6.8300  0.00  0.00     0.000 HD
ATOM      9   O  NAG B   1      17.432  13.902   6.6550  0.00  0.00     0.000 O
ATOM     11  HD  NAG B   1      16.570  13.955   6.7110  0.00  0.00     0.000 HD
ATOM     11   C  NAG B   1      16.959  11.302   7.6710  0.00  0.00     0.000 C
ATOM     12   O  NAG B   1      16.473  10.066   8.1920  0.00  0.00     0.000 O
ATOM     14  HD  NAG B   1      15.610  10.118   8.2480  0.00  0.00     0.000 HD
ENDROOT
BRANCH 2 16
ATOM     14   N  NAG B   1      12.628  14.986   7.3330  0.00  0.00     0.000 N
ATOM     16  HD  NAG B   1      11.794  15.027   7.5640  0.00  0.00     0.000 HD
ATOM     16   C  NAG B   1      12.143  16.017   8.0460  0.00  0.00     0.000 C
ATOM     17   C  NAG B   1      12.896  16.520   9.2480  0.00  0.00     0.000 C
ATOM     18   O  NAG B   1      11.100  16.584   7.7200  0.00  0.00     0.000 OA
ENDBRANCH 2 16
BRANCH 1 19
ATOM     19  O4  BDP B   2      12.634  12.758   8.7950  0.00  0.00     0.000 O
BRANCH 19 23
ATOM     20  C1  BDP B   2      12.578  10.708  12.3630  0.00  0.00     0.000 C
ATOM     21  C2  BDP B   2      13.560  11.857  12.2620  0.00  0.00     0.000 C
ATOM     22  C3  BDP B   2      13.211  12.777  11.1150  0.00  0.00     0.000 C
ATOM     23  C4  BDP B   2      13.093  11.940   9.8440  0.00  0.00     0.000 C
ATOM     24  C5  BDP B   2      12.078  10.835  10.0600  0.00  0.00     0.000 C
ATOM     25  O5  BDP B   2      12.498  10.009  11.1290  0.00  0.00     0.000 O
ATOM     26   O  BDP B   2      13.583  12.588  13.4690  0.00  0.00     0.000 O
ATOM     28  HD  BDP B   2      13.132  11.891  13.7160  0.00  0.00     0.000 HD
ATOM     28   O  BDP B   2      14.219  13.793  11.0000  0.00  0.00     0.000 O
ATOM     30  HD  BDP B   2      13.769  13.096  11.2470  0.00  0.00     0.000 HD
BRANCH 24 30
ATOM     30   C  BDP B   2      11.922   9.972   8.8590  0.00  0.00     0.000 C
ATOM     31   O  BDP B   2      11.008  10.267   8.0550  0.00  0.00     0.000 OA
ATOM     32   O  BDP B   2      12.707   8.991   8.7180  0.00  0.00     0.000 OA
ENDBRANCH 24 30
BRANCH 20 33
ATOM     33  O3  NAG B   3      13.140   9.864  13.3380  0.00  0.00     0.000 O
BRANCH 33 36
ATOM     34  C1  NAG B   3      11.229   7.055  14.9530  0.00  0.00     0.000 C
ATOM     35  C2  NAG B   3      11.775   8.457  14.7590  0.00  0.00     0.000 C
ATOM     36  C3  NAG B   3      12.469   8.602  13.3960  0.00  0.00     0.000 C
ATOM     37  C4  NAG B   3      13.498   7.487  13.2310  0.00  0.00     0.000 C
ATOM     38  C5  NAG B   3      12.863   6.132  13.5320  0.00  0.00     0.000 C
ATOM     39  O5  NAG B   3      12.307   6.138  14.8360  0.00  0.00     0.000 O
ATOM     40   O  NAG B   3      14.011   7.487  11.8890  0.00  0.00     0.000 O
ATOM     42  HD  NAG B   3      13.757   6.659  11.9240  0.00  0.00     0.000 HD
ATOM     42   C  NAG B   3      13.852   4.970  13.5180  0.00  0.00     0.000 C
ATOM     43   O  NAG B   3      14.790   5.126  14.5900  0.00  0.00     0.000 O
ATOM     45  HD  NAG B   3      14.537   4.298  14.6250  0.00  0.00     0.000 HD
BRANCH 35 47
ATOM     45   N  NAG B   3      11.726   9.551  15.7200  0.00  0.00     0.000 N
ATOM     47  HD  NAG B   3      12.536   9.327  15.5120  0.00  0.00     0.000 HD
ATOM     47   C  NAG B   3      10.821  10.508  15.6710  0.00  0.00     0.000 C
ATOM     48   C  NAG B   3      10.925  11.570  16.7250  0.00  0.00     0.000 C
ATOM     49   O  NAG B   3       9.958  10.544  14.7970  0.00  0.00     0.000 OA
ENDBRANCH 35 47
BRANCH 34 50
ATOM     50  O4  BDP B   4      10.737   7.069  16.2770  0.00  0.00     0.000 O
BRANCH 50 54
ATOM     51  C1  BDP B   4       8.113   5.022  18.6180  0.00  0.00     0.000 C
ATOM     52  C2  BDP B   4       8.623   4.243  17.4110  0.00  0.00     0.000 C
ATOM     53  C3  BDP B   4       9.830   4.942  16.8640  0.00  0.00     0.000 C
ATOM     54  C4  BDP B   4       9.481   6.426  16.5510  0.00  0.00     0.000 C
ATOM     55  C5  BDP B   4       8.788   7.117  17.7190  0.00  0.00     0.000 C
ATOM     56  O5  BDP B   4       7.714   6.317  18.2040  0.00  0.00     0.000 O
ATOM     57   O  BDP B   4       8.975   2.929  17.7890  0.00  0.00     0.000 O
ATOM     59  HD  BDP B   4       8.320   2.438  17.5070  0.00  0.00     0.000 HD
ATOM     59   O  BDP B   4      10.164   4.292  15.6210  0.00  0.00     0.000 O
ATOM     61  HD  BDP B   4       9.509   3.801  15.3390  0.00  0.00     0.000 HD
BRANCH 55 61
ATOM     61   C  BDP B   4       8.243   8.456  17.2560  0.00  0.00     0.000 C
ATOM     62   O  BDP B   4       7.626   8.496  16.1600  0.00  0.00     0.000 OA
ATOM     63   O  BDP B   4       8.434   9.470  17.9950  0.00  0.00     0.000 OA
ENDBRANCH 55 61
BRANCH 51 64
ATOM     64  O3  NAG B   5       6.995   4.291  19.1570  0.00  0.00     0.000 O
BRANCH 64 67
ATOM     65  C1  NAG B   5       6.430   3.703  22.7530  0.00  0.00     0.000 C
ATOM     66  C2  NAG B   5       6.956   3.467  21.3480  0.00  0.00     0.000 C
ATOM     67  C3  NAG B   5       6.673   4.684  20.4770  0.00  0.00     0.000 C
ATOM     68  C4  NAG B   5       5.191   5.077  20.5450  0.00  0.00     0.000 C
ATOM     69  C5  NAG B   5       4.733   5.199  21.9900  0.00  0.00     0.000 C
ATOM     70  O5  NAG B   5       5.053   3.998  22.7070  0.00  0.00     0.000 O
ATOM     71   O  NAG B   5       5.013   6.292  19.8480  0.00  0.00     0.000 O
ATOM     73  HD  NAG B   5       4.306   5.883  19.5590  0.00  0.00     0.000 HD
ATOM     73   C  NAG B   5       3.230   5.465  22.1570  0.00  0.00     0.000 C
ATOM     74   O  NAG B   5       2.481   4.341  21.6520  0.00  0.00     0.000 O
ATOM     76  HD  NAG B   5       1.775   3.931  21.3630  0.00  0.00     0.000 HD
BRANCH 66 78
ATOM     76   N  NAG B   5       8.381   3.140  21.5480  0.00  0.00     0.000 N
ATOM     78  HD  NAG B   5       7.686   2.766  21.1940  0.00  0.00     0.000 HD
ATOM     78   C  NAG B   5       9.044   2.119  20.9820  0.00  0.00     0.000 C
ATOM     79   C  NAG B   5      10.497   2.059  21.3690  0.00  0.00     0.000 C
ATOM     80   O  NAG B   5       8.490   1.272  20.1950  0.00  0.00     0.000 OA
ENDBRANCH 66 78
BRANCH 65 81
ATOM     81  O4  BDP B   6       6.653   2.542  23.5640  0.00  0.00     0.000 O
BRANCH 81 85
ATOM     82  C1  BDP B   6       6.887   1.450  27.7010  0.00  0.00     0.000 C
ATOM     83  C2  BDP B   6       5.501   1.512  27.0650  0.00  0.00     0.000 C
ATOM     84  C3  BDP B   6       5.547   1.503  25.5350  0.00  0.00     0.000 C
ATOM     85  C4  BDP B   6       6.500   2.567  24.9850  0.00  0.00     0.000 C
ATOM     86  C5  BDP B   6       7.850   2.425  25.7270  0.00  0.00     0.000 C
ATOM     87  O5  BDP B   6       7.686   2.502  27.1790  0.00  0.00     0.000 O
ATOM     88   O  BDP B   6       4.818   0.350  27.5280  0.00  0.00     0.000 O
ATOM     90  HD  BDP B   6       4.289  -0.272  27.2400  0.00  0.00     0.000 HD
ATOM     90   O  BDP B   6       4.228   1.678  25.0140  0.00  0.00     0.000 O
ATOM     92  HD  BDP B   6       3.699   1.055  24.7260  0.00  0.00     0.000 HD
BRANCH 86 92
ATOM     92   C  BDP B   6       8.755   3.590  25.4060  0.00  0.00     0.000 C
ATOM     93   O  BDP B   6       9.568   3.500  24.4360  0.00  0.00     0.000 OA
ATOM     94   O  BDP B   6       8.644   4.634  26.1210  0.00  0.00     0.000 OA
ENDBRANCH 86 92
BRANCH 82 95
ATOM     95  O3  NAG B   7       6.745   1.663  29.1190  0.00  0.00     0.000 O
BRANCH 95 98
ATOM     96  C1  NAG B   7       7.518  -0.164  32.1860  0.00  0.00     0.000 C
ATOM     97  C2  NAG B   7       6.678   0.697  31.2510  0.00  0.00     0.000 C
ATOM     98  C3  NAG B   7       7.556   0.910  30.0200  0.00  0.00     0.000 C
ATOM     99  C4  NAG B   7       8.849   1.616  30.4200  0.00  0.00     0.000 C
ATOM    100  C5  NAG B   7       9.560   0.860  31.5430  0.00  0.00     0.000 C
ATOM    101  O5  NAG B   7       8.637   0.629  32.5970  0.00  0.00     0.000 O
BRANCH 97 104
ATOM    102   N  NAG B   7       5.444   0.086  30.7410  0.00  0.00     0.000 N
ATOM    104  HD  NAG B   7       4.842  -0.241  30.2110  0.00  0.00     0.000 HD
ATOM    104   O  NAG B   7       3.225  -0.077  30.3130  0.00  0.00     0.000 OA
ATOM    105   C  NAG B   7       4.175   0.523  30.8550  0.00  0.00     0.000 C
ATOM    106   C  NAG B   7       3.903   1.762  31.6370  0.00  0.00     0.000 C
ENDBRANCH 97 104
ATOM    107   O  NAG B   7      11.528   0.776  32.8160  0.00  0.00     0.000 O
ATOM    109  HD  NAG B   7      10.925   0.303  32.4140  0.00  0.00     0.000 HD
ATOM    109   O  NAG B   7      11.528   0.776  32.8160  0.00  0.00     0.000 O
ATOM    111  HD  NAG B   7      10.925   0.303  32.4140  0.00  0.00     0.000 HD
ENDBRANCH 95 98
ENDBRANCH 82 95
ENDBRANCH 81 85
ENDBRANCH 65 81
ENDBRANCH 64 67
ENDBRANCH 51 64
ENDBRANCH 50 54
ENDBRANCH 34 50
ENDBRANCH 33 36
ENDBRANCH 20 33
ENDBRANCH 19 23
ENDBRANCH 1 19
TORSDOF 19
ENDMDL
MODEL 40
REMARK VINA RESULT:      -5.8      6.099     18.692
ROOT
ATOM      1  C1  NAG B   1      13.769  13.002   7.4550  0.00  0.00     0.000 C
ATOM      2  C2  NAG B   1      14.065  14.498   7.4040  0.00  0.00     0.000 C
ATOM      3  C3  NAG B   1      15.241  14.810   6.5010  0.00  0.00     0.000 C
ATOM      4  C4  NAG B   1      16.410  14.005   7.0600  0.00  0.00     0.000 C
ATOM      5  C5  NAG B   1      16.086  12.509   6.9530  0.00  0.00     0.000 C
ATOM      6  O5  NAG B   1      14.912  12.174   7.7230  0.00  0.00     0.000 O
ATOM      7   O  NAG B   1      15.552  16.222   6.4780  0.00  0.00     0.000 O
ATOM      9  HD  NAG B   1      14.689  16.222   6.5530  0.00  0.00     0.000 HD
ATOM      9   O  NAG B   1      17.593  14.293   6.3340  0.00  0.00     0.000 O
ATOM     11  HD  NAG B   1      16.730  14.293   6.4080  0.00  0.00     0.000 HD
ATOM     11   C  NAG B   1      17.302  11.679   7.3830  0.00  0.00     0.000 C
ATOM     12   O  NAG B   1      16.905  10.421   7.9250  0.00  0.00     0.000 O
ATOM     14  HD  NAG B   1      16.042  10.421   8.0000  0.00  0.00     0.000 HD
ENDROOT
BRANCH 2 16
ATOM     14   N  NAG B   1      12.787  15.146   7.0600  0.00  0.00     0.000 N
ATOM     16  HD  NAG B   1      11.939  15.137   7.2370  0.00  0.00     0.000 HD
ATOM     16   C  NAG B   1      12.214  16.093   7.8230  0.00  0.00     0.000 C
ATOM     17   C  NAG B   1      12.868  16.517   9.1110  0.00  0.00     0.000 C
ATOM     18   O  NAG B   1      11.171  16.647   7.4770  0.00  0.00     0.000 OA
ENDBRANCH 2 16
BRANCH 1 19
ATOM     19  O4  BDP B   2      12.921  12.878   8.5890  0.00  0.00     0.000 O
BRANCH 19 23
ATOM     20  C1  BDP B   2      13.044  10.841  12.1630  0.00  0.00     0.000 C
ATOM     21  C2  BDP B   2      14.048  11.961  11.9920  0.00  0.00     0.000 C
ATOM     22  C3  BDP B   2      13.650  12.887  10.8660  0.00  0.00     0.000 C
ATOM     23  C4  BDP B   2      13.426  12.050   9.6090  0.00  0.00     0.000 C
ATOM     24  C5  BDP B   2      12.398  10.974   9.8970  0.00  0.00     0.000 C
ATOM     25  O5  BDP B   2      12.864  10.140  10.9400  0.00  0.00     0.000 O
ATOM     26   O  BDP B   2      14.171  12.696  13.1910  0.00  0.00     0.000 O
ATOM     28  HD  BDP B   2      13.719  12.012  13.4710  0.00  0.00     0.000 HD
ATOM     28   O  BDP B   2      14.676  13.875  10.6800  0.00  0.00     0.000 O
ATOM     30  HD  BDP B   2      14.224  13.192  10.9600  0.00  0.00     0.000 HD
BRANCH 24 30
ATOM     30   C  BDP B   2      12.140  10.113   8.7130  0.00  0.00     0.000 C
ATOM     31   O  BDP B   2      11.065  10.292   8.0960  0.00  0.00     0.000 OA
ATOM     32   O  BDP B   2      13.006   9.247   8.3990  0.00  0.00     0.000 OA
ENDBRANCH 24 30
BRANCH 20 33
ATOM     33  O3  NAG B   3      13.646   9.984  13.1020  0.00  0.00     0.000 O
BRANCH 33 36
ATOM     34  C1  NAG B   3      11.688   7.204  14.7120  0.00  0.00     0.000 C
ATOM     35  C2  NAG B   3      12.232   8.605  14.5030  0.00  0.00     0.000 C
ATOM     36  C3  NAG B   3      12.982   8.719  13.1670  0.00  0.00     0.000 C
ATOM     37  C4  NAG B   3      14.025   7.608  13.0760  0.00  0.00     0.000 C
ATOM     38  C5  NAG B   3      13.388   6.257  13.3870  0.00  0.00     0.000 C
ATOM     39  O5  NAG B   3      12.777   6.293  14.6650  0.00  0.00     0.000 O
ATOM     40   O  NAG B   3      14.595   7.576  11.7580  0.00  0.00     0.000 O
ATOM     42  HD  NAG B   3      14.346   6.748  11.8050  0.00  0.00     0.000 HD
ATOM     42   C  NAG B   3      14.385   5.103  13.4470  0.00  0.00     0.000 C
ATOM     43   O  NAG B   3      15.275   5.296  14.5530  0.00  0.00     0.000 O
ATOM     45  HD  NAG B   3      15.026   4.468  14.6000  0.00  0.00     0.000 HD
BRANCH 35 47
ATOM     45   N  NAG B   3      12.085   9.685  15.4690  0.00  0.00     0.000 N
ATOM     47  HD  NAG B   3      12.909   9.438  15.3680  0.00  0.00     0.000 HD
ATOM     47   C  NAG B   3      11.225  10.672  15.3170  0.00  0.00     0.000 C
ATOM     48   C  NAG B   3      11.216  11.714  16.3950  0.00  0.00     0.000 C
ATOM     49   O  NAG B   3      10.490  10.749  14.3340  0.00  0.00     0.000 OA
ENDBRANCH 35 47
BRANCH 34 50
ATOM     50  O4  BDP B   4      11.140   7.250  16.0120  0.00  0.00     0.000 O
BRANCH 50 54
ATOM     51  C1  BDP B   4       8.312   5.541  18.3860  0.00  0.00     0.000 C
ATOM     52  C2  BDP B   4       9.025   4.569  17.4540  0.00  0.00     0.000 C
ATOM     53  C3  BDP B   4      10.262   5.230  16.9280  0.00  0.00     0.000 C
ATOM     54  C4  BDP B   4       9.890   6.583  16.2570  0.00  0.00     0.000 C
ATOM     55  C5  BDP B   4       9.006   7.447  17.1470  0.00  0.00     0.000 C
ATOM     56  O5  BDP B   4       7.913   6.686  17.6530  0.00  0.00     0.000 O
ATOM     57   O  BDP B   4       9.382   3.395  18.1510  0.00  0.00     0.000 O
ATOM     59  HD  BDP B   4       8.798   2.806  17.9010  0.00  0.00     0.000 HD
ATOM     59   O  BDP B   4      10.800   4.362  15.9090  0.00  0.00     0.000 O
ATOM     61  HD  BDP B   4      10.216   3.774  15.6590  0.00  0.00     0.000 HD
BRANCH 55 61
ATOM     61   C  BDP B   4       8.469   8.614  16.3380  0.00  0.00     0.000 C
ATOM     62   O  BDP B   4       8.233   9.693  16.9420  0.00  0.00     0.000 OA
ATOM     63   O  BDP B   4       8.285   8.448  15.0930  0.00  0.00     0.000 OA
ENDBRANCH 55 61
BRANCH 51 64
ATOM     64  O3  NAG B   5       7.165   4.854  18.9240  0.00  0.00     0.000 O
BRANCH 64 67
ATOM     65  C1  NAG B   5       5.919   5.272  22.3690  0.00  0.00     0.000 C
ATOM     66  C2  NAG B   5       6.741   4.710  21.2210  0.00  0.00     0.000 C
ATOM     67  C3  NAG B   5       6.547   5.568  19.9770  0.00  0.00     0.000 C
ATOM     68  C4  NAG B   5       5.057   5.755  19.6620  0.00  0.00     0.000 C
ATOM     69  C5  NAG B   5       4.303   6.229  20.8950  0.00  0.00     0.000 C
ATOM     70  O5  NAG B   5       4.561   5.347  21.9960  0.00  0.00     0.000 O
ATOM     71   O  NAG B   5       4.931   6.675  18.6000  0.00  0.00     0.000 O
ATOM     73  HD  NAG B   5       4.334   6.106  18.3370  0.00  0.00     0.000 HD
ATOM     73   C  NAG B   5       2.782   6.322  20.7080  0.00  0.00     0.000 C
ATOM     74   O  NAG B   5       2.244   5.006  20.4610  0.00  0.00     0.000 O
ATOM     76  HD  NAG B   5       1.647   4.437  20.1980  0.00  0.00     0.000 HD
BRANCH 66 78
ATOM     76   N  NAG B   5       8.059   4.591  21.8740  0.00  0.00     0.000 N
ATOM     78  HD  NAG B   5       7.545   4.098  21.3790  0.00  0.00     0.000 HD
ATOM     78   C  NAG B   5       8.958   3.617  21.6620  0.00  0.00     0.000 C
ATOM     79   C  NAG B   5      10.220   3.782  22.4660  0.00  0.00     0.000 C
ATOM     80   O  NAG B   5       8.758   2.637  20.8600  0.00  0.00     0.000 OA
ENDBRANCH 66 78
BRANCH 65 81
ATOM     81  O4  BDP B   6       6.060   4.442  23.5290  0.00  0.00     0.000 O
BRANCH 81 85
ATOM     82  C1  BDP B   6       5.797   4.793  27.7910  0.00  0.00     0.000 C
ATOM     83  C2  BDP B   6       4.538   4.374  27.0390  0.00  0.00     0.000 C
ATOM     84  C3  BDP B   6       4.828   3.887  25.6170  0.00  0.00     0.000 C
ATOM     85  C4  BDP B   6       5.681   4.887  24.8330  0.00  0.00     0.000 C
ATOM     86  C5  BDP B   6       6.901   5.259  25.7080  0.00  0.00     0.000 C
ATOM     87  O5  BDP B   6       6.498   5.760  27.0230  0.00  0.00     0.000 O
ATOM     88   O  BDP B   6       3.976   3.309  27.8020  0.00  0.00     0.000 O
ATOM     90  HD  BDP B   6       3.602   2.535  27.6940  0.00  0.00     0.000 HD
ATOM     90   O  BDP B   6       3.597   3.622  24.9400  0.00  0.00     0.000 O
ATOM     92  HD  BDP B   6       3.223   2.848  24.8310  0.00  0.00     0.000 HD
BRANCH 86 92
ATOM     92   C  BDP B   6       7.657   6.416  25.0990  0.00  0.00     0.000 C
ATOM     93   O  BDP B   6       8.783   6.208  24.5550  0.00  0.00     0.000 OA
ATOM     94   O  BDP B   6       7.108   7.561  25.1400  0.00  0.00     0.000 OA
ENDBRANCH 86 92
BRANCH 82 95
ATOM     95  O3  NAG B   7       5.401   5.414  29.0300  0.00  0.00     0.000 O
BRANCH 95 98
ATOM     96  C1  NAG B   7       6.266   5.041  32.5590  0.00  0.00     0.000 C
ATOM     97  C2  NAG B   7       5.338   5.196  31.3600  0.00  0.00     0.000 C
ATOM     98  C3  NAG B   7       6.270   5.333  30.1580  0.00  0.00     0.000 C
ATOM     99  C4  NAG B   7       7.167   6.556  30.3330  0.00  0.00     0.000 C
ATOM    100  C5  NAG B   7       7.910   6.502  31.6690  0.00  0.00     0.000 C
ATOM    101  O5  NAG B   7       6.970   6.279  32.7090  0.00  0.00     0.000 O
BRANCH 97 104
ATOM    102   N  NAG B   7       4.483   4.061  30.9860  0.00  0.00     0.000 N
ATOM    104  HD  NAG B   7       4.093   3.436  30.5310  0.00  0.00     0.000 HD
ATOM    104   O  NAG B   7       2.545   2.944  30.6360  0.00  0.00     0.000 OA
ATOM    105   C  NAG B   7       3.142   3.957  31.0490  0.00  0.00     0.000 C
ATOM    106   C  NAG B   7       2.353   5.088  31.6140  0.00  0.00     0.000 C
ENDBRANCH 97 104
ATOM    107   O  NAG B   7       9.567   7.552  32.9540  0.00  0.00     0.000 O
ATOM    109  HD  NAG B   7       9.231   6.790  32.7190  0.00  0.00     0.000 HD
ATOM    109   O  NAG B   7       9.567   7.552  32.9540  0.00  0.00     0.000 O
ATOM    111  HD  NAG B   7       9.231   6.790  32.7190  0.00  0.00     0.000 HD
ENDBRANCH 95 98
ENDBRANCH 82 95
ENDBRANCH 81 85
ENDBRANCH 65 81
ENDBRANCH 64 67
ENDBRANCH 51 64
ENDBRANCH 50 54
ENDBRANCH 34 50
ENDBRANCH 33 36
ENDBRANCH 20 33
ENDBRANCH 19 23
ENDBRANCH 1 19
TORSDOF 19
ENDMDL
MODEL 41
REMARK VINA RESULT:      -5.8      4.612     16.780
ROOT
ATOM      1  C1  NAG B   1      16.044  23.499   2.5030  0.00  0.00     0.000 C
ATOM      2  C2  NAG B   1      14.990  24.572   2.7590  0.00  0.00     0.000 C
ATOM      3  C3  NAG B   1      15.613  25.939   2.9560  0.00  0.00     0.000 C
ATOM      4  C4  NAG B   1      16.580  25.783   4.1250  0.00  0.00     0.000 C
ATOM      5  C5  NAG B   1      17.681  24.788   3.7370  0.00  0.00     0.000 C
ATOM      6  O5  NAG B   1      17.128  23.487   3.4450  0.00  0.00     0.000 O
ATOM      7   O  NAG B   1      14.623  26.955   3.2380  0.00  0.00     0.000 O
ATOM      9  HD  NAG B   1      14.204  26.433   2.6880  0.00  0.00     0.000 HD
ATOM      9   O  NAG B   1      17.158  27.036   4.4510  0.00  0.00     0.000 O
ATOM     11  HD  NAG B   1      16.739  26.514   3.9010  0.00  0.00     0.000 HD
ATOM     11   C  NAG B   1      18.739  24.720   4.8450  0.00  0.00     0.000 C
ATOM     12   O  NAG B   1      19.369  23.441   4.8820  0.00  0.00     0.000 O
ATOM     14  HD  NAG B   1      18.950  22.919   4.3320  0.00  0.00     0.000 HD
ENDROOT
BRANCH 2 16
ATOM     14   N  NAG B   1      14.029  24.373   1.6600  0.00  0.00     0.000 N
ATOM     16  HD  NAG B   1      13.568  23.766   1.2500  0.00  0.00     0.000 HD
ATOM     16   C  NAG B   1      12.706  24.237   1.8560  0.00  0.00     0.000 C
ATOM     17   C  NAG B   1      12.147  24.259   3.2540  0.00  0.00     0.000 C
ATOM     18   O  NAG B   1      11.929  24.122   0.9080  0.00  0.00     0.000 OA
ENDBRANCH 2 16
BRANCH 1 19
ATOM     19  O4  BDP B   2      15.331  22.288   2.7120  0.00  0.00     0.000 O
BRANCH 19 23
ATOM     20  C1  BDP B   2      15.652  19.067   5.2540  0.00  0.00     0.000 C
ATOM     21  C2  BDP B   2      15.356  20.406   5.8980  0.00  0.00     0.000 C
ATOM     22  C3  BDP B   2      14.851  21.403   4.8800  0.00  0.00     0.000 C
ATOM     23  C4  BDP B   2      15.853  21.469   3.7300  0.00  0.00     0.000 C
ATOM     24  C5  BDP B   2      16.059  20.079   3.1610  0.00  0.00     0.000 C
ATOM     25  O5  BDP B   2      16.558  19.223   4.1710  0.00  0.00     0.000 O
ATOM     26   O  BDP B   2      14.403  20.253   6.9280  0.00  0.00     0.000 O
ATOM     28  HD  BDP B   2      14.601  19.425   6.7730  0.00  0.00     0.000 HD
ATOM     28   O  BDP B   2      14.675  22.679   5.5160  0.00  0.00     0.000 O
ATOM     30  HD  BDP B   2      14.872  21.850   5.3600  0.00  0.00     0.000 HD
BRANCH 24 30
ATOM     30   C  BDP B   2      17.035  20.070   2.0400  0.00  0.00     0.000 C
ATOM     31   O  BDP B   2      16.654  19.583   0.9510  0.00  0.00     0.000 OA
ATOM     32   O  BDP B   2      18.190  20.542   2.2450  0.00  0.00     0.000 OA
ENDBRANCH 24 30
BRANCH 20 33
ATOM     33  O3  NAG B   3      16.276  18.329   6.2760  0.00  0.00     0.000 O
BRANCH 33 36
ATOM     34  C1  NAG B   3      15.466  14.781   7.2310  0.00  0.00     0.000 C
ATOM     35  C2  NAG B   3      15.451  16.296   7.3010  0.00  0.00     0.000 C
ATOM     36  C3  NAG B   3      16.133  16.920   6.0740  0.00  0.00     0.000 C
ATOM     37  C4  NAG B   3      17.518  16.303   5.8970  0.00  0.00     0.000 C
ATOM     38  C5  NAG B   3      17.426  14.779   5.9260  0.00  0.00     0.000 C
ATOM     39  O5  NAG B   3      16.817  14.355   7.1340  0.00  0.00     0.000 O
ATOM     40   O  NAG B   3      18.087  16.723   4.6480  0.00  0.00     0.000 O
ATOM     42  HD  NAG B   3      18.166  15.868   4.5370  0.00  0.00     0.000 HD
ATOM     42   C  NAG B   3      18.781  14.078   5.8870  0.00  0.00     0.000 C
ATOM     43   O  NAG B   3      19.509  14.375   7.0850  0.00  0.00     0.000 O
ATOM     45  HD  NAG B   3      19.587  13.519   6.9740  0.00  0.00     0.000 HD
BRANCH 35 47
ATOM     45   N  NAG B   3      14.884  17.044   8.4170  0.00  0.00     0.000 N
ATOM     47  HD  NAG B   3      15.744  17.132   8.3580  0.00  0.00     0.000 HD
ATOM     47   C  NAG B   3      13.725  17.667   8.3470  0.00  0.00     0.000 C
ATOM     48   C  NAG B   3      13.298  18.407   9.5800  0.00  0.00     0.000 C
ATOM     49   O  NAG B   3      13.044  17.665   7.3240  0.00  0.00     0.000 OA
ENDBRANCH 35 47
BRANCH 34 50
ATOM     50  O4  BDP B   4      14.911  14.384   8.4670  0.00  0.00     0.000 O
BRANCH 50 54
ATOM     51  C1  BDP B   4      14.068  11.196  10.8500  0.00  0.00     0.000 C
ATOM     52  C2  BDP B   4      15.545  11.568  10.7920  0.00  0.00     0.000 C
ATOM     53  C3  BDP B   4      15.671  12.942  10.2090  0.00  0.00     0.000 C
ATOM     54  C4  BDP B   4      14.957  12.993   8.8270  0.00  0.00     0.000 C
ATOM     55  C5  BDP B   4      13.545  12.425   8.8830  0.00  0.00     0.000 C
ATOM     56  O5  BDP B   4      13.544  11.157   9.5350  0.00  0.00     0.000 O
ATOM     57   O  BDP B   4      16.104  11.558  12.0890  0.00  0.00     0.000 O
ATOM     59  HD  BDP B   4      16.555  10.820  12.1260  0.00  0.00     0.000 HD
ATOM     59   O  BDP B   4      17.077  13.179   9.9910  0.00  0.00     0.000 O
ATOM     61  HD  BDP B   4      17.528  12.440  10.0290  0.00  0.00     0.000 HD
BRANCH 55 61
ATOM     61   C  BDP B   4      13.015  12.260   7.4700  0.00  0.00     0.000 C
ATOM     62   O  BDP B   4      11.842  12.650   7.2300  0.00  0.00     0.000 OA
ATOM     63   O  BDP B   4      13.777  11.740   6.5990  0.00  0.00     0.000 OA
ENDBRANCH 55 61
BRANCH 51 64
ATOM     64  O3  NAG B   5      13.978   9.900  11.4740  0.00  0.00     0.000 O
BRANCH 64 67
ATOM     65  C1  NAG B   5      11.126   9.043  13.6470  0.00  0.00     0.000 C
ATOM     66  C2  NAG B   5      12.454   9.653  13.2330  0.00  0.00     0.000 C
ATOM     67  C3  NAG B   5      12.643   9.510  11.7280  0.00  0.00     0.000 C
ATOM     68  C4  NAG B   5      12.442   8.055  11.2830  0.00  0.00     0.000 C
ATOM     69  C5  NAG B   5      11.132   7.504  11.8220  0.00  0.00     0.000 C
ATOM     70  O5  NAG B   5      11.069   7.694  13.2430  0.00  0.00     0.000 O
ATOM     71   O  NAG B   5      12.476   8.005   9.8730  0.00  0.00     0.000 O
ATOM     73  HD  NAG B   5      12.949   7.297  10.0290  0.00  0.00     0.000 HD
ATOM     73   C  NAG B   5      10.906   6.013  11.5330  0.00  0.00     0.000 C
ATOM     74   O  NAG B   5      11.912   5.232  12.2100  0.00  0.00     0.000 O
ATOM     76  HD  NAG B   5      12.385   4.523  12.3670  0.00  0.00     0.000 HD
BRANCH 66 78
ATOM     76   N  NAG B   5      12.363  11.008  13.8090  0.00  0.00     0.000 N
ATOM     78  HD  NAG B   5      12.921  10.345  13.8250  0.00  0.00     0.000 HD
ATOM     78   C  NAG B   5      13.354  11.671  14.4270  0.00  0.00     0.000 C
ATOM     79   C  NAG B   5      12.957  13.046  14.8910  0.00  0.00     0.000 C
ATOM     80   O  NAG B   5      14.523  11.176  14.6110  0.00  0.00     0.000 OA
ENDBRANCH 66 78
BRANCH 65 81
ATOM     81  O4  BDP B   6      10.965   9.133  15.0690  0.00  0.00     0.000 O
BRANCH 81 85
ATOM     82  C1  BDP B   6       7.875   9.250  18.0360  0.00  0.00     0.000 C
ATOM     83  C2  BDP B   6       8.120   7.922  17.3240  0.00  0.00     0.000 C
ATOM     84  C3  BDP B   6       9.472   7.872  16.6070  0.00  0.00     0.000 C
ATOM     85  C4  BDP B   6       9.680   9.081  15.6930  0.00  0.00     0.000 C
ATOM     86  C5  BDP B   6       9.370  10.356  16.5130  0.00  0.00     0.000 C
ATOM     87  O5  BDP B   6       8.033  10.312  17.1060  0.00  0.00     0.000 O
ATOM     88   O  BDP B   6       8.085   6.930  18.3470  0.00  0.00     0.000 O
ATOM     90  HD  BDP B   6       8.503   6.213  18.5950  0.00  0.00     0.000 HD
ATOM     90   O  BDP B   6       9.580   6.650  15.8720  0.00  0.00     0.000 O
ATOM     92  HD  BDP B   6       9.997   5.933  16.1210  0.00  0.00     0.000 HD
BRANCH 86 92
ATOM     92   C  BDP B   6       9.325  11.567  15.6130  0.00  0.00     0.000 C
ATOM     93   O  BDP B   6       9.800  12.668  16.0240  0.00  0.00     0.000 OA
ATOM     94   O  BDP B   6       8.823  11.418  14.4560  0.00  0.00     0.000 OA
ENDBRANCH 86 92
BRANCH 82 95
ATOM     95  O3  NAG B   7       6.512   9.269  18.5040  0.00  0.00     0.000 O
BRANCH 95 98
ATOM     96  C1  NAG B   7       4.682   9.551  21.6520  0.00  0.00     0.000 C
ATOM     97  C2  NAG B   7       4.945   9.067  20.2320  0.00  0.00     0.000 C
ATOM     98  C3  NAG B   7       6.232   9.772  19.8090  0.00  0.00     0.000 C
ATOM     99  C4  NAG B   7       6.035  11.285  19.8560  0.00  0.00     0.000 C
ATOM    100  C5  NAG B   7       5.528  11.727  21.2300  0.00  0.00     0.000 C
ATOM    101  O5  NAG B   7       4.390  10.950  21.5720  0.00  0.00     0.000 O
BRANCH 97 104
ATOM    102   N  NAG B   7       5.201   7.626  20.1010  0.00  0.00     0.000 N
ATOM    104  HD  NAG B   7       5.591   6.866  19.9600  0.00  0.00     0.000 HD
ATOM    104   O  NAG B   7       4.969   5.540  19.2480  0.00  0.00     0.000 OA
ATOM    105   C  NAG B   7       4.601   6.731  19.2930  0.00  0.00     0.000 C
ATOM    106   C  NAG B   7       3.480   7.181  18.4200  0.00  0.00     0.000 C
ENDBRANCH 97 104
ATOM    107   O  NAG B   7       5.046  13.603  22.5540  0.00  0.00     0.000 O
ATOM    109  HD  NAG B   7       5.379  12.803  22.5530  0.00  0.00     0.000 HD
ATOM    109   O  NAG B   7       5.046  13.603  22.5540  0.00  0.00     0.000 O
ATOM    111  HD  NAG B   7       5.379  12.803  22.5530  0.00  0.00     0.000 HD
ENDBRANCH 95 98
ENDBRANCH 82 95
ENDBRANCH 81 85
ENDBRANCH 65 81
ENDBRANCH 64 67
ENDBRANCH 51 64
ENDBRANCH 50 54
ENDBRANCH 34 50
ENDBRANCH 33 36
ENDBRANCH 20 33
ENDBRANCH 19 23
ENDBRANCH 1 19
TORSDOF 19
ENDMDL
MODEL 42
REMARK VINA RESULT:      -5.8      6.669     10.534
ROOT
ATOM      1  C1  NAG B   1       5.401   9.340  18.1160  0.00  0.00     0.000 C
ATOM      2  C2  NAG B   1       5.274  10.467  19.1380  0.00  0.00     0.000 C
ATOM      3  C3  NAG B   1       3.944  10.424  19.8620  0.00  0.00     0.000 C
ATOM      4  C4  NAG B   1       2.882  10.507  18.7700  0.00  0.00     0.000 C
ATOM      5  C5  NAG B   1       2.994   9.273  17.8650  0.00  0.00     0.000 C
ATOM      6  O5  NAG B   1       4.284   9.215  17.2210  0.00  0.00     0.000 O
ATOM      7   O  NAG B   1       3.801  11.511  20.8040  0.00  0.00     0.000 O
ATOM      9  HD  NAG B   1       4.647  11.332  20.8530  0.00  0.00     0.000 HD
ATOM      9   O  NAG B   1       1.590  10.562  19.3500  0.00  0.00     0.000 O
ATOM     11  HD  NAG B   1       2.435  10.383  19.3990  0.00  0.00     0.000 HD
ATOM     11   C  NAG B   1       1.849   9.267  16.8440  0.00  0.00     0.000 C
ATOM     12   O  NAG B   1       2.231   8.601  15.6420  0.00  0.00     0.000 O
ATOM     14  HD  NAG B   1       3.077   8.422  15.6910  0.00  0.00     0.000 HD
ENDROOT
BRANCH 2 16
ATOM     14   N  NAG B   1       6.475  10.382  19.9890  0.00  0.00     0.000 N
ATOM     16  HD  NAG B   1       7.332  10.260  19.9610  0.00  0.00     0.000 HD
ATOM     16   C  NAG B   1       7.339  11.400  20.1430  0.00  0.00     0.000 C
ATOM     17   C  NAG B   1       7.116  12.694  19.4060  0.00  0.00     0.000 C
ATOM     18   O  NAG B   1       8.304  11.308  20.9020  0.00  0.00     0.000 OA
ENDBRANCH 2 16
BRANCH 1 19
ATOM     19  O4  BDP B   2       6.500   9.753  17.3140  0.00  0.00     0.000 O
BRANCH 19 23
ATOM     20  C1  BDP B   2       9.156   7.853  14.8090  0.00  0.00     0.000 C
ATOM     21  C2  BDP B   2       7.827   8.252  14.2020  0.00  0.00     0.000 C
ATOM     22  C3  BDP B   2       7.124   9.285  15.0540  0.00  0.00     0.000 C
ATOM     23  C4  BDP B   2       7.026   8.749  16.4800  0.00  0.00     0.000 C
ATOM     24  C5  BDP B   2       8.412   8.396  16.9820  0.00  0.00     0.000 C
ATOM     25  O5  BDP B   2       8.981   7.406  16.1460  0.00  0.00     0.000 O
ATOM     26   O  BDP B   2       8.017   8.760  12.8990  0.00  0.00     0.000 O
ATOM     28  HD  BDP B   2       8.800   8.422  13.0520  0.00  0.00     0.000 HD
ATOM     28   O  BDP B   2       5.832   9.562  14.4920  0.00  0.00     0.000 O
ATOM     30  HD  BDP B   2       6.615   9.225  14.6450  0.00  0.00     0.000 HD
BRANCH 24 30
ATOM     30   C  BDP B   2       8.387   7.855  18.3670  0.00  0.00     0.000 C
ATOM     31   O  BDP B   2       8.985   8.511  19.2510  0.00  0.00     0.000 OA
ATOM     32   O  BDP B   2       7.776   6.768  18.5770  0.00  0.00     0.000 OA
ENDBRANCH 24 30
BRANCH 20 33
ATOM     33  O3  NAG B   3       9.583   6.774  14.0130  0.00  0.00     0.000 O
BRANCH 33 36
ATOM     34  C1  NAG B   3      13.245   5.974  13.6980  0.00  0.00     0.000 C
ATOM     35  C2  NAG B   3      11.923   6.659  13.4050  0.00  0.00     0.000 C
ATOM     36  C3  NAG B   3      10.853   6.274  14.4380  0.00  0.00     0.000 C
ATOM     37  C4  NAG B   3      10.776   4.753  14.5420  0.00  0.00     0.000 C
ATOM     38  C5  NAG B   3      12.169   4.165  14.7510  0.00  0.00     0.000 C
ATOM     39  O5  NAG B   3      13.027   4.571  13.6990  0.00  0.00     0.000 O
ATOM     40   O  NAG B   3       9.930   4.379  15.6410  0.00  0.00     0.000 O
ATOM     42  HD  NAG B   3      10.633   3.927  15.8670  0.00  0.00     0.000 HD
ATOM     42   C  NAG B   3      12.203   2.639  14.7370  0.00  0.00     0.000 C
ATOM     43   O  NAG B   3      11.851   2.164  13.4320  0.00  0.00     0.000 O
ATOM     45  HD  NAG B   3      12.554   1.712  13.6590  0.00  0.00     0.000 HD
BRANCH 35 47
ATOM     45   N  NAG B   3      11.737   7.542  12.2600  0.00  0.00     0.000 N
ATOM     47  HD  NAG B   3      11.296   6.800  12.1850  0.00  0.00     0.000 HD
ATOM     47   C  NAG B   3      11.640   8.851  12.3740  0.00  0.00     0.000 C
ATOM     48   C  NAG B   3      11.429   9.611  11.0980  0.00  0.00     0.000 C
ATOM     49   O  NAG B   3      11.693   9.417  13.4640  0.00  0.00     0.000 OA
ENDBRANCH 35 47
BRANCH 34 50
ATOM     50  O4  BDP B   4      14.062   6.344  12.6070  0.00  0.00     0.000 O
BRANCH 50 54
ATOM     51  C1  BDP B   4      17.888   7.144  11.4770  0.00  0.00     0.000 C
ATOM     52  C2  BDP B   4      17.710   5.822  12.2140  0.00  0.00     0.000 C
ATOM     53  C3  BDP B   4      16.253   5.477  12.2360  0.00  0.00     0.000 C
ATOM     54  C4  BDP B   4      15.444   6.653  12.8540  0.00  0.00     0.000 C
ATOM     55  C5  BDP B   4      15.797   7.994  12.2240  0.00  0.00     0.000 C
ATOM     56  O5  BDP B   4      17.211   8.168  12.1830  0.00  0.00     0.000 O
ATOM     57   O  BDP B   4      18.424   4.795  11.5580  0.00  0.00     0.000 O
ATOM     59  HD  BDP B   4      19.131   4.677  12.0440  0.00  0.00     0.000 HD
ATOM     59   O  BDP B   4      16.105   4.332  13.1010  0.00  0.00     0.000 O
ATOM     61  HD  BDP B   4      16.812   4.214  13.5870  0.00  0.00     0.000 HD
BRANCH 55 61
ATOM     61   C  BDP B   4      15.180   9.112  13.0450  0.00  0.00     0.000 C
ATOM     62   O  BDP B   4      15.108   8.958  14.2930  0.00  0.00     0.000 OA
ATOM     63   O  BDP B   4      14.768  10.147  12.4370  0.00  0.00     0.000 OA
ENDBRANCH 55 61
BRANCH 51 64
ATOM     64  O3  NAG B   5      19.302   7.413  11.4180  0.00  0.00     0.000 O
BRANCH 64 67
ATOM     65  C1  NAG B   5      20.082  10.006   8.9150  0.00  0.00     0.000 C
ATOM     66  C2  NAG B   5      19.564   8.693   9.4750  0.00  0.00     0.000 C
ATOM     67  C3  NAG B   5      19.587   8.733  10.9980  0.00  0.00     0.000 C
ATOM     68  C4  NAG B   5      20.971   9.146  11.5170  0.00  0.00     0.000 C
ATOM     69  C5  NAG B   5      21.444  10.419  10.8330  0.00  0.00     0.000 C
ATOM     70  O5  NAG B   5      21.378  10.261   9.4080  0.00  0.00     0.000 O
ATOM     71   O  NAG B   5      20.896   9.316  12.9170  0.00  0.00     0.000 O
ATOM     73  HD  NAG B   5      21.657   8.903  12.8860  0.00  0.00     0.000 HD
ATOM     73   C  NAG B   5      22.875  10.838  11.1970  0.00  0.00     0.000 C
ATOM     74   O  NAG B   5      23.805   9.835  10.7390  0.00  0.00     0.000 O
ATOM     76  HD  NAG B   5      24.566   9.422  10.7080  0.00  0.00     0.000 HD
BRANCH 66 78
ATOM     76   N  NAG B   5      18.210   8.517   8.9170  0.00  0.00     0.000 N
ATOM     78  HD  NAG B   5      18.973   8.109   8.8780  0.00  0.00     0.000 HD
ATOM     78   C  NAG B   5      17.755   7.427   8.2790  0.00  0.00     0.000 C
ATOM     79   C  NAG B   5      16.320   7.544   7.8420  0.00  0.00     0.000 C
ATOM     80   O  NAG B   5      18.476   6.390   8.0560  0.00  0.00     0.000 OA
ENDBRANCH 66 78
BRANCH 65 81
ATOM     81  O4  BDP B   6      20.107   9.956   7.4830  0.00  0.00     0.000 O
BRANCH 81 85
ATOM     82  C1  BDP B   6      19.248  12.761   4.3590  0.00  0.00     0.000 C
ATOM     83  C2  BDP B   6      20.677  12.237   4.4630  0.00  0.00     0.000 C
ATOM     84  C3  BDP B   6      20.786  10.969   5.3150  0.00  0.00     0.000 C
ATOM     85  C4  BDP B   6      20.116  11.139   6.6810  0.00  0.00     0.000 C
ATOM     86  C5  BDP B   6      18.695  11.705   6.4470  0.00  0.00     0.000 C
ATOM     87  O5  BDP B   6      18.723  12.943   5.6660  0.00  0.00     0.000 O
ATOM     88   O  BDP B   6      21.075  11.947   3.1260  0.00  0.00     0.000 O
ATOM     90  HD  BDP B   6      21.501  11.346   2.6710  0.00  0.00     0.000 HD
ATOM     90   O  BDP B   6      22.161  10.606   5.4610  0.00  0.00     0.000 O
ATOM     92  HD  BDP B   6      22.587  10.004   5.0070  0.00  0.00     0.000 HD
BRANCH 86 92
ATOM     92   C  BDP B   6      18.068  12.119   7.7560  0.00  0.00     0.000 C
ATOM     93   O  BDP B   6      18.565  13.085   8.4080  0.00  0.00     0.000 OA
ATOM     94   O  BDP B   6      17.037  11.482   8.1390  0.00  0.00     0.000 OA
ENDBRANCH 86 92
BRANCH 82 95
ATOM     95  O3  NAG B   7      19.283  14.048   3.7130  0.00  0.00     0.000 O
BRANCH 95 98
ATOM     96  C1  NAG B   7      16.801  15.624   1.5450  0.00  0.00     0.000 C
ATOM     97  C2  NAG B   7      18.139  14.988   1.8980  0.00  0.00     0.000 C
ATOM     98  C3  NAG B   7      18.054  14.700   3.3960  0.00  0.00     0.000 C
ATOM     99  C4  NAG B   7      17.833  16.002   4.1630  0.00  0.00     0.000 C
ATOM    100  C5  NAG B   7      16.615  16.754   3.6230  0.00  0.00     0.000 C
ATOM    101  O5  NAG B   7      16.744  16.887   2.2160  0.00  0.00     0.000 O
BRANCH 97 104
ATOM    102   N  NAG B   7      18.444  13.680   1.3040  0.00  0.00     0.000 N
ATOM    104  HD  NAG B   7      18.646  12.843   1.2080  0.00  0.00     0.000 HD
ATOM    104   O  NAG B   7      19.607  12.172   0.0770  0.00  0.00     0.000 OA
ATOM    105   C  NAG B   7      19.435  13.348   0.4550  0.00  0.00     0.000 C
ATOM    106   C  NAG B   7      20.358  14.412  -0.0330  0.00  0.00     0.000 C
ENDBRANCH 97 104
ATOM    107   O  NAG B   7      15.215  18.600   3.9930  0.00  0.00     0.000 O
ATOM    109  HD  NAG B   7      15.243  17.770   3.7460  0.00  0.00     0.000 HD
ATOM    109   O  NAG B   7      15.215  18.600   3.9930  0.00  0.00     0.000 O
ATOM    111  HD  NAG B   7      15.243  17.770   3.7460  0.00  0.00     0.000 HD
ENDBRANCH 95 98
ENDBRANCH 82 95
ENDBRANCH 81 85
ENDBRANCH 65 81
ENDBRANCH 64 67
ENDBRANCH 51 64
ENDBRANCH 50 54
ENDBRANCH 34 50
ENDBRANCH 33 36
ENDBRANCH 20 33
ENDBRANCH 19 23
ENDBRANCH 1 19
TORSDOF 19
ENDMDL
MODEL 43
REMARK VINA RESULT:      -5.7      5.322      7.266
ROOT
ATOM      1  C1  NAG B   1      10.985   8.179  13.6790  0.00  0.00     0.000 C
ATOM      2  C2  NAG B   1      10.006   8.077  14.8460  0.00  0.00     0.000 C
ATOM      3  C3  NAG B   1      10.720   7.851  16.1630  0.00  0.00     0.000 C
ATOM      4  C4  NAG B   1      11.533   6.574  15.9730  0.00  0.00     0.000 C
ATOM      5  C5  NAG B   1      12.580   6.804  14.8750  0.00  0.00     0.000 C
ATOM      6  O5  NAG B   1      11.951   7.119  13.6140  0.00  0.00     0.000 O
ATOM      7   O  NAG B   1       9.796   7.714  17.2670  0.00  0.00     0.000 O
ATOM      9  HD  NAG B   1       9.397   8.292  16.7610  0.00  0.00     0.000 HD
ATOM      9   O  NAG B   1      12.177   6.221  17.1850  0.00  0.00     0.000 O
ATOM     11  HD  NAG B   1      11.779   6.800  16.6790  0.00  0.00     0.000 HD
ATOM     11   C  NAG B   1      13.497   5.580  14.7630  0.00  0.00     0.000 C
ATOM     12   O  NAG B   1      14.006   5.434  13.4380  0.00  0.00     0.000 O
ATOM     14  HD  NAG B   1      13.607   6.013  12.9310  0.00  0.00     0.000 HD
ENDROOT
BRANCH 2 16
ATOM     14   N  NAG B   1       8.558   8.108  14.5730  0.00  0.00     0.000 N
ATOM     16  HD  NAG B   1       7.783   8.110  14.9600  0.00  0.00     0.000 HD
ATOM     16   C  NAG B   1       7.817   9.226  14.6660  0.00  0.00     0.000 C
ATOM     17   C  NAG B   1       8.458  10.520  15.0930  0.00  0.00     0.000 C
ATOM     18   O  NAG B   1       6.619   9.223  14.3820  0.00  0.00     0.000 OA
ENDBRANCH 2 16
BRANCH 1 19
ATOM     19  O4  BDP B   2      10.150   8.018  12.5410  0.00  0.00     0.000 O
BRANCH 19 23
ATOM     20  C1  BDP B   2      12.883   9.658   9.9360  0.00  0.00     0.000 C
ATOM     21  C2  BDP B   2      11.783  10.577  10.4240  0.00  0.00     0.000 C
ATOM     22  C3  BDP B   2      11.112  10.021  11.6600  0.00  0.00     0.000 C
ATOM     23  C4  BDP B   2      10.651   8.598  11.3600  0.00  0.00     0.000 C
ATOM     24  C5  BDP B   2      11.834   7.773  10.8940  0.00  0.00     0.000 C
ATOM     25  O5  BDP B   2      12.380   8.347   9.7210  0.00  0.00     0.000 O
ATOM     26   O  BDP B   2      12.303  11.859  10.7020  0.00  0.00     0.000 O
ATOM     28  HD  BDP B   2      12.974  11.504  10.2840  0.00  0.00     0.000 HD
ATOM     28   O  BDP B   2      10.018  10.876  12.0300  0.00  0.00     0.000 O
ATOM     30  HD  BDP B   2      10.689  10.521  11.6120  0.00  0.00     0.000 HD
BRANCH 24 30
ATOM     30   C  BDP B   2      11.451   6.372  10.5730  0.00  0.00     0.000 C
ATOM     31   O  BDP B   2      10.384   6.200   9.9410  0.00  0.00     0.000 OA
ATOM     32   O  BDP B   2      12.211   5.438  10.9570  0.00  0.00     0.000 OA
ENDBRANCH 24 30
BRANCH 20 33
ATOM     33  O3  NAG B   3      13.268  10.213   8.7020  0.00  0.00     0.000 O
BRANCH 33 36
ATOM     34  C1  NAG B   3      16.523  11.605   7.4290  0.00  0.00     0.000 C
ATOM     35  C2  NAG B   3      15.042  11.561   7.7530  0.00  0.00     0.000 C
ATOM     36  C3  NAG B   3      14.689  10.323   8.5920  0.00  0.00     0.000 C
ATOM     37  C4  NAG B   3      15.230   9.073   7.9020  0.00  0.00     0.000 C
ATOM     38  C5  NAG B   3      16.702   9.260   7.5460  0.00  0.00     0.000 C
ATOM     39  O5  NAG B   3      16.861  10.412   6.7360  0.00  0.00     0.000 O
ATOM     40   O  NAG B   3      15.088   7.935   8.7660  0.00  0.00     0.000 O
ATOM     42  HD  NAG B   3      15.936   7.864   8.6070  0.00  0.00     0.000 HD
ATOM     42   C  NAG B   3      17.292   8.109   6.7360  0.00  0.00     0.000 C
ATOM     43   O  NAG B   3      16.660   8.054   5.4510  0.00  0.00     0.000 O
ATOM     45  HD  NAG B   3      17.508   7.984   5.2920  0.00  0.00     0.000 HD
BRANCH 35 47
ATOM     45   N  NAG B   3      14.087  12.559   7.2880  0.00  0.00     0.000 N
ATOM     47  HD  NAG B   3      13.955  11.781   6.9330  0.00  0.00     0.000 HD
ATOM     47   C  NAG B   3      13.585  13.491   8.0740  0.00  0.00     0.000 C
ATOM     48   C  NAG B   3      12.599  14.428   7.4410  0.00  0.00     0.000 C
ATOM     49   O  NAG B   3      13.884  13.572   9.2630  0.00  0.00     0.000 OA
ENDBRANCH 35 47
BRANCH 34 50
ATOM     50  O4  BDP B   4      16.645  12.722   6.5740  0.00  0.00     0.000 O
BRANCH 50 54
ATOM     51  C1  BDP B   4      19.052  15.811   5.4720  0.00  0.00     0.000 C
ATOM     52  C2  BDP B   4      19.627  14.428   5.1850  0.00  0.00     0.000 C
ATOM     53  C3  BDP B   4      18.523  13.421   5.2810  0.00  0.00     0.000 C
ATOM     54  C4  BDP B   4      17.826  13.535   6.6680  0.00  0.00     0.000 C
ATOM     55  C5  BDP B   4      17.444  14.970   7.0070  0.00  0.00     0.000 C
ATOM     56  O5  BDP B   4      18.550  15.843   6.7950  0.00  0.00     0.000 O
ATOM     57   O  BDP B   4      20.186  14.389   3.8890  0.00  0.00     0.000 O
ATOM     59  HD  BDP B   4      21.041  14.436   4.0180  0.00  0.00     0.000 HD
ATOM     59   O  BDP B   4      19.136  12.117   5.1980  0.00  0.00     0.000 O
ATOM     61  HD  BDP B   4      19.991  12.165   5.3270  0.00  0.00     0.000 HD
BRANCH 55 61
ATOM     61   C  BDP B   4      17.021  15.044   8.4630  0.00  0.00     0.000 C
ATOM     62   O  BDP B   4      17.622  14.311   9.2910  0.00  0.00     0.000 OA
ATOM     63   O  BDP B   4      16.085  15.842   8.7760  0.00  0.00     0.000 OA
ENDBRANCH 55 61
BRANCH 51 64
ATOM     64  O3  NAG B   5      20.123  16.761   5.3080  0.00  0.00     0.000 O
BRANCH 64 67
ATOM     65  C1  NAG B   5      19.006  20.125   4.2960  0.00  0.00     0.000 C
ATOM     66  C2  NAG B   5      19.256  18.630   4.1990  0.00  0.00     0.000 C
ATOM     67  C3  NAG B   5      19.711  18.092   5.5490  0.00  0.00     0.000 C
ATOM     68  C4  NAG B   5      20.894  18.902   6.0950  0.00  0.00     0.000 C
ATOM     69  C5  NAG B   5      20.585  20.391   6.0670  0.00  0.00     0.000 C
ATOM     70  O5  NAG B   5      20.170  20.779   4.7490  0.00  0.00     0.000 O
ATOM     71   O  NAG B   5      21.176  18.463   7.4070  0.00  0.00     0.000 O
ATOM     73  HD  NAG B   5      21.992  18.531   7.1250  0.00  0.00     0.000 HD
ATOM     73   C  NAG B   5      21.761  21.289   6.4770  0.00  0.00     0.000 C
ATOM     74   O  NAG B   5      22.836  21.142   5.5260  0.00  0.00     0.000 O
ATOM     76  HD  NAG B   5      23.652  21.210   5.2440  0.00  0.00     0.000 HD
BRANCH 66 78
ATOM     76   N  NAG B   5      17.982  18.111   3.6650  0.00  0.00     0.000 N
ATOM     78  HD  NAG B   5      18.821  18.085   3.4500  0.00  0.00     0.000 HD
ATOM     78   C  NAG B   5      17.849  17.202   2.6860  0.00  0.00     0.000 C
ATOM     79   C  NAG B   5      16.417  16.860   2.3760  0.00  0.00     0.000 C
ATOM     80   O  NAG B   5      18.846  16.684   2.0670  0.00  0.00     0.000 OA
ENDBRANCH 66 78
BRANCH 65 81
ATOM     81  O4  BDP B   6      18.623  20.645   3.0160  0.00  0.00     0.000 O
BRANCH 81 85
ATOM     82  C1  BDP B   6      16.071  23.729   1.4850  0.00  0.00     0.000 C
ATOM     83  C2  BDP B   6      17.567  24.022   1.5560  0.00  0.00     0.000 C
ATOM     84  C3  BDP B   6      18.414  22.756   1.7170  0.00  0.00     0.000 C
ATOM     85  C4  BDP B   6      17.926  21.886   2.8770  0.00  0.00     0.000 C
ATOM     86  C5  BDP B   6      16.400  21.690   2.7150  0.00  0.00     0.000 C
ATOM     87  O5  BDP B   6      15.692  22.968   2.6230  0.00  0.00     0.000 O
ATOM     88   O  BDP B   6      17.889  24.656   0.3210  0.00  0.00     0.000 O
ATOM     90  HD  BDP B   6      18.504  24.656  -0.2890  0.00  0.00     0.000 HD
ATOM     90   O  BDP B   6      19.787  23.117   1.8900  0.00  0.00     0.000 O
ATOM     92  HD  BDP B   6      20.402  23.117   1.2800  0.00  0.00     0.000 HD
BRANCH 86 92
ATOM     92   C  BDP B   6      15.815  21.042   3.9470  0.00  0.00     0.000 C
ATOM     93   O  BDP B   6      15.596  19.793   3.9520  0.00  0.00     0.000 OA
ATOM     94   O  BDP B   6      15.585  21.789   4.9480  0.00  0.00     0.000 OA
ENDBRANCH 86 92
BRANCH 82 95
ATOM     95  O3  NAG B   7      15.361  24.982   1.5350  0.00  0.00     0.000 O
BRANCH 95 98
ATOM     96  C1  NAG B   7      12.663  26.760  -0.1670  0.00  0.00     0.000 C
ATOM     97  C2  NAG B   7      13.937  26.619   0.6540  0.00  0.00     0.000 C
ATOM     98  C3  NAG B   7      14.134  25.114   0.8190  0.00  0.00     0.000 C
ATOM     99  C4  NAG B   7      12.932  24.510   1.5430  0.00  0.00     0.000 C
ATOM    100  C5  NAG B   7      11.628  24.873   0.8330  0.00  0.00     0.000 C
ATOM    101  O5  NAG B   7      11.584  26.279   0.6420  0.00  0.00     0.000 O
BRANCH 97 104
ATOM    102   N  NAG B   7      15.198  27.065   0.0460  0.00  0.00     0.000 N
ATOM    104  HD  NAG B   7      16.010  27.079  -0.2540  0.00  0.00     0.000 HD
ATOM    104   O  NAG B   7      17.087  28.297  -0.1600  0.00  0.00     0.000 OA
ATOM    105   C  NAG B   7      16.009  28.072   0.4230  0.00  0.00     0.000 C
ATOM    106   C  NAG B   7      15.611  28.930   1.5750  0.00  0.00     0.000 C
ENDBRANCH 97 104
ATOM    107   O  NAG B   7       9.316  24.474   0.8020  0.00  0.00     0.000 O
ATOM    109  HD  NAG B   7      10.019  24.601   0.3130  0.00  0.00     0.000 HD
ATOM    109   O  NAG B   7       9.316  24.474   0.8020  0.00  0.00     0.000 O
ATOM    111  HD  NAG B   7      10.019  24.601   0.3130  0.00  0.00     0.000 HD
ENDBRANCH 95 98
ENDBRANCH 82 95
ENDBRANCH 81 85
ENDBRANCH 65 81
ENDBRANCH 64 67
ENDBRANCH 51 64
ENDBRANCH 50 54
ENDBRANCH 34 50
ENDBRANCH 33 36
ENDBRANCH 20 33
ENDBRANCH 19 23
ENDBRANCH 1 19
TORSDOF 19
ENDMDL
MODEL 44
REMARK VINA RESULT:      -5.7      3.908      8.802
ROOT
ATOM      1  C1  NAG B   1       9.149   5.649  24.8710  0.00  0.00     0.000 C
ATOM      2  C2  NAG B   1       8.463   6.699  25.7400  0.00  0.00     0.000 C
ATOM      3  C3  NAG B   1       7.454   6.079  26.6840  0.00  0.00     0.000 C
ATOM      4  C4  NAG B   1       6.470   5.327  25.7940  0.00  0.00     0.000 C
ATOM      5  C5  NAG B   1       7.213   4.206  25.0560  0.00  0.00     0.000 C
ATOM      6  O5  NAG B   1       8.254   4.741  24.2100  0.00  0.00     0.000 O
ATOM      7   O  NAG B   1       6.772   7.072  27.4840  0.00  0.00     0.000 O
ATOM      9  HD  NAG B   1       7.567   7.407  27.4070  0.00  0.00     0.000 HD
ATOM      9   O  NAG B   1       5.425   4.776  26.5780  0.00  0.00     0.000 O
ATOM     11  HD  NAG B   1       6.220   5.111  26.5020  0.00  0.00     0.000 HD
ATOM     11   C  NAG B   1       6.218   3.353  24.2610  0.00  0.00     0.000 C
ATOM     12   O  NAG B   1       6.833   2.776  23.1110  0.00  0.00     0.000 O
ATOM     14  HD  NAG B   1       7.628   3.111  23.0350  0.00  0.00     0.000 HD
ENDROOT
BRANCH 2 16
ATOM     14   N  NAG B   1       9.443   7.507  26.4880  0.00  0.00     0.000 N
ATOM     16  HD  NAG B   1      10.245   7.830  26.4470  0.00  0.00     0.000 HD
ATOM     16   C  NAG B   1       9.670   8.807  26.2350  0.00  0.00     0.000 C
ATOM     17   C  NAG B   1       8.925   9.498  25.1230  0.00  0.00     0.000 C
ATOM     18   O  NAG B   1      10.460   9.462  26.9150  0.00  0.00     0.000 OA
ENDBRANCH 2 16
BRANCH 1 19
ATOM     19  O4  BDP B   2       9.750   6.423  23.8410  0.00  0.00     0.000 O
BRANCH 19 23
ATOM     20  C1  BDP B   2       9.737   6.381  19.7260  0.00  0.00     0.000 C
ATOM     21  C2  BDP B   2       8.461   6.844  20.3980  0.00  0.00     0.000 C
ATOM     22  C3  BDP B   2       8.707   7.217  21.8420  0.00  0.00     0.000 C
ATOM     23  C4  BDP B   2       9.390   6.042  22.5360  0.00  0.00     0.000 C
ATOM     24  C5  BDP B   2      10.655   5.678  21.7830  0.00  0.00     0.000 C
ATOM     25  O5  BDP B   2      10.328   5.315  20.4550  0.00  0.00     0.000 O
ATOM     26   O  BDP B   2       7.917   7.948  19.7080  0.00  0.00     0.000 O
ATOM     28  HD  BDP B   2       8.517   7.688  19.1400  0.00  0.00     0.000 HD
ATOM     28   O  BDP B   2       7.458   7.558  22.4630  0.00  0.00     0.000 O
ATOM     30  HD  BDP B   2       8.058   7.299  21.8950  0.00  0.00     0.000 HD
BRANCH 24 30
ATOM     30   C  BDP B   2      11.365   4.528  22.4010  0.00  0.00     0.000 C
ATOM     31   O  BDP B   2      12.513   4.739  22.8570  0.00  0.00     0.000 OA
ATOM     32   O  BDP B   2      10.784   3.406  22.4280  0.00  0.00     0.000 OA
ENDBRANCH 24 30
BRANCH 20 33
ATOM     33  O3  NAG B   3       9.308   5.903  18.4740  0.00  0.00     0.000 O
BRANCH 33 36
ATOM     34  C1  NAG B   3      11.673   5.850  15.5490  0.00  0.00     0.000 C
ATOM     35  C2  NAG B   3      10.666   6.411  16.5350  0.00  0.00     0.000 C
ATOM     36  C3  NAG B   3      10.402   5.429  17.6860  0.00  0.00     0.000 C
ATOM     37  C4  NAG B   3      10.040   4.062  17.1100  0.00  0.00     0.000 C
ATOM     38  C5  NAG B   3      11.073   3.634  16.0710  0.00  0.00     0.000 C
ATOM     39  O5  NAG B   3      11.171   4.617  15.0540  0.00  0.00     0.000 O
ATOM     40   O  NAG B   3       9.988   3.085  18.1610  0.00  0.00     0.000 O
ATOM     42  HD  NAG B   3      10.546   2.676  17.6410  0.00  0.00     0.000 HD
ATOM     42   C  NAG B   3      10.721   2.337  15.3480  0.00  0.00     0.000 C
ATOM     43   O  NAG B   3       9.541   2.533  14.5600  0.00  0.00     0.000 O
ATOM     45  HD  NAG B   3      10.099   2.124  14.0390  0.00  0.00     0.000 HD
BRANCH 35 47
ATOM     45   N  NAG B   3       9.939   7.673  16.4740  0.00  0.00     0.000 N
ATOM     47  HD  NAG B   3       9.412   6.987  16.5240  0.00  0.00     0.000 HD
ATOM     47   C  NAG B   3      10.351   8.768  17.0800  0.00  0.00     0.000 C
ATOM     48   C  NAG B   3       9.473   9.976  16.9320  0.00  0.00     0.000 C
ATOM     49   O  NAG B   3      11.381   8.794  17.7500  0.00  0.00     0.000 OA
ENDBRANCH 35 47
BRANCH 34 50
ATOM     50  O4  BDP B   4      11.707   6.816  14.5200  0.00  0.00     0.000 O
BRANCH 50 54
ATOM     51  C1  BDP B   4      13.378   7.741  10.9270  0.00  0.00     0.000 C
ATOM     52  C2  BDP B   4      12.175   6.809  10.8430  0.00  0.00     0.000 C
ATOM     53  C3  BDP B   4      11.443   6.851  12.1500  0.00  0.00     0.000 C
ATOM     54  C4  BDP B   4      12.422   6.510  13.3100  0.00  0.00     0.000 C
ATOM     55  C5  BDP B   4      13.706   7.325  13.2450  0.00  0.00     0.000 C
ATOM     56  O5  BDP B   4      14.260   7.277  11.9330  0.00  0.00     0.000 O
ATOM     57   O  BDP B   4      11.308   7.221   9.8080  0.00  0.00     0.000 O
ATOM     59  HD  BDP B   4      11.460   6.665   9.1620  0.00  0.00     0.000 HD
ATOM     59   O  BDP B   4      10.435   5.821  12.1000  0.00  0.00     0.000 O
ATOM     61  HD  BDP B   4      10.588   5.265  11.4540  0.00  0.00     0.000 HD
BRANCH 55 61
ATOM     61   C  BDP B   4      14.710   6.759  14.2320  0.00  0.00     0.000 C
ATOM     62   O  BDP B   4      15.212   5.631  13.9830  0.00  0.00     0.000 OA
ATOM     63   O  BDP B   4      14.997   7.447  15.2590  0.00  0.00     0.000 OA
ENDBRANCH 55 61
BRANCH 51 64
ATOM     64  O3  NAG B   5      14.021   7.727   9.6380  0.00  0.00     0.000 O
BRANCH 64 67
ATOM     65  C1  NAG B   5      14.927  11.092   8.4350  0.00  0.00     0.000 C
ATOM     66  C2  NAG B   5      14.041   9.942   8.8830  0.00  0.00     0.000 C
ATOM     67  C3  NAG B   5      14.898   8.820   9.4550  0.00  0.00     0.000 C
ATOM     68  C4  NAG B   5      16.012   8.424   8.4760  0.00  0.00     0.000 C
ATOM     69  C5  NAG B   5      16.782   9.650   8.0130  0.00  0.00     0.000 C
ATOM     70  O5  NAG B   5      15.872  10.633   7.4960  0.00  0.00     0.000 O
ATOM     71   O  NAG B   5      16.863   7.495   9.1120  0.00  0.00     0.000 O
ATOM     73  HD  NAG B   5      16.823   7.110   8.3370  0.00  0.00     0.000 HD
ATOM     73   C  NAG B   5      17.835   9.365   6.9320  0.00  0.00     0.000 C
ATOM     74   O  NAG B   5      17.183   8.895   5.7340  0.00  0.00     0.000 O
ATOM     76  HD  NAG B   5      17.142   8.510   4.9590  0.00  0.00     0.000 HD
BRANCH 66 78
ATOM     76   N  NAG B   5      13.098  10.361   9.9390  0.00  0.00     0.000 N
ATOM     78  HD  NAG B   5      13.069  10.186   9.0910  0.00  0.00     0.000 HD
ATOM     78   C  NAG B   5      11.760  10.391   9.8350  0.00  0.00     0.000 C
ATOM     79   C  NAG B   5      11.072  10.847  11.0930  0.00  0.00     0.000 C
ATOM     80   O  NAG B   5      11.131  10.072   8.7640  0.00  0.00     0.000 OA
ENDBRANCH 66 78
BRANCH 65 81
ATOM     81  O4  BDP B   6      14.128  12.131   7.8530  0.00  0.00     0.000 O
BRANCH 81 85
ATOM     82  C1  BDP B   6      14.109  16.393   7.4060  0.00  0.00     0.000 C
ATOM     83  C2  BDP B   6      15.397  15.653   7.0560  0.00  0.00     0.000 C
ATOM     84  C3  BDP B   6      15.184  14.150   6.8550  0.00  0.00     0.000 C
ATOM     85  C4  BDP B   6      14.437  13.516   8.0300  0.00  0.00     0.000 C
ATOM     86  C5  BDP B   6      13.177  14.370   8.3090  0.00  0.00     0.000 C
ATOM     87  O5  BDP B   6      13.511  15.777   8.5370  0.00  0.00     0.000 O
ATOM     88   O  BDP B   6      15.852  16.237   5.8390  0.00  0.00     0.000 O
ATOM     90  HD  BDP B   6      16.196  16.010   5.0770  0.00  0.00     0.000 HD
ATOM     90   O  BDP B   6      16.445  13.511   6.6440  0.00  0.00     0.000 O
ATOM     92  HD  BDP B   6      16.788  13.283   5.8830  0.00  0.00     0.000 HD
BRANCH 86 92
ATOM     92   C  BDP B   6      12.522  13.942   9.6000  0.00  0.00     0.000 C
ATOM     93   O  BDP B   6      11.261  14.012   9.7140  0.00  0.00     0.000 OA
ATOM     94   O  BDP B   6      13.277  13.501  10.5220  0.00  0.00     0.000 OA
ENDBRANCH 86 92
BRANCH 82 95
ATOM     95  O3  NAG B   7      14.447  17.747   7.7670  0.00  0.00     0.000 O
BRANCH 95 98
ATOM     96  C1  NAG B   7      12.946  21.005   7.0800  0.00  0.00     0.000 C
ATOM     97  C2  NAG B   7      14.059  19.966   7.1290  0.00  0.00     0.000 C
ATOM     98  C3  NAG B   7      13.422  18.739   7.7790  0.00  0.00     0.000 C
ATOM     99  C4  NAG B   7      12.926  19.093   9.1790  0.00  0.00     0.000 C
ATOM    100  C5  NAG B   7      11.994  20.305   9.1380  0.00  0.00     0.000 C
ATOM    101  O5  NAG B   7      12.638  21.356   8.4330  0.00  0.00     0.000 O
BRANCH 97 104
ATOM    102   N  NAG B   7      14.574  19.440   5.8570  0.00  0.00     0.000 N
ATOM    104  HD  NAG B   7      14.819  18.901   5.2250  0.00  0.00     0.000 HD
ATOM    104   O  NAG B   7      16.111  19.035   4.2430  0.00  0.00     0.000 OA
ATOM    105   C  NAG B   7      15.795  19.596   5.3110  0.00  0.00     0.000 C
ATOM    106   C  NAG B   7      16.797  20.450   6.0100  0.00  0.00     0.000 C
ENDBRANCH 97 104
ATOM    107   O  NAG B   7      10.550  21.625  10.4320  0.00  0.00     0.000 O
ATOM    109  HD  NAG B   7      10.671  21.260   9.6560  0.00  0.00     0.000 HD
ATOM    109   O  NAG B   7      10.550  21.625  10.4320  0.00  0.00     0.000 O
ATOM    111  HD  NAG B   7      10.671  21.260   9.6560  0.00  0.00     0.000 HD
ENDBRANCH 95 98
ENDBRANCH 82 95
ENDBRANCH 81 85
ENDBRANCH 65 81
ENDBRANCH 64 67
ENDBRANCH 51 64
ENDBRANCH 50 54
ENDBRANCH 34 50
ENDBRANCH 33 36
ENDBRANCH 20 33
ENDBRANCH 19 23
ENDBRANCH 1 19
TORSDOF 19
ENDMDL
MODEL 45
REMARK VINA RESULT:      -5.7      7.847     20.367
ROOT
ATOM      1  C1  NAG B   1      13.918   7.829   9.9720  0.00  0.00     0.000 C
ATOM      2  C2  NAG B   1      13.561   9.139   9.2750  0.00  0.00     0.000 C
ATOM      3  C3  NAG B   1      14.173   9.228   7.8920  0.00  0.00     0.000 C
ATOM      4  C4  NAG B   1      15.676   9.070   8.1000  0.00  0.00     0.000 C
ATOM      5  C5  NAG B   1      15.960   7.679   8.6790  0.00  0.00     0.000 C
ATOM      6  O5  NAG B   1      15.317   7.507   9.9600  0.00  0.00     0.000 O
ATOM      7   O  NAG B   1      13.871  10.484   7.2420  0.00  0.00     0.000 O
ATOM      9  HD  NAG B   1      13.149  10.330   7.6950  0.00  0.00     0.000 HD
ATOM      9   O  NAG B   1      16.358   9.226   6.8670  0.00  0.00     0.000 O
ATOM     11  HD  NAG B   1      15.636   9.072   7.3200  0.00  0.00     0.000 HD
ATOM     11   C  NAG B   1      17.474   7.448   8.7670  0.00  0.00     0.000 C
ATOM     12   O  NAG B   1      17.800   6.553   9.8300  0.00  0.00     0.000 O
ATOM     14  HD  NAG B   1      17.078   6.400  10.2830  0.00  0.00     0.000 HD
ENDROOT
BRANCH 2 16
ATOM     14   N  NAG B   1      12.095   9.214   9.4110  0.00  0.00     0.000 N
ATOM     16  HD  NAG B   1      11.451   9.136   9.9850  0.00  0.00     0.000 HD
ATOM     16   C  NAG B   1      11.457  10.288   9.9060  0.00  0.00     0.000 C
ATOM     17   C  NAG B   1      12.246  11.479  10.3790  0.00  0.00     0.000 C
ATOM     18   O  NAG B   1      10.228  10.332   9.9570  0.00  0.00     0.000 OA
ENDBRANCH 2 16
BRANCH 1 19
ATOM     19  O4  BDP B   2      13.586   8.083  11.3300  0.00  0.00     0.000 O
BRANCH 19 23
ATOM     20  C1  BDP B   2      12.367   5.677  14.4390  0.00  0.00     0.000 C
ATOM     21  C2  BDP B   2      13.840   6.026  14.3950  0.00  0.00     0.000 C
ATOM     22  C3  BDP B   2      14.095   7.216  13.4990  0.00  0.00     0.000 C
ATOM     23  C4  BDP B   2      13.478   6.932  12.1320  0.00  0.00     0.000 C
ATOM     24  C5  BDP B   2      12.007   6.608  12.3000  0.00  0.00     0.000 C
ATOM     25  O5  BDP B   2      11.864   5.468  13.1260  0.00  0.00     0.000 O
ATOM     26   O  BDP B   2      14.317   6.299  15.6950  0.00  0.00     0.000 O
ATOM     28  HD  BDP B   2      13.542   5.958  15.8800  0.00  0.00     0.000 HD
ATOM     28   O  BDP B   2      15.510   7.451  13.4140  0.00  0.00     0.000 O
ATOM     30  HD  BDP B   2      14.735   7.110  13.5990  0.00  0.00     0.000 HD
BRANCH 24 30
ATOM     30   C  BDP B   2      11.346   6.309  11.0030  0.00  0.00     0.000 C
ATOM     31   O  BDP B   2      10.330   6.980  10.7080  0.00  0.00     0.000 OA
ATOM     32   O  BDP B   2      11.832   5.396  10.2760  0.00  0.00     0.000 OA
ENDBRANCH 24 30
BRANCH 20 33
ATOM     33  O3  NAG B   3      12.326   4.462  15.1480  0.00  0.00     0.000 O
BRANCH 33 36
ATOM     34  C1  NAG B   3       9.207   3.660  17.0920  0.00  0.00     0.000 C
ATOM     35  C2  NAG B   3      10.540   4.310  16.7760  0.00  0.00     0.000 C
ATOM     36  C3  NAG B   3      10.984   4.006  15.3370  0.00  0.00     0.000 C
ATOM     37  C4  NAG B   3      10.938   2.498  15.1020  0.00  0.00     0.000 C
ATOM     38  C5  NAG B   3       9.585   1.937  15.5330  0.00  0.00     0.000 C
ATOM     39  O5  NAG B   3       9.337   2.260  16.8910  0.00  0.00     0.000 O
ATOM     40   O  NAG B   3      11.154   2.210  13.7120  0.00  0.00     0.000 O
ATOM     42  HD  NAG B   3      10.407   1.783  13.8120  0.00  0.00     0.000 HD
ATOM     42   C  NAG B   3       9.495   0.415  15.4550  0.00  0.00     0.000 C
ATOM     43   O  NAG B   3      10.396  -0.167  16.4040  0.00  0.00     0.000 O
ATOM     45  HD  NAG B   3       9.650  -0.595  16.5040  0.00  0.00     0.000 HD
BRANCH 35 47
ATOM     45   N  NAG B   3      11.355   5.092  17.6980  0.00  0.00     0.000 N
ATOM     47  HD  NAG B   3      11.758   4.377  17.4200  0.00  0.00     0.000 HD
ATOM     47   C  NAG B   3      11.368   6.410  17.7030  0.00  0.00     0.000 C
ATOM     48   C  NAG B   3      12.279   7.058  18.7030  0.00  0.00     0.000 C
ATOM     49   O  NAG B   3      10.694   7.071  16.9160  0.00  0.00     0.000 OA
ENDBRANCH 35 47
BRANCH 34 50
ATOM     50  O4  BDP B   4       9.013   3.944  18.4620  0.00  0.00     0.000 O
BRANCH 50 54
ATOM     51  C1  BDP B   4       6.091   4.313  21.2680  0.00  0.00     0.000 C
ATOM     52  C2  BDP B   4       5.808   3.268  20.1950  0.00  0.00     0.000 C
ATOM     53  C3  BDP B   4       7.083   2.969  19.4690  0.00  0.00     0.000 C
ATOM     54  C4  BDP B   4       7.693   4.288  18.9140  0.00  0.00     0.000 C
ATOM     55  C5  BDP B   4       7.775   5.379  19.9730  0.00  0.00     0.000 C
ATOM     56  O5  BDP B   4       6.528   5.510  20.6510  0.00  0.00     0.000 O
ATOM     57   O  BDP B   4       5.317   2.082  20.7840  0.00  0.00     0.000 O
ATOM     59  HD  BDP B   4       4.464   2.099  20.6300  0.00  0.00     0.000 HD
ATOM     59   O  BDP B   4       6.741   2.130  18.3460  0.00  0.00     0.000 O
ATOM     61  HD  BDP B   4       5.889   2.147  18.1920  0.00  0.00     0.000 HD
BRANCH 55 61
ATOM     61   C  BDP B   4       8.121   6.699  19.3070  0.00  0.00     0.000 C
ATOM     62   O  BDP B   4       7.614   6.943  18.1810  0.00  0.00     0.000 OA
ATOM     63   O  BDP B   4       8.902   7.492  19.9160  0.00  0.00     0.000 OA
ENDBRANCH 55 61
BRANCH 51 64
ATOM     64  O3  NAG B   5       4.862   4.529  21.9880  0.00  0.00     0.000 O
BRANCH 64 67
ATOM     65  C1  NAG B   5       4.796   5.077  25.6340  0.00  0.00     0.000 C
ATOM     66  C2  NAG B   5       4.845   4.318  24.3190  0.00  0.00     0.000 C
ATOM     67  C3  NAG B   5       5.048   5.291  23.1650  0.00  0.00     0.000 C
ATOM     68  C4  NAG B   5       4.012   6.423  23.2100  0.00  0.00     0.000 C
ATOM     69  C5  NAG B   5       3.972   7.060  24.5900  0.00  0.00     0.000 C
ATOM     70  O5  NAG B   5       3.777   6.050  25.5900  0.00  0.00     0.000 O
ATOM     71   O  NAG B   5       4.337   7.372  22.2170  0.00  0.00     0.000 O
ATOM     73  HD  NAG B   5       3.480   7.358  22.0950  0.00  0.00     0.000 HD
ATOM     73   C  NAG B   5       2.875   8.119  24.7660  0.00  0.00     0.000 C
ATOM     74   O  NAG B   5       1.579   7.499  24.6350  0.00  0.00     0.000 O
ATOM     76  HD  NAG B   5       0.721   7.485  24.5130  0.00  0.00     0.000 HD
BRANCH 66 78
ATOM     76   N  NAG B   5       5.893   3.311  24.5760  0.00  0.00     0.000 N
ATOM     78  HD  NAG B   5       5.071   3.320  24.3020  0.00  0.00     0.000 HD
ATOM     78   C  NAG B   5       5.851   2.019  24.2170  0.00  0.00     0.000 C
ATOM     79   C  NAG B   5       7.084   1.248  24.6040  0.00  0.00     0.000 C
ATOM     80   O  NAG B   5       4.852   1.490  23.6100  0.00  0.00     0.000 OA
ENDBRANCH 66 78
BRANCH 65 81
ATOM     81  O4  BDP B   6       4.559   4.171  26.7190  0.00  0.00     0.000 O
BRANCH 81 85
ATOM     82  C1  BDP B   6       5.141   3.947  30.9580  0.00  0.00     0.000 C
ATOM     83  C2  BDP B   6       3.866   4.618  30.4560  0.00  0.00     0.000 C
ATOM     84  C3  BDP B   6       3.557   4.290  28.9920  0.00  0.00     0.000 C
ATOM     85  C4  BDP B   6       4.760   4.548  28.0830  0.00  0.00     0.000 C
ATOM     86  C5  BDP B   6       5.991   3.851  28.7120  0.00  0.00     0.000 C
ATOM     87  O5  BDP B   6       6.215   4.283  30.0920  0.00  0.00     0.000 O
ATOM     88   O  BDP B   6       2.821   4.119  31.2870  0.00  0.00     0.000 O
ATOM     90  HD  BDP B   6       2.004   3.834  31.2340  0.00  0.00     0.000 HD
ATOM     90   O  BDP B   6       2.419   5.040  28.5620  0.00  0.00     0.000 O
ATOM     92  HD  BDP B   6       1.603   4.756  28.5090  0.00  0.00     0.000 HD
BRANCH 86 92
ATOM     92   C  BDP B   6       7.255   4.262  27.9960  0.00  0.00     0.000 C
ATOM     93   O  BDP B   6       7.773   3.477  27.1450  0.00  0.00     0.000 OA
ATOM     94   O  BDP B   6       7.738   5.404  28.2680  0.00  0.00     0.000 OA
ENDBRANCH 86 92
BRANCH 82 95
ATOM     95  O3  NAG B   7       5.445   4.472  32.2650  0.00  0.00     0.000 O
BRANCH 95 98
ATOM     96  C1  NAG B   7       6.081   3.109  35.5930  0.00  0.00     0.000 C
ATOM     97  C2  NAG B   7       5.475   4.060  34.5700  0.00  0.00     0.000 C
ATOM     98  C3  NAG B   7       6.062   3.621  33.2300  0.00  0.00     0.000 C
ATOM     99  C4  NAG B   7       7.584   3.736  33.2670  0.00  0.00     0.000 C
ATOM    100  C5  NAG B   7       8.160   2.969  34.4580  0.00  0.00     0.000 C
ATOM    101  O5  NAG B   7       7.487   3.378  35.6390  0.00  0.00     0.000 O
BRANCH 97 104
ATOM    102   N  NAG B   7       4.024   3.992  34.3550  0.00  0.00     0.000 N
ATOM    104  HD  NAG B   7       3.247   3.909  33.9810  0.00  0.00     0.000 HD
ATOM    104   O  NAG B   7       1.891   4.752  34.2970  0.00  0.00     0.000 OA
ATOM    105   C  NAG B   7       3.090   4.934  34.5880  0.00  0.00     0.000 C
ATOM    106   C  NAG B   7       3.504   6.231  35.1940  0.00  0.00     0.000 C
ENDBRANCH 97 104
ATOM    107   O  NAG B   7      10.158   2.255  35.4600  0.00  0.00     0.000 O
ATOM    109  HD  NAG B   7       9.341   2.036  35.2740  0.00  0.00     0.000 HD
ATOM    109   O  NAG B   7      10.158   2.255  35.4600  0.00  0.00     0.000 O
ATOM    111  HD  NAG B   7       9.341   2.036  35.2740  0.00  0.00     0.000 HD
ENDBRANCH 95 98
ENDBRANCH 82 95
ENDBRANCH 81 85
ENDBRANCH 65 81
ENDBRANCH 64 67
ENDBRANCH 51 64
ENDBRANCH 50 54
ENDBRANCH 34 50
ENDBRANCH 33 36
ENDBRANCH 20 33
ENDBRANCH 19 23
ENDBRANCH 1 19
TORSDOF 19
ENDMDL
MODEL 46
REMARK VINA RESULT:      -5.7      8.330     14.067
ROOT
ATOM      1  C1  NAG B   1       4.997  15.563  20.9360  0.00  0.00     0.000 C
ATOM      2  C2  NAG B   1       4.069  16.710  20.5470  0.00  0.00     0.000 C
ATOM      3  C3  NAG B   1       2.959  16.907  21.5590  0.00  0.00     0.000 C
ATOM      4  C4  NAG B   1       2.231  15.569  21.6320  0.00  0.00     0.000 C
ATOM      5  C5  NAG B   1       3.196  14.499  22.1560  0.00  0.00     0.000 C
ATOM      6  O5  NAG B   1       4.326  14.338  21.2720  0.00  0.00     0.000 O
ATOM      7   O  NAG B   1       2.054  17.968  21.1770  0.00  0.00     0.000 O
ATOM      9  HD  NAG B   1       2.816  18.259  20.8870  0.00  0.00     0.000 HD
ATOM      9   O  NAG B   1       1.110  15.670  22.4940  0.00  0.00     0.000 O
ATOM     11  HD  NAG B   1       1.872  15.962  22.2040  0.00  0.00     0.000 HD
ATOM     11   C  NAG B   1       2.447  13.177  22.3660  0.00  0.00     0.000 C
ATOM     12   O  NAG B   1       3.317  12.058  22.2040  0.00  0.00     0.000 O
ATOM     14  HD  NAG B   1       4.079  12.349  21.9140  0.00  0.00     0.000 HD
ENDROOT
BRANCH 2 16
ATOM     14   N  NAG B   1       5.093  17.707  20.1880  0.00  0.00     0.000 N
ATOM     16  HD  NAG B   1       5.749  17.856  19.6420  0.00  0.00     0.000 HD
ATOM     16   C  NAG B   1       4.969  18.545  19.1440  0.00  0.00     0.000 C
ATOM     17   C  NAG B   1       3.751  18.472  18.2620  0.00  0.00     0.000 C
ATOM     18   O  NAG B   1       5.824  19.398  18.9060  0.00  0.00     0.000 OA
ENDBRANCH 2 16
BRANCH 1 19
ATOM     19  O4  BDP B   2       5.710  15.302  19.7350  0.00  0.00     0.000 O
BRANCH 19 23
ATOM     20  C1  BDP B   2       9.066  13.147  18.7180  0.00  0.00     0.000 C
ATOM     21  C2  BDP B   2       7.801  12.349  18.9560  0.00  0.00     0.000 C
ATOM     22  C3  BDP B   2       6.577  13.235  18.9030  0.00  0.00     0.000 C
ATOM     23  C4  BDP B   2       6.778  14.395  19.8740  0.00  0.00     0.000 C
ATOM     24  C5  BDP B   2       8.063  15.122  19.5310  0.00  0.00     0.000 C
ATOM     25  O5  BDP B   2       9.155  14.229  19.6340  0.00  0.00     0.000 O
ATOM     26   O  BDP B   2       7.685  11.319  17.9980  0.00  0.00     0.000 O
ATOM     28  HD  BDP B   2       8.501  11.572  17.8590  0.00  0.00     0.000 HD
ATOM     28   O  BDP B   2       5.415  12.456  19.2260  0.00  0.00     0.000 O
ATOM     30  HD  BDP B   2       6.231  12.708  19.0870  0.00  0.00     0.000 HD
BRANCH 24 30
ATOM     30   C  BDP B   2       8.326  16.262  20.4490  0.00  0.00     0.000 C
ATOM     31   O  BDP B   2       8.601  15.988  21.6410  0.00  0.00     0.000 OA
ATOM     32   O  BDP B   2       8.251  17.436  19.9870  0.00  0.00     0.000 OA
ENDBRANCH 24 30
BRANCH 20 33
ATOM     33  O3  NAG B   3      10.101  12.231  18.9820  0.00  0.00     0.000 O
BRANCH 33 36
ATOM     34  C1  NAG B   3      13.395  12.337  17.1680  0.00  0.00     0.000 C
ATOM     35  C2  NAG B   3      11.954  11.955  17.4480  0.00  0.00     0.000 C
ATOM     36  C3  NAG B   3      11.380  12.760  18.6240  0.00  0.00     0.000 C
ATOM     37  C4  NAG B   3      12.317  12.641  19.8230  0.00  0.00     0.000 C
ATOM     38  C5  NAG B   3      13.750  12.965  19.4090  0.00  0.00     0.000 C
ATOM     39  O5  NAG B   3      14.151  12.113  18.3490  0.00  0.00     0.000 O
ATOM     40   O  NAG B   3      11.905  13.544  20.8600  0.00  0.00     0.000 O
ATOM     42  HD  NAG B   3      12.727  13.805  20.7910  0.00  0.00     0.000 HD
ATOM     42   C  NAG B   3      14.778  12.745  20.5160  0.00  0.00     0.000 C
ATOM     43   O  NAG B   3      14.847  11.349  20.8350  0.00  0.00     0.000 O
ATOM     45  HD  NAG B   3      15.670  11.610  20.7650  0.00  0.00     0.000 HD
BRANCH 35 47
ATOM     45   N  NAG B   3      11.187  10.930  16.7510  0.00  0.00     0.000 N
ATOM     47  HD  NAG B   3      11.285  10.757  17.5940  0.00  0.00     0.000 HD
ATOM     47   C  NAG B   3      10.320  11.207  15.7970  0.00  0.00     0.000 C
ATOM     48   C  NAG B   3       9.600  10.036  15.1980  0.00  0.00     0.000 C
ATOM     49   O  NAG B   3      10.095  12.361  15.4370  0.00  0.00     0.000 OA
ENDBRANCH 35 47
BRANCH 34 50
ATOM     50  O4  BDP B   4      13.788  11.437  16.1530  0.00  0.00     0.000 O
BRANCH 50 54
ATOM     51  C1  BDP B   4      16.725  10.536  13.4860  0.00  0.00     0.000 C
ATOM     52  C2  BDP B   4      17.029  10.128  14.9230  0.00  0.00     0.000 C
ATOM     53  C3  BDP B   4      15.757  10.165  15.7120  0.00  0.00     0.000 C
ATOM     54  C4  BDP B   4      15.101  11.571  15.5850  0.00  0.00     0.000 C
ATOM     55  C5  BDP B   4      14.996  12.032  14.1370  0.00  0.00     0.000 C
ATOM     56  O5  BDP B   4      16.245  11.868  13.4700  0.00  0.00     0.000 O
ATOM     57   O  BDP B   4      17.563   8.821  14.9580  0.00  0.00     0.000 O
ATOM     59  HD  BDP B   4      18.413   8.936  15.0810  0.00  0.00     0.000 HD
ATOM     59   O  BDP B   4      16.114   9.965  17.0950  0.00  0.00     0.000 O
ATOM     61  HD  BDP B   4      16.964  10.079  17.2180  0.00  0.00     0.000 HD
BRANCH 55 61
ATOM     61   C  BDP B   4      14.602  13.498  14.1060  0.00  0.00     0.000 C
ATOM     62   O  BDP B   4      15.411  14.337  14.5830  0.00  0.00     0.000 OA
ATOM     63   O  BDP B   4      13.481  13.808  13.6010  0.00  0.00     0.000 OA
ENDBRANCH 55 61
BRANCH 51 64
ATOM     64  O3  NAG B   5      17.954  10.427  12.7410  0.00  0.00     0.000 O
BRANCH 64 67
ATOM     65  C1  NAG B   5      18.220   9.171   9.2850  0.00  0.00     0.000 C
ATOM     66  C2  NAG B   5      18.181   9.135  10.8030  0.00  0.00     0.000 C
ATOM     67  C3  NAG B   5      17.750  10.493  11.3440  0.00  0.00     0.000 C
ATOM     68  C4  NAG B   5      18.611  11.618  10.7540  0.00  0.00     0.000 C
ATOM     69  C5  NAG B   5      18.665  11.517   9.2380  0.00  0.00     0.000 C
ATOM     70  O5  NAG B   5      19.081  10.199   8.8510  0.00  0.00     0.000 O
ATOM     71   O  NAG B   5      18.077  12.858  11.1650  0.00  0.00     0.000 O
ATOM     73  HD  NAG B   5      18.915  13.046  11.2770  0.00  0.00     0.000 HD
ATOM     73   C  NAG B   5      19.607  12.527   8.5690  0.00  0.00     0.000 C
ATOM     74   O  NAG B   5      20.966  12.266   8.9800  0.00  0.00     0.000 O
ATOM     76  HD  NAG B   5      21.804  12.454   9.0920  0.00  0.00     0.000 HD
BRANCH 66 78
ATOM     76   N  NAG B   5      17.319   7.964  11.0590  0.00  0.00     0.000 N
ATOM     78  HD  NAG B   5      18.101   8.246  11.3050  0.00  0.00     0.000 HD
ATOM     78   C  NAG B   5      17.514   7.034  12.0070  0.00  0.00     0.000 C
ATOM     79   C  NAG B   5      16.449   5.971  12.0310  0.00  0.00     0.000 C
ATOM     80   O  NAG B   5      18.515   7.045  12.8090  0.00  0.00     0.000 OA
ENDBRANCH 66 78
BRANCH 65 81
ATOM     81  O4  BDP B   6      18.669   7.910   8.7730  0.00  0.00     0.000 O
BRANCH 81 85
ATOM     82  C1  BDP B   6      18.270   5.538   5.2260  0.00  0.00     0.000 C
ATOM     83  C2  BDP B   6      19.442   6.513   5.2950  0.00  0.00     0.000 C
ATOM     84  C3  BDP B   6      19.732   6.995   6.7190  0.00  0.00     0.000 C
ATOM     85  C4  BDP B   6      18.476   7.531   7.4080  0.00  0.00     0.000 C
ATOM     86  C5  BDP B   6      17.355   6.477   7.2410  0.00  0.00     0.000 C
ATOM     87  O5  BDP B   6      17.134   6.134   5.8360  0.00  0.00     0.000 O
ATOM     88   O  BDP B   6      20.566   5.791   4.7990  0.00  0.00     0.000 O
ATOM     90  HD  BDP B   6      21.407   5.667   4.9660  0.00  0.00     0.000 HD
ATOM     90   O  BDP B   6      20.762   7.986   6.6890  0.00  0.00     0.000 O
ATOM     92  HD  BDP B   6      21.603   7.863   6.8560  0.00  0.00     0.000 HD
BRANCH 86 92
ATOM     92   C  BDP B   6      16.028   7.040   7.6880  0.00  0.00     0.000 C
ATOM     93   O  BDP B   6      15.460   6.560   8.7150  0.00  0.00     0.000 OA
ATOM     94   O  BDP B   6      15.542   8.001   7.0150  0.00  0.00     0.000 OA
ENDBRANCH 86 92
BRANCH 82 95
ATOM     95  O3  NAG B   7      17.956   5.304   3.8400  0.00  0.00     0.000 O
BRANCH 95 98
ATOM     96  C1  NAG B   7      18.153   2.477   1.5340  0.00  0.00     0.000 C
ATOM     97  C2  NAG B   7      18.327   3.921   1.9860  0.00  0.00     0.000 C
ATOM     98  C3  NAG B   7      17.736   3.966   3.3940  0.00  0.00     0.000 C
ATOM     99  C4  NAG B   7      16.263   3.567   3.3510  0.00  0.00     0.000 C
ATOM    100  C5  NAG B   7      16.084   2.212   2.6650  0.00  0.00     0.000 C
ATOM    101  O5  NAG B   7      16.746   2.241   1.4100  0.00  0.00     0.000 O
BRANCH 97 104
ATOM    102   N  NAG B   7      19.714   4.384   2.1240  0.00  0.00     0.000 N
ATOM    104  HD  NAG B   7      20.459   4.674   2.4580  0.00  0.00     0.000 HD
ATOM    104   O  NAG B   7      21.493   5.750   1.8070  0.00  0.00     0.000 OA
ATOM    105   C  NAG B   7      20.313   5.443   1.5470  0.00  0.00     0.000 C
ATOM    106   C  NAG B   7      19.540   6.276   0.5830  0.00  0.00     0.000 C
ENDBRANCH 97 104
ATOM    107   O  NAG B   7      14.518   0.539   2.1620  0.00  0.00     0.000 O
ATOM    109  HD  NAG B   7      15.335   0.695   2.4040  0.00  0.00     0.000 HD
ATOM    109   O  NAG B   7      14.518   0.539   2.1620  0.00  0.00     0.000 O
ATOM    111  HD  NAG B   7      15.335   0.695   2.4040  0.00  0.00     0.000 HD
ENDBRANCH 95 98
ENDBRANCH 82 95
ENDBRANCH 81 85
ENDBRANCH 65 81
ENDBRANCH 64 67
ENDBRANCH 51 64
ENDBRANCH 50 54
ENDBRANCH 34 50
ENDBRANCH 33 36
ENDBRANCH 20 33
ENDBRANCH 19 23
ENDBRANCH 1 19
TORSDOF 19
ENDMDL
MODEL 47
REMARK VINA RESULT:      -5.7      4.626      8.867
ROOT
ATOM      1  C1  NAG B   1       7.285  13.451  19.8540  0.00  0.00     0.000 C
ATOM      2  C2  NAG B   1       6.519  14.549  20.5880  0.00  0.00     0.000 C
ATOM      3  C3  NAG B   1       6.736  15.908  19.9530  0.00  0.00     0.000 C
ATOM      4  C4  NAG B   1       8.244  16.135  19.9790  0.00  0.00     0.000 C
ATOM      5  C5  NAG B   1       8.928  15.069  19.1130  0.00  0.00     0.000 C
ATOM      6  O5  NAG B   1       8.672  13.742  19.6210  0.00  0.00     0.000 O
ATOM      7   O  NAG B   1       6.045  16.959  20.6660  0.00  0.00     0.000 O
ATOM      9  HD  NAG B   1       5.503  16.289  20.7510  0.00  0.00     0.000 HD
ATOM      9   O  NAG B   1       8.552  17.427  19.4830  0.00  0.00     0.000 O
ATOM     11  HD  NAG B   1       8.010  16.756  19.5680  0.00  0.00     0.000 HD
ATOM     11   C  NAG B   1      10.430  15.360  19.0140  0.00  0.00     0.000 C
ATOM     12   O  NAG B   1      11.178  14.159  18.8260  0.00  0.00     0.000 O
ATOM     14  HD  NAG B   1      10.637  13.489  18.9100  0.00  0.00     0.000 HD
ENDROOT
BRANCH 2 16
ATOM     14   N  NAG B   1       5.068  14.310  20.6850  0.00  0.00     0.000 N
ATOM     16  HD  NAG B   1       4.473  13.682  20.7000  0.00  0.00     0.000 HD
ATOM     16   C  NAG B   1       4.459  13.941  21.8250  0.00  0.00     0.000 C
ATOM     17   C  NAG B   1       5.271  13.725  23.0750  0.00  0.00     0.000 C
ATOM     18   O  NAG B   1       3.238  13.799  21.8790  0.00  0.00     0.000 OA
ENDBRANCH 2 16
BRANCH 1 19
ATOM     19  O4  BDP B   2       7.261  12.370  20.7760  0.00  0.00     0.000 O
BRANCH 19 23
ATOM     20  C1  BDP B   2       7.771   9.434  17.9360  0.00  0.00     0.000 C
ATOM     21  C2  BDP B   2       6.342   9.829  18.2470  0.00  0.00     0.000 C
ATOM     22  C3  BDP B   2       6.285  11.161  18.9590  0.00  0.00     0.000 C
ATOM     23  C4  BDP B   2       7.196  11.095  20.1810  0.00  0.00     0.000 C
ATOM     24  C5  BDP B   2       8.595  10.704  19.7470  0.00  0.00     0.000 C
ATOM     25  O5  BDP B   2       8.559   9.437  19.1190  0.00  0.00     0.000 O
ATOM     26   O  BDP B   2       5.582   9.891  17.0590  0.00  0.00     0.000 O
ATOM     28  HD  BDP B   2       6.299   9.501  16.7680  0.00  0.00     0.000 HD
ATOM     28   O  BDP B   2       4.923  11.449  19.3150  0.00  0.00     0.000 O
ATOM     30  HD  BDP B   2       5.640  11.059  19.0240  0.00  0.00     0.000 HD
BRANCH 24 30
ATOM     30   C  BDP B   2       9.534  10.610  20.8950  0.00  0.00     0.000 C
ATOM     31   O  BDP B   2       9.269   9.772  21.7870  0.00  0.00     0.000 OA
ATOM     32   O  BDP B   2      10.537  11.379  20.9160  0.00  0.00     0.000 OA
ENDBRANCH 24 30
BRANCH 20 33
ATOM     33  O3  NAG B   3       7.663   8.116  17.4570  0.00  0.00     0.000 O
BRANCH 33 36
ATOM     34  C1  NAG B   3      10.658   6.887  15.5400  0.00  0.00     0.000 C
ATOM     35  C2  NAG B   3       9.405   7.692  15.8290  0.00  0.00     0.000 C
ATOM     36  C3  NAG B   3       8.946   7.509  17.2840  0.00  0.00     0.000 C
ATOM     37  C4  NAG B   3       8.833   6.018  17.5950  0.00  0.00     0.000 C
ATOM     38  C5  NAG B   3      10.114   5.294  17.1870  0.00  0.00     0.000 C
ATOM     39  O5  NAG B   3      10.380   5.521  15.8130  0.00  0.00     0.000 O
ATOM     40   O  NAG B   3       8.602   5.825  18.9990  0.00  0.00     0.000 O
ATOM     42  HD  NAG B   3       9.298   5.315  18.9170  0.00  0.00     0.000 HD
ATOM     42   C  NAG B   3      10.041   3.777  17.3410  0.00  0.00     0.000 C
ATOM     43   O  NAG B   3       9.073   3.248  16.4270  0.00  0.00     0.000 O
ATOM     45  HD  NAG B   3       9.768   2.739  16.3460  0.00  0.00     0.000 HD
BRANCH 35 47
ATOM     45   N  NAG B   3       9.650   9.088  15.4910  0.00  0.00     0.000 N
ATOM     47  HD  NAG B   3      10.367   8.604  15.4500  0.00  0.00     0.000 HD
ATOM     47   C  NAG B   3       8.797   9.819  14.8010  0.00  0.00     0.000 C
ATOM     48   C  NAG B   3       9.213  11.233  14.5220  0.00  0.00     0.000 C
ATOM     49   O  NAG B   3       7.734   9.362  14.3870  0.00  0.00     0.000 OA
ENDBRANCH 35 47
BRANCH 34 50
ATOM     50  O4  BDP B   4      10.867   7.079  14.1570  0.00  0.00     0.000 O
BRANCH 50 54
ATOM     51  C1  BDP B   4      13.854   8.697  11.9190  0.00  0.00     0.000 C
ATOM     52  C2  BDP B   4      13.433   7.296  11.4910  0.00  0.00     0.000 C
ATOM     53  C3  BDP B   4      12.114   6.978  12.1260  0.00  0.00     0.000 C
ATOM     54  C4  BDP B   4      12.216   7.159  13.6680  0.00  0.00     0.000 C
ATOM     55  C5  BDP B   4      12.830   8.498  14.0550  0.00  0.00     0.000 C
ATOM     56  O5  BDP B   4      14.032   8.724  13.3230  0.00  0.00     0.000 O
ATOM     57   O  BDP B   4      13.304   7.230  10.0870  0.00  0.00     0.000 O
ATOM     59  HD  BDP B   4      14.018   6.819   9.8210  0.00  0.00     0.000 HD
ATOM     59   O  BDP B   4      11.845   5.586  11.8590  0.00  0.00     0.000 O
ATOM     61  HD  BDP B   4      12.559   5.175  11.5940  0.00  0.00     0.000 HD
BRANCH 55 61
ATOM     61   C  BDP B   4      13.143   8.495  15.5400  0.00  0.00     0.000 C
ATOM     62   O  BDP B   4      13.904   7.596  15.9820  0.00  0.00     0.000 OA
ATOM     63   O  BDP B   4      12.625   9.399  16.2650  0.00  0.00     0.000 OA
ENDBRANCH 55 61
BRANCH 51 64
ATOM     64  O3  NAG B   5      15.090   8.997  11.2420  0.00  0.00     0.000 O
BRANCH 64 67
ATOM     65  C1  NAG B   5      15.555  12.506  10.2110  0.00  0.00     0.000 C
ATOM     66  C2  NAG B   5      14.975  11.103  10.2260  0.00  0.00     0.000 C
ATOM     67  C3  NAG B   5      15.504  10.336  11.4310  0.00  0.00     0.000 C
ATOM     68  C4  NAG B   5      17.037  10.393  11.4910  0.00  0.00     0.000 C
ATOM     69  C5  NAG B   5      17.526  11.828  11.3760  0.00  0.00     0.000 C
ATOM     70  O5  NAG B   5      16.963  12.444  10.2090  0.00  0.00     0.000 O
ATOM     71   O  NAG B   5      17.464   9.802  12.7000  0.00  0.00     0.000 O
ATOM     73  HD  NAG B   5      18.062   9.456  12.1790  0.00  0.00     0.000 HD
ATOM     73   C  NAG B   5      19.052  11.972  11.2990  0.00  0.00     0.000 C
ATOM     74   O  NAG B   5      19.536  11.345  10.0930  0.00  0.00     0.000 O
ATOM     76  HD  NAG B   5      20.135  10.999   9.5720  0.00  0.00     0.000 HD
BRANCH 66 78
ATOM     76   N  NAG B   5      13.972  10.718   9.2140  0.00  0.00     0.000 N
ATOM     78  HD  NAG B   5      13.992  10.865  10.0670  0.00  0.00     0.000 HD
ATOM     78   C  NAG B   5      12.642  10.683   9.3950  0.00  0.00     0.000 C
ATOM     79   C  NAG B   5      11.881  10.268   8.1650  0.00  0.00     0.000 C
ATOM     80   O  NAG B   5      12.076  10.966  10.5100  0.00  0.00     0.000 OA
ENDBRANCH 66 78
BRANCH 65 81
ATOM     81  O4  BDP B   6      15.097  13.217   9.0530  0.00  0.00     0.000 O
BRANCH 81 85
ATOM     82  C1  BDP B   6      13.670  17.102   7.9440  0.00  0.00     0.000 C
ATOM     83  C2  BDP B   6      15.178  16.921   8.0940  0.00  0.00     0.000 C
ATOM     84  C3  BDP B   6      15.604  15.450   8.0830  0.00  0.00     0.000 C
ATOM     85  C4  BDP B   6      14.804  14.616   9.0860  0.00  0.00     0.000 C
ATOM     86  C5  BDP B   6      13.302  14.910   8.8600  0.00  0.00     0.000 C
ATOM     87  O5  BDP B   6      13.008  16.341   8.9450  0.00  0.00     0.000 O
ATOM     88   O  BDP B   6      15.754  17.592   6.9770  0.00  0.00     0.000 O
ATOM     90  HD  BDP B   6      16.382  17.492   6.3890  0.00  0.00     0.000 HD
ATOM     90   O  BDP B   6      17.007  15.356   8.3410  0.00  0.00     0.000 O
ATOM     92  HD  BDP B   6      17.635  15.255   7.7540  0.00  0.00     0.000 HD
BRANCH 86 92
ATOM     92   C  BDP B   6      12.471  14.306   9.9650  0.00  0.00     0.000 C
ATOM     93   O  BDP B   6      12.922  14.295  11.1500  0.00  0.00     0.000 OA
ATOM     94   O  BDP B   6      11.328  13.847   9.6560  0.00  0.00     0.000 OA
ENDBRANCH 86 92
BRANCH 82 95
ATOM     95  O3  NAG B   7      13.356  18.491   8.1650  0.00  0.00     0.000 O
BRANCH 95 98
ATOM     96  C1  NAG B   7      10.876  21.071   7.4320  0.00  0.00     0.000 C
ATOM     97  C2  NAG B   7      12.072  20.450   8.1410  0.00  0.00     0.000 C
ATOM     98  C3  NAG B   7      12.197  19.049   7.5460  0.00  0.00     0.000 C
ATOM     99  C4  NAG B   7      10.919  18.257   7.8100  0.00  0.00     0.000 C
ATOM    100  C5  NAG B   7       9.691  19.019   7.3070  0.00  0.00     0.000 C
ATOM    101  O5  NAG B   7       9.717  20.334   7.8380  0.00  0.00     0.000 O
BRANCH 97 104
ATOM    102   N  NAG B   7      13.410  21.012   7.9080  0.00  0.00     0.000 N
ATOM    104  HD  NAG B   7      14.253  21.090   7.7260  0.00  0.00     0.000 HD
ATOM    104   O  NAG B   7      15.341  22.073   8.4340  0.00  0.00     0.000 OA
ATOM    105   C  NAG B   7      14.193  21.707   8.7550  0.00  0.00     0.000 C
ATOM    106   C  NAG B   7      13.678  22.034  10.1150  0.00  0.00     0.000 C
ENDBRANCH 97 104
ATOM    107   O  NAG B   7       7.377  18.858   6.9600  0.00  0.00     0.000 O
ATOM    109  HD  NAG B   7       8.122  19.158   6.6370  0.00  0.00     0.000 HD
ATOM    109   O  NAG B   7       7.377  18.858   6.9600  0.00  0.00     0.000 O
ATOM    111  HD  NAG B   7       8.122  19.158   6.6370  0.00  0.00     0.000 HD
ENDBRANCH 95 98
ENDBRANCH 82 95
ENDBRANCH 81 85
ENDBRANCH 65 81
ENDBRANCH 64 67
ENDBRANCH 51 64
ENDBRANCH 50 54
ENDBRANCH 34 50
ENDBRANCH 33 36
ENDBRANCH 20 33
ENDBRANCH 19 23
ENDBRANCH 1 19
TORSDOF 19
ENDMDL
MODEL 48
REMARK VINA RESULT:      -5.7      8.574     13.953
ROOT
ATOM      1  C1  NAG B   1      19.311   6.332   5.2610  0.00  0.00     0.000 C
ATOM      2  C2  NAG B   1      18.803   6.070   3.8460  0.00  0.00     0.000 C
ATOM      3  C3  NAG B   1      19.767   6.581   2.7960  0.00  0.00     0.000 C
ATOM      4  C4  NAG B   1      19.936   8.069   3.0870  0.00  0.00     0.000 C
ATOM      5  C5  NAG B   1      20.573   8.242   4.4710  0.00  0.00     0.000 C
ATOM      6  O5  NAG B   1      19.734   7.683   5.5040  0.00  0.00     0.000 O
ATOM      7   O  NAG B   1      19.274   6.372   1.4530  0.00  0.00     0.000 O
ATOM      9  HD  NAG B   1      18.979   5.673   1.8720  0.00  0.00     0.000 HD
ATOM      9   O  NAG B   1      20.759   8.669   2.1010  0.00  0.00     0.000 O
ATOM     11  HD  NAG B   1      20.464   7.971   2.5200  0.00  0.00     0.000 HD
ATOM     11   C  NAG B   1      20.877   9.723   4.7270  0.00  0.00     0.000 C
ATOM     12   O  NAG B   1      20.833  10.028   6.1200  0.00  0.00     0.000 O
ATOM     14  HD  NAG B   1      20.537   9.330   6.5380  0.00  0.00     0.000 HD
ENDROOT
BRANCH 2 16
ATOM     14   N  NAG B   1      17.466   5.470   3.6820  0.00  0.00     0.000 N
ATOM     16  HD  NAG B   1      16.907   5.185   3.0850  0.00  0.00     0.000 HD
ATOM     16   C  NAG B   1      17.271   4.158   3.4670  0.00  0.00     0.000 C
ATOM     17   C  NAG B   1      18.452   3.231   3.3560  0.00  0.00     0.000 C
ATOM     18   O  NAG B   1      16.137   3.686   3.3840  0.00  0.00     0.000 OA
ENDBRANCH 2 16
BRANCH 1 19
ATOM     19  O4  BDP B   2      18.154   6.133   6.0620  0.00  0.00     0.000 O
BRANCH 19 23
ATOM     20  C1  BDP B   2      16.153   8.279   8.9490  0.00  0.00     0.000 C
ATOM     21  C2  BDP B   2      16.167   8.874   7.5570  0.00  0.00     0.000 C
ATOM     22  C3  BDP B   2      16.543   7.839   6.5220  0.00  0.00     0.000 C
ATOM     23  C4  BDP B   2      17.861   7.194   6.9400  0.00  0.00     0.000 C
ATOM     24  C5  BDP B   2      17.723   6.626   8.3390  0.00  0.00     0.000 C
ATOM     25  O5  BDP B   2      17.400   7.665   9.2430  0.00  0.00     0.000 O
ATOM     26   O  BDP B   2      14.904   9.421   7.2460  0.00  0.00     0.000 O
ATOM     28  HD  BDP B   2      14.809   9.280   8.0950  0.00  0.00     0.000 HD
ATOM     28   O  BDP B   2      16.635   8.468   5.2340  0.00  0.00     0.000 O
ATOM     30  HD  BDP B   2      16.541   8.327   6.0830  0.00  0.00     0.000 HD
BRANCH 24 30
ATOM     30   C  BDP B   2      18.980   5.990   8.8140  0.00  0.00     0.000 C
ATOM     31   O  BDP B   2      18.975   4.746   8.9630  0.00  0.00     0.000 OA
ATOM     32   O  BDP B   2      19.977   6.731   9.0490  0.00  0.00     0.000 OA
ENDBRANCH 24 30
BRANCH 20 33
ATOM     33  O3  NAG B   3      15.975   9.390   9.7930  0.00  0.00     0.000 O
BRANCH 33 36
ATOM     34  C1  NAG B   3      13.827   9.093  12.8670  0.00  0.00     0.000 C
ATOM     35  C2  NAG B   3      14.169   9.297  11.4030  0.00  0.00     0.000 C
ATOM     36  C3  NAG B   3      15.650   8.994  11.1280  0.00  0.00     0.000 C
ATOM     37  C4  NAG B   3      16.517   9.786  12.1030  0.00  0.00     0.000 C
ATOM     38  C5  NAG B   3      16.032   9.575  13.5350  0.00  0.00     0.000 C
ATOM     39  O5  NAG B   3      14.666   9.938  13.6410  0.00  0.00     0.000 O
ATOM     40   O  NAG B   3      17.886   9.366  11.9960  0.00  0.00     0.000 O
ATOM     42  HD  NAG B   3      17.789   9.251  12.8490  0.00  0.00     0.000 HD
ATOM     42   C  NAG B   3      16.761  10.432  14.5670  0.00  0.00     0.000 C
ATOM     43   O  NAG B   3      16.467  11.815  14.3330  0.00  0.00     0.000 O
ATOM     45  HD  NAG B   3      16.370  11.701  15.1860  0.00  0.00     0.000 HD
BRANCH 35 47
ATOM     45   N  NAG B   3      13.260   9.763  10.3640  0.00  0.00     0.000 N
ATOM     47  HD  NAG B   3      13.930  10.298  10.4850  0.00  0.00     0.000 HD
ATOM     47   C  NAG B   3      12.663   8.951   9.5150  0.00  0.00     0.000 C
ATOM     48   C  NAG B   3      11.774   9.597   8.4940  0.00  0.00     0.000 C
ATOM     49   O  NAG B   3      12.845   7.735   9.5400  0.00  0.00     0.000 OA
ENDBRANCH 35 47
BRANCH 34 50
ATOM     50  O4  BDP B   4      12.483   9.517  12.9570  0.00  0.00     0.000 O
BRANCH 50 54
ATOM     51  C1  BDP B   4       9.436   9.072  15.6160  0.00  0.00     0.000 C
ATOM     52  C2  BDP B   4      10.794   8.606  16.1280  0.00  0.00     0.000 C
ATOM     53  C3  BDP B   4      11.859   9.158  15.2310  0.00  0.00     0.000 C
ATOM     54  C4  BDP B   4      11.570   8.748  13.7590  0.00  0.00     0.000 C
ATOM     55  C5  BDP B   4      10.136   9.049  13.3450  0.00  0.00     0.000 C
ATOM     56  O5  BDP B   4       9.222   8.550  14.3170  0.00  0.00     0.000 O
ATOM     57   O  BDP B   4      11.006   9.069  17.4450  0.00  0.00     0.000 O
ATOM     59  HD  BDP B   4      10.866   8.375  17.9450  0.00  0.00     0.000 HD
ATOM     59   O  BDP B   4      13.102   8.543  15.6280  0.00  0.00     0.000 O
ATOM     61  HD  BDP B   4      12.963   7.850  16.1280  0.00  0.00     0.000 HD
BRANCH 55 61
ATOM     61   C  BDP B   4       9.851   8.389  12.0080  0.00  0.00     0.000 C
ATOM     62   O  BDP B   4      10.278   7.218  11.8240  0.00  0.00     0.000 OA
ATOM     63   O  BDP B   4       9.197   9.044  11.1410  0.00  0.00     0.000 OA
ENDBRANCH 55 61
BRANCH 51 64
ATOM     64  O3  NAG B   5       8.441   8.579  16.5350  0.00  0.00     0.000 O
BRANCH 64 67
ATOM     65  C1  NAG B   5       5.862  10.597  18.2290  0.00  0.00     0.000 C
ATOM     66  C2  NAG B   5       7.191   9.895  18.0130  0.00  0.00     0.000 C
ATOM     67  C3  NAG B   5       7.288   9.396  16.5770  0.00  0.00     0.000 C
ATOM     68  C4  NAG B   5       6.056   8.561  16.2000  0.00  0.00     0.000 C
ATOM     69  C5  NAG B   5       4.776   9.309  16.5370  0.00  0.00     0.000 C
ATOM     70  O5  NAG B   5       4.801   9.726  17.9100  0.00  0.00     0.000 O
ATOM     71   O  NAG B   5       6.123   8.255  14.8240  0.00  0.00     0.000 O
ATOM     73  HD  NAG B   5       5.857   7.480  15.1070  0.00  0.00     0.000 HD
ATOM     73   C  NAG B   5       3.492   8.498  16.3110  0.00  0.00     0.000 C
ATOM     74   O  NAG B   5       3.473   7.363  17.2030  0.00  0.00     0.000 O
ATOM     76  HD  NAG B   5       3.208   6.589  17.4860  0.00  0.00     0.000 HD
BRANCH 66 78
ATOM     76   N  NAG B   5       8.224  10.885  18.3740  0.00  0.00     0.000 N
ATOM     78  HD  NAG B   5       7.966  10.105  18.6480  0.00  0.00     0.000 HD
ATOM     78   C  NAG B   5       9.253  10.683  19.2110  0.00  0.00     0.000 C
ATOM     79   C  NAG B   5      10.149  11.883  19.3620  0.00  0.00     0.000 C
ATOM     80   O  NAG B   5       9.450   9.577  19.8300  0.00  0.00     0.000 OA
ENDBRANCH 66 78
BRANCH 65 81
ATOM     81  O4  BDP B   6       5.746  11.028  19.5910  0.00  0.00     0.000 O
BRANCH 81 85
ATOM     82  C1  BDP B   6       3.851  14.065  21.9450  0.00  0.00     0.000 C
ATOM     83  C2  BDP B   6       2.953  13.030  21.2740  0.00  0.00     0.000 C
ATOM     84  C3  BDP B   6       3.718  11.786  20.8160  0.00  0.00     0.000 C
ATOM     85  C4  BDP B   6       4.941  12.147  19.9700  0.00  0.00     0.000 C
ATOM     86  C5  BDP B   6       5.749  13.222  20.7350  0.00  0.00     0.000 C
ATOM     87  O5  BDP B   6       4.926  14.384  21.0730  0.00  0.00     0.000 O
ATOM     88   O  BDP B   6       1.993  12.662  22.2610  0.00  0.00     0.000 O
ATOM     90  HD  BDP B   6       1.592  11.961  22.5730  0.00  0.00     0.000 HD
ATOM     90   O  BDP B   6       2.837  10.918  20.0980  0.00  0.00     0.000 O
ATOM     92  HD  BDP B   6       2.436  10.217  20.4100  0.00  0.00     0.000 HD
BRANCH 86 92
ATOM     92   C  BDP B   6       6.835  13.794  19.8560  0.00  0.00     0.000 C
ATOM     93   O  BDP B   6       6.672  13.820  18.5990  0.00  0.00     0.000 OA
ATOM     94   O  BDP B   6       7.872  14.253  20.4290  0.00  0.00     0.000 OA
ENDBRANCH 86 92
BRANCH 82 95
ATOM     95  O3  NAG B   7       3.081  15.265  22.1570  0.00  0.00     0.000 O
BRANCH 95 98
ATOM     96  C1  NAG B   7       3.062  17.697  24.8820  0.00  0.00     0.000 C
ATOM     97  C2  NAG B   7       2.475  16.647  23.9470  0.00  0.00     0.000 C
ATOM     98  C3  NAG B   7       3.612  16.294  22.9910  0.00  0.00     0.000 C
ATOM     99  C4  NAG B   7       4.052  17.540  22.2250  0.00  0.00     0.000 C
ATOM    100  C5  NAG B   7       4.404  18.676  23.1870  0.00  0.00     0.000 C
ATOM    101  O5  NAG B   7       3.327  18.862  24.0920  0.00  0.00     0.000 O
BRANCH 97 104
ATOM    102   N  NAG B   7       1.550  15.521  24.1290  0.00  0.00     0.000 N
ATOM    104  HD  NAG B   7       0.836  15.054  24.2800  0.00  0.00     0.000 HD
ATOM    104   O  NAG B   7       0.714  13.649  25.0940  0.00  0.00     0.000 OA
ATOM    105   C  NAG B   7       1.613  14.510  25.0170  0.00  0.00     0.000 C
ATOM    106   C  NAG B   7       2.781  14.428  25.9400  0.00  0.00     0.000 C
ENDBRANCH 97 104
ATOM    107   O  NAG B   7       5.305  20.838  23.3110  0.00  0.00     0.000 O
ATOM    109  HD  NAG B   7       5.270  20.063  23.6950  0.00  0.00     0.000 HD
ATOM    109   O  NAG B   7       5.305  20.838  23.3110  0.00  0.00     0.000 O
ATOM    111  HD  NAG B   7       5.270  20.063  23.6950  0.00  0.00     0.000 HD
ENDBRANCH 95 98
ENDBRANCH 82 95
ENDBRANCH 81 85
ENDBRANCH 65 81
ENDBRANCH 64 67
ENDBRANCH 51 64
ENDBRANCH 50 54
ENDBRANCH 34 50
ENDBRANCH 33 36
ENDBRANCH 20 33
ENDBRANCH 19 23
ENDBRANCH 1 19
TORSDOF 19
ENDMDL
MODEL 49
REMARK VINA RESULT:      -5.7      2.450      3.246
ROOT
ATOM      1  C1  NAG B   1      12.474   4.288  16.0080  0.00  0.00     0.000 C
ATOM      2  C2  NAG B   1      11.961   3.144  16.8780  0.00  0.00     0.000 C
ATOM      3  C3  NAG B   1      11.540   3.624  18.2520  0.00  0.00     0.000 C
ATOM      4  C4  NAG B   1      12.774   4.296  18.8450  0.00  0.00     0.000 C
ATOM      5  C5  NAG B   1      13.145   5.513  17.9870  0.00  0.00     0.000 C
ATOM      6  O5  NAG B   1      13.464   5.119  16.6350  0.00  0.00     0.000 O
ATOM      7   O  NAG B   1      11.089   2.539  19.0940  0.00  0.00     0.000 O
ATOM      9  HD  NAG B   1      10.818   2.291  18.3100  0.00  0.00     0.000 HD
ATOM      9   O  NAG B   1      12.512   4.709  20.1760  0.00  0.00     0.000 O
ATOM     11  HD  NAG B   1      12.241   4.461  19.3910  0.00  0.00     0.000 HD
ATOM     11   C  NAG B   1      14.298   6.283  18.6410  0.00  0.00     0.000 C
ATOM     12   O  NAG B   1      15.089   6.959  17.6650  0.00  0.00     0.000 O
ATOM     14  HD  NAG B   1      14.818   6.711  16.8810  0.00  0.00     0.000 HD
ENDROOT
BRANCH 2 16
ATOM     14   N  NAG B   1      12.041   1.808  16.2600  0.00  0.00     0.000 N
ATOM     16  HD  NAG B   1      11.907   0.967  16.4170  0.00  0.00     0.000 HD
ATOM     16   C  NAG B   1      10.971   1.159  15.7700  0.00  0.00     0.000 C
ATOM     17   C  NAG B   1       9.605   1.785  15.8630  0.00  0.00     0.000 C
ATOM     18   O  NAG B   1      11.086   0.066  15.2170  0.00  0.00     0.000 OA
ENDBRANCH 2 16
BRANCH 1 19
ATOM     19  O4  BDP B   2      13.141   3.616  14.9490  0.00  0.00     0.000 O
BRANCH 19 23
ATOM     20  C1  BDP B   2      12.999   6.773  12.3120  0.00  0.00     0.000 C
ATOM     21  C2  BDP B   2      11.807   5.839  12.3080  0.00  0.00     0.000 C
ATOM     22  C3  BDP B   2      11.767   4.996  13.5630  0.00  0.00     0.000 C
ATOM     23  C4  BDP B   2      13.113   4.293  13.7160  0.00  0.00     0.000 C
ATOM     24  C5  BDP B   2      14.223   5.326  13.7180  0.00  0.00     0.000 C
ATOM     25  O5  BDP B   2      14.204   6.045  12.5000  0.00  0.00     0.000 O
ATOM     26   O  BDP B   2      10.608   6.575  12.1920  0.00  0.00     0.000 O
ATOM     28  HD  BDP B   2      11.190   7.191  12.0110  0.00  0.00     0.000 HD
ATOM     28   O  BDP B   2      10.679   4.063  13.4720  0.00  0.00     0.000 O
ATOM     30  HD  BDP B   2      11.260   4.680  13.2920  0.00  0.00     0.000 HD
BRANCH 24 30
ATOM     30   C  BDP B   2      15.568   4.705  13.8520  0.00  0.00     0.000 C
ATOM     31   O  BDP B   2      15.959   3.974  12.9140  0.00  0.00     0.000 OA
ATOM     32   O  BDP B   2      16.235   4.938  14.9000  0.00  0.00     0.000 OA
ENDBRANCH 24 30
BRANCH 20 33
ATOM     33  O3  NAG B   3      12.994   7.336  11.0230  0.00  0.00     0.000 O
BRANCH 33 36
ATOM     34  C1  NAG B   3      14.236  10.832  10.3990  0.00  0.00     0.000 C
ATOM     35  C2  NAG B   3      13.257   9.727  10.7490  0.00  0.00     0.000 C
ATOM     36  C3  NAG B   3      13.969   8.374  10.8960  0.00  0.00     0.000 C
ATOM     37  C4  NAG B   3      14.813   8.110   9.6510  0.00  0.00     0.000 C
ATOM     38  C5  NAG B   3      15.696   9.316   9.3440  0.00  0.00     0.000 C
ATOM     39  O5  NAG B   3      14.895  10.476   9.1920  0.00  0.00     0.000 O
ATOM     40   O  NAG B   3      15.639   6.953   9.8540  0.00  0.00     0.000 O
ATOM     42  HD  NAG B   3      16.262   7.511   9.6310  0.00  0.00     0.000 HD
ATOM     42   C  NAG B   3      16.480   9.192   8.0400  0.00  0.00     0.000 C
ATOM     43   O  NAG B   3      15.569   9.175   6.9340  0.00  0.00     0.000 O
ATOM     45  HD  NAG B   3      16.192   9.733   6.7100  0.00  0.00     0.000 HD
BRANCH 35 47
ATOM     45   N  NAG B   3      12.523  10.106  11.9500  0.00  0.00     0.000 N
ATOM     47  HD  NAG B   3      13.172  10.650  11.7700  0.00  0.00     0.000 HD
ATOM     47   C  NAG B   3      11.215   9.981  12.0600  0.00  0.00     0.000 C
ATOM     48   C  NAG B   3      10.615  10.438  13.3570  0.00  0.00     0.000 C
ATOM     49   O  NAG B   3      10.523   9.541  11.1450  0.00  0.00     0.000 OA
ENDBRANCH 35 47
BRANCH 34 50
ATOM     50  O4  BDP B   4      13.409  11.959  10.1950  0.00  0.00     0.000 O
BRANCH 50 54
ATOM     51  C1  BDP B   4      13.238  16.018  10.4040  0.00  0.00     0.000 C
ATOM     52  C2  BDP B   4      13.984  15.479   9.1890  0.00  0.00     0.000 C
ATOM     53  C3  BDP B   4      13.657  14.026   9.0310  0.00  0.00     0.000 C
ATOM     54  C4  BDP B   4      13.979  13.269  10.3520  0.00  0.00     0.000 C
ATOM     55  C5  BDP B   4      13.379  13.953  11.5730  0.00  0.00     0.000 C
ATOM     56  O5  BDP B   4      13.687  15.344  11.5660  0.00  0.00     0.000 O
ATOM     57   O  BDP B   4      13.593  16.175   8.0250  0.00  0.00     0.000 O
ATOM     59  HD  BDP B   4      14.248  16.719   7.8660  0.00  0.00     0.000 HD
ATOM     59   O  BDP B   4      14.525  13.510   8.0010  0.00  0.00     0.000 O
ATOM     61  HD  BDP B   4      15.179  14.054   7.8410  0.00  0.00     0.000 HD
BRANCH 55 61
ATOM     61   C  BDP B   4      13.949  13.323  12.8310  0.00  0.00     0.000 C
ATOM     62   O  BDP B   4      15.158  13.540  13.1050  0.00  0.00     0.000 OA
ATOM     63   O  BDP B   4      13.181  12.609  13.5460  0.00  0.00     0.000 OA
ENDBRANCH 55 61
BRANCH 51 64
ATOM     64  O3  NAG B   5      13.522  17.428  10.4890  0.00  0.00     0.000 O
BRANCH 64 67
ATOM     65  C1  NAG B   5      11.067  20.148  10.9030  0.00  0.00     0.000 C
ATOM     66  C2  NAG B   5      11.989  19.172  10.1920  0.00  0.00     0.000 C
ATOM     67  C3  NAG B   5      12.519  18.144  11.1830  0.00  0.00     0.000 C
ATOM     68  C4  NAG B   5      13.138  18.829  12.4100  0.00  0.00     0.000 C
ATOM     69  C5  NAG B   5      12.177  19.851  12.9960  0.00  0.00     0.000 C
ATOM     70  O5  NAG B   5      11.748  20.762  11.9730  0.00  0.00     0.000 O
ATOM     71   O  NAG B   5      13.472  17.839  13.3590  0.00  0.00     0.000 O
ATOM     73  HD  NAG B   5      14.185  18.324  13.4350  0.00  0.00     0.000 HD
ATOM     73   C  NAG B   5      12.760  20.677  14.1510  0.00  0.00     0.000 C
ATOM     74   O  NAG B   5      13.860  21.476  13.6680  0.00  0.00     0.000 O
ATOM     76  HD  NAG B   5      14.574  21.961  13.7440  0.00  0.00     0.000 HD
BRANCH 66 78
ATOM     76   N  NAG B   5      11.229  18.511   9.1150  0.00  0.00     0.000 N
ATOM     78  HD  NAG B   5      11.879  19.079   9.1790  0.00  0.00     0.000 HD
ATOM     78   C  NAG B   5      11.547  18.510   7.8100  0.00  0.00     0.000 C
ATOM     79   C  NAG B   5      10.583  17.729   6.9590  0.00  0.00     0.000 C
ATOM     80   O  NAG B   5      12.568  19.124   7.3350  0.00  0.00     0.000 OA
ENDBRANCH 66 78
BRANCH 65 81
ATOM     81  O4  BDP B   6      10.602  21.145   9.9840  0.00  0.00     0.000 O
BRANCH 81 85
ATOM     82  C1  BDP B   6       6.993  23.288   9.1230  0.00  0.00     0.000 C
ATOM     83  C2  BDP B   6       7.996  23.946  10.0660  0.00  0.00     0.000 C
ATOM     84  C3  BDP B   6       9.389  23.317   9.9860  0.00  0.00     0.000 C
ATOM     85  C4  BDP B   6       9.339  21.795  10.1430  0.00  0.00     0.000 C
ATOM     86  C5  BDP B   6       8.269  21.252   9.1670  0.00  0.00     0.000 C
ATOM     87  O5  BDP B   6       6.968  21.890   9.3720  0.00  0.00     0.000 O
ATOM     88   O  BDP B   6       8.065  25.310   9.6560  0.00  0.00     0.000 O
ATOM     90  HD  BDP B   6       8.645  25.940   9.5290  0.00  0.00     0.000 HD
ATOM     90   O  BDP B   6      10.239  23.906  10.9740  0.00  0.00     0.000 O
ATOM     92  HD  BDP B   6      10.819  24.536  10.8470  0.00  0.00     0.000 HD
BRANCH 86 92
ATOM     92   C  BDP B   6       7.999  19.791   9.4360  0.00  0.00     0.000 C
ATOM     93   O  BDP B   6       8.097  18.953   8.4890  0.00  0.00     0.000 OA
ATOM     94   O  BDP B   6       7.703  19.459  10.6260  0.00  0.00     0.000 OA
ENDBRANCH 86 92
BRANCH 82 95
ATOM     95  O3  NAG B   7       5.683  23.813   9.4150  0.00  0.00     0.000 O
BRANCH 95 98
ATOM     96  C1  NAG B   7       2.353  23.663   7.9220  0.00  0.00     0.000 C
ATOM     97  C2  NAG B   7       3.549  24.322   8.5970  0.00  0.00     0.000 C
ATOM     98  C3  NAG B   7       4.538  23.185   8.8410  0.00  0.00     0.000 C
ATOM     99  C4  NAG B   7       3.901  22.128   9.7410  0.00  0.00     0.000 C
ATOM    100  C5  NAG B   7       2.566  21.653   9.1650  0.00  0.00     0.000 C
ATOM    101  O5  NAG B   7       1.758  22.785   8.8850  0.00  0.00     0.000 O
BRANCH 97 104
ATOM    102   N  NAG B   7       4.390  25.278   7.8630  0.00  0.00     0.000 N
ATOM    104  HD  NAG B   7       5.076  25.702   7.5480  0.00  0.00     0.000 HD
ATOM    104   O  NAG B   7       5.235  27.304   7.3040  0.00  0.00     0.000 OA
ATOM    105   C  NAG B   7       4.417  26.621   7.9530  0.00  0.00     0.000 C
ATOM    106   C  NAG B   7       3.455  27.307   8.8620  0.00  0.00     0.000 C
ENDBRANCH 97 104
ATOM    107   O  NAG B   7       0.841  20.086   9.4340  0.00  0.00     0.000 O
ATOM    109  HD  NAG B   7       1.332  20.507   8.8580  0.00  0.00     0.000 HD
ATOM    109   O  NAG B   7       0.841  20.086   9.4340  0.00  0.00     0.000 O
ATOM    111  HD  NAG B   7       1.332  20.507   8.8580  0.00  0.00     0.000 HD
ENDBRANCH 95 98
ENDBRANCH 82 95
ENDBRANCH 81 85
ENDBRANCH 65 81
ENDBRANCH 64 67
ENDBRANCH 51 64
ENDBRANCH 50 54
ENDBRANCH 34 50
ENDBRANCH 33 36
ENDBRANCH 20 33
ENDBRANCH 19 23
ENDBRANCH 1 19
TORSDOF 19
ENDMDL
MODEL 50
REMARK VINA RESULT:      -5.7      7.571     14.272
ROOT
ATOM      1  C1  NAG B   1      15.033  12.110   7.2960  0.00  0.00     0.000 C
ATOM      2  C2  NAG B   1      15.809  13.422   7.3650  0.00  0.00     0.000 C
ATOM      3  C3  NAG B   1      17.092  13.361   6.5620  0.00  0.00     0.000 C
ATOM      4  C4  NAG B   1      17.879  12.188   7.1380  0.00  0.00     0.000 C
ATOM      5  C5  NAG B   1      17.090  10.893   6.9100  0.00  0.00     0.000 C
ATOM      6  O5  NAG B   1      15.812  10.937   7.5800  0.00  0.00     0.000 O
ATOM      7   O  NAG B   1      17.853  14.587   6.6540  0.00  0.00     0.000 O
ATOM      9  HD  NAG B   1      17.035  14.873   6.6740  0.00  0.00     0.000 HD
ATOM      9   O  NAG B   1      19.147  12.095   6.5090  0.00  0.00     0.000 O
ATOM     11  HD  NAG B   1      18.329  12.381   6.5290  0.00  0.00     0.000 HD
ATOM     11   C  NAG B   1      17.924   9.686   7.3580  0.00  0.00     0.000 C
ATOM     12   O  NAG B   1      17.091   8.611   7.7880  0.00  0.00     0.000 O
ATOM     14  HD  NAG B   1      16.273   8.896   7.8080  0.00  0.00     0.000 HD
ENDROOT
BRANCH 2 16
ATOM     14   N  NAG B   1      14.906  14.513   6.9580  0.00  0.00     0.000 N
ATOM     16  HD  NAG B   1      14.088  14.789   7.0200  0.00  0.00     0.000 HD
ATOM     16   C  NAG B   1      14.561  15.524   7.7740  0.00  0.00     0.000 C
ATOM     17   C  NAG B   1      15.082  15.562   9.1860  0.00  0.00     0.000 C
ATOM     18   O  NAG B   1      13.843  16.444   7.3820  0.00  0.00     0.000 OA
ENDBRANCH 2 16
BRANCH 1 19
ATOM     19  O4  BDP B   2      14.102  12.229   8.3640  0.00  0.00     0.000 O
BRANCH 19 23
ATOM     20  C1  BDP B   2      13.336  10.188  11.8560  0.00  0.00     0.000 C
ATOM     21  C2  BDP B   2      14.714  10.802  11.7230  0.00  0.00     0.000 C
ATOM     22  C3  BDP B   2      14.745  11.851  10.6350  0.00  0.00     0.000 C
ATOM     23  C4  BDP B   2      14.210  11.229   9.3490  0.00  0.00     0.000 C
ATOM     24  C5  BDP B   2      12.827  10.661   9.6000  0.00  0.00     0.000 C
ATOM     25  O5  BDP B   2      12.898   9.670  10.6080  0.00  0.00     0.000 O
ATOM     26   O  BDP B   2      15.115  11.376  12.9490  0.00  0.00     0.000 O
ATOM     28  HD  BDP B   2      14.418  10.928  13.2040  0.00  0.00     0.000 HD
ATOM     28   O  BDP B   2      16.088  12.336  10.4830  0.00  0.00     0.000 O
ATOM     30  HD  BDP B   2      15.392  11.889  10.7380  0.00  0.00     0.000 HD
BRANCH 24 30
ATOM     30   C  BDP B   2      12.251  10.027   8.3850  0.00  0.00     0.000 C
ATOM     31   O  BDP B   2      11.076  10.334   8.0790  0.00  0.00     0.000 OA
ATOM     32   O  BDP B   2      12.966   9.212   7.7350  0.00  0.00     0.000 OA
ENDBRANCH 24 30
BRANCH 20 33
ATOM     33  O3  NAG B   3      13.522   9.125  12.7580  0.00  0.00     0.000 O
BRANCH 33 36
ATOM     34  C1  NAG B   3      10.556   7.605  14.5020  0.00  0.00     0.000 C
ATOM     35  C2  NAG B   3      11.684   8.585  14.2380  0.00  0.00     0.000 C
ATOM     36  C3  NAG B   3      12.347   8.320  12.8770  0.00  0.00     0.000 C
ATOM     37  C4  NAG B   3      12.743   6.849  12.7860  0.00  0.00     0.000 C
ATOM     38  C5  NAG B   3      11.560   5.958  13.1530  0.00  0.00     0.000 C
ATOM     39  O5  NAG B   3      11.088   6.290  14.4480  0.00  0.00     0.000 O
ATOM     40   O  NAG B   3      13.178   6.540  11.4520  0.00  0.00     0.000 O
ATOM     42  HD  NAG B   3      12.573   5.925  11.5300  0.00  0.00     0.000 HD
ATOM     42   C  NAG B   3      11.902   4.471  13.2150  0.00  0.00     0.000 C
ATOM     43   O  NAG B   3      12.822   4.236  14.2880  0.00  0.00     0.000 O
ATOM     45  HD  NAG B   3      12.216   3.621  14.3650  0.00  0.00     0.000 HD
BRANCH 35 47
ATOM     45   N  NAG B   3      12.087   9.616  15.1860  0.00  0.00     0.000 N
ATOM     47  HD  NAG B   3      12.692   9.006  15.0790  0.00  0.00     0.000 HD
ATOM     47   C  NAG B   3      11.796  10.891  15.0250  0.00  0.00     0.000 C
ATOM     48   C  NAG B   3      12.305  11.824  16.0830  0.00  0.00     0.000 C
ATOM     49   O  NAG B   3      11.167  11.298  14.0500  0.00  0.00     0.000 OA
ENDBRANCH 35 47
BRANCH 34 50
ATOM     50  O4  BDP B   4      10.145   7.916  15.8170  0.00  0.00     0.000 O
BRANCH 50 54
ATOM     51  C1  BDP B   4       6.823   8.505  18.0910  0.00  0.00     0.000 C
ATOM     52  C2  BDP B   4       7.427   7.110  18.2040  0.00  0.00     0.000 C
ATOM     53  C3  BDP B   4       8.813   7.140  17.6370  0.00  0.00     0.000 C
ATOM     54  C4  BDP B   4       8.773   7.690  16.1820  0.00  0.00     0.000 C
ATOM     55  C5  BDP B   4       7.986   8.989  16.0750  0.00  0.00     0.000 C
ATOM     56  O5  BDP B   4       6.724   8.862  16.7240  0.00  0.00     0.000 O
ATOM     57   O  BDP B   4       7.484   6.709  19.5560  0.00  0.00     0.000 O
ATOM     59  HD  BDP B   4       6.826   6.152  19.6470  0.00  0.00     0.000 HD
ATOM     59   O  BDP B   4       9.275   5.775  17.5830  0.00  0.00     0.000 O
ATOM     61  HD  BDP B   4       8.617   5.218  17.6740  0.00  0.00     0.000 HD
BRANCH 55 61
ATOM     61   C  BDP B   4       7.763   9.321  14.6110  0.00  0.00     0.000 C
ATOM     62   O  BDP B   4       8.432  10.263  14.1100  0.00  0.00     0.000 OA
ATOM     63   O  BDP B   4       6.918   8.633  13.9610  0.00  0.00     0.000 OA
ENDBRANCH 55 61
BRANCH 51 64
ATOM     64  O3  NAG B   5       5.519   8.456  18.7020  0.00  0.00     0.000 O
BRANCH 64 67
ATOM     65  C1  NAG B   5       4.239  11.628  20.0790  0.00  0.00     0.000 C
ATOM     66  C2  NAG B   5       5.109  10.389  19.9570  0.00  0.00     0.000 C
ATOM     67  C3  NAG B   5       4.838   9.693  18.6290  0.00  0.00     0.000 C
ATOM     68  C4  NAG B   5       3.336   9.439  18.4370  0.00  0.00     0.000 C
ATOM     69  C5  NAG B   5       2.541  10.715  18.6690  0.00  0.00     0.000 C
ATOM     70  O5  NAG B   5       2.881  11.276  19.9460  0.00  0.00     0.000 O
ATOM     71   O  NAG B   5       3.127   8.936  17.1350  0.00  0.00     0.000 O
ATOM     73  HD  NAG B   5       2.585   8.409  17.5560  0.00  0.00     0.000 HD
ATOM     73   C  NAG B   5       1.018  10.527  18.6230  0.00  0.00     0.000 C
ATOM     74   O  NAG B   5       0.605   9.662  19.7010  0.00  0.00     0.000 O
ATOM     76  HD  NAG B   5       0.063   9.134  20.1230  0.00  0.00     0.000 HD
BRANCH 66 78
ATOM     76   N  NAG B   5       6.437  10.960  20.2550  0.00  0.00     0.000 N
ATOM     78  HD  NAG B   5       5.967  10.276  20.5040  0.00  0.00     0.000 HD
ATOM     78   C  NAG B   5       7.419  10.356  20.9440  0.00  0.00     0.000 C
ATOM     79   C  NAG B   5       8.665  11.190  21.0660  0.00  0.00     0.000 C
ATOM     80   O  NAG B   5       7.302   9.186  21.4560  0.00  0.00     0.000 OA
ENDBRANCH 66 78
BRANCH 65 81
ATOM     81  O4  BDP B   6       4.456  12.260  21.3470  0.00  0.00     0.000 O
BRANCH 81 85
ATOM     82  C1  BDP B   6       4.223  16.169  23.0870  0.00  0.00     0.000 C
ATOM     83  C2  BDP B   6       2.978  15.290  23.1590  0.00  0.00     0.000 C
ATOM     84  C3  BDP B   6       3.277  13.812  22.8920  0.00  0.00     0.000 C
ATOM     85  C4  BDP B   6       4.069  13.613  21.5980  0.00  0.00     0.000 C
ATOM     86  C5  BDP B   6       5.279  14.577  21.6280  0.00  0.00     0.000 C
ATOM     87  O5  BDP B   6       4.865  15.966  21.8360  0.00  0.00     0.000 O
ATOM     88   O  BDP B   6       2.480  15.444  24.4850  0.00  0.00     0.000 O
ATOM     90  HD  BDP B   6       2.145  14.974  25.1310  0.00  0.00     0.000 HD
ATOM     90   O  BDP B   6       2.054  13.073  22.8630  0.00  0.00     0.000 O
ATOM     92  HD  BDP B   6       1.718  12.603  23.5080  0.00  0.00     0.000 HD
BRANCH 86 92
ATOM     92   C  BDP B   6       5.967  14.605  20.2850  0.00  0.00     0.000 C
ATOM     93   O  BDP B   6       7.021  13.922  20.1090  0.00  0.00     0.000 OA
ATOM     94   O  BDP B   6       5.437  15.307  19.3690  0.00  0.00     0.000 OA
ENDBRANCH 86 92
BRANCH 82 95
ATOM     95  O3  NAG B   7       3.810  17.548  23.1530  0.00  0.00     0.000 O
BRANCH 95 98
ATOM     96  C1  NAG B   7       4.387  20.555  25.1440  0.00  0.00     0.000 C
ATOM     97  C2  NAG B   7       3.602  19.609  24.2440  0.00  0.00     0.000 C
ATOM     98  C3  NAG B   7       4.566  18.464  23.9430  0.00  0.00     0.000 C
ATOM     99  C4  NAG B   7       5.808  19.003  23.2380  0.00  0.00     0.000 C
ATOM    100  C5  NAG B   7       6.448  20.133  24.0470  0.00  0.00     0.000 C
ATOM    101  O5  NAG B   7       5.453  21.097  24.3570  0.00  0.00     0.000 O
BRANCH 97 104
ATOM    102   N  NAG B   7       2.440  18.823  24.6810  0.00  0.00     0.000 N
ATOM    104  HD  NAG B   7       1.845  18.197  24.7510  0.00  0.00     0.000 HD
ATOM    104   O  NAG B   7       0.249  18.363  25.0230  0.00  0.00     0.000 OA
ATOM    105   C  NAG B   7       1.138  19.165  24.6740  0.00  0.00     0.000 C
ATOM    106   C  NAG B   7       0.750  20.532  24.2250  0.00  0.00     0.000 C
ENDBRANCH 97 104
ATOM    107   O  NAG B   7       8.315  21.548  24.1710  0.00  0.00     0.000 O
ATOM    109  HD  NAG B   7       7.755  21.073  24.6290  0.00  0.00     0.000 HD
ATOM    109   O  NAG B   7       8.315  21.548  24.1710  0.00  0.00     0.000 O
ATOM    111  HD  NAG B   7       7.755  21.073  24.6290  0.00  0.00     0.000 HD
ENDBRANCH 95 98
ENDBRANCH 82 95
ENDBRANCH 81 85
ENDBRANCH 65 81
ENDBRANCH 64 67
ENDBRANCH 51 64
ENDBRANCH 50 54
ENDBRANCH 34 50
ENDBRANCH 33 36
ENDBRANCH 20 33
ENDBRANCH 19 23
ENDBRANCH 1 19
TORSDOF 19
ENDMDL
MODEL 51
REMARK VINA RESULT:      -5.6      3.978     18.387
ROOT
ATOM      1  C1  NAG B   1      15.287  24.355   4.3140  0.00  0.00     0.000 C
ATOM      2  C2  NAG B   1      14.196  25.325   4.7570  0.00  0.00     0.000 C
ATOM      3  C3  NAG B   1      14.770  26.652   5.2100  0.00  0.00     0.000 C
ATOM      4  C4  NAG B   1      15.740  26.313   6.3380  0.00  0.00     0.000 C
ATOM      5  C5  NAG B   1      16.876  25.446   5.7810  0.00  0.00     0.000 C
ATOM      6  O5  NAG B   1      16.369  24.204   5.2470  0.00  0.00     0.000 O
ATOM      7   O  NAG B   1      13.744  27.562   5.6680  0.00  0.00     0.000 O
ATOM      9  HD  NAG B   1      13.345  27.138   5.0270  0.00  0.00     0.000 HD
ATOM      9   O  NAG B   1      16.273  27.503   6.8960  0.00  0.00     0.000 O
ATOM     11  HD  NAG B   1      15.873  27.079   6.2550  0.00  0.00     0.000 HD
ATOM     11   C  NAG B   1      17.933  25.209   6.8660  0.00  0.00     0.000 C
ATOM     12   O  NAG B   1      18.607  23.967   6.6690  0.00  0.00     0.000 O
ATOM     14  HD  NAG B   1      18.208  23.543   6.0280  0.00  0.00     0.000 HD
ENDROOT
BRANCH 2 16
ATOM     14   N  NAG B   1      13.126  25.694   3.8140  0.00  0.00     0.000 N
ATOM     16  HD  NAG B   1      12.751  25.457   3.0700  0.00  0.00     0.000 HD
ATOM     16   C  NAG B   1      11.927  25.087   3.7880  0.00  0.00     0.000 C
ATOM     17   C  NAG B   1      11.638  23.953   4.7360  0.00  0.00     0.000 C
ATOM     18   O  NAG B   1      11.040  25.456   3.0180  0.00  0.00     0.000 OA
ENDBRANCH 2 16
BRANCH 1 19
ATOM     19  O4  BDP B   2      14.616  23.102   4.2880  0.00  0.00     0.000 O
BRANCH 19 23
ATOM     20  C1  BDP B   2      15.370  19.319   5.7230  0.00  0.00     0.000 C
ATOM     21  C2  BDP B   2      15.002  20.368   6.7510  0.00  0.00     0.000 C
ATOM     22  C3  BDP B   2      14.351  21.568   6.1020  0.00  0.00     0.000 C
ATOM     23  C4  BDP B   2      15.269  22.073   4.9920  0.00  0.00     0.000 C
ATOM     24  C5  BDP B   2      15.556  20.944   4.0220  0.00  0.00     0.000 C
ATOM     25  O5  BDP B   2      16.189  19.880   4.7070  0.00  0.00     0.000 O
ATOM     26   O  BDP B   2      14.132  19.821   7.7190  0.00  0.00     0.000 O
ATOM     28  HD  BDP B   2      14.389  19.100   7.3130  0.00  0.00     0.000 HD
ATOM     28   O  BDP B   2      14.107  22.572   7.1000  0.00  0.00     0.000 O
ATOM     30  HD  BDP B   2      14.364  21.851   6.6940  0.00  0.00     0.000 HD
BRANCH 24 30
ATOM     30   C  BDP B   2      16.457  21.368   2.9180  0.00  0.00     0.000 C
ATOM     31   O  BDP B   2      15.993  21.340   1.7550  0.00  0.00     0.000 OA
ATOM     32   O  BDP B   2      17.635  21.723   3.2070  0.00  0.00     0.000 OA
ENDBRANCH 24 30
BRANCH 20 33
ATOM     33  O3  NAG B   3      16.117  18.375   6.4500  0.00  0.00     0.000 O
BRANCH 33 36
ATOM     34  C1  NAG B   3      15.668  14.642   6.5450  0.00  0.00     0.000 C
ATOM     35  C2  NAG B   3      15.614  16.078   7.0280  0.00  0.00     0.000 C
ATOM     36  C3  NAG B   3      15.984  17.060   5.9060  0.00  0.00     0.000 C
ATOM     37  C4  NAG B   3      17.317  16.643   5.2880  0.00  0.00     0.000 C
ATOM     38  C5  NAG B   3      17.289  15.163   4.9180  0.00  0.00     0.000 C
ATOM     39  O5  NAG B   3      16.979  14.385   6.0620  0.00  0.00     0.000 O
ATOM     40   O  NAG B   3      17.579  17.425   4.1130  0.00  0.00     0.000 O
ATOM     42  HD  NAG B   3      17.662  16.638   3.7590  0.00  0.00     0.000 HD
ATOM     42   C  NAG B   3      18.626  14.627   4.4130  0.00  0.00     0.000 C
ATOM     43   O  NAG B   3      19.590  14.671   5.4720  0.00  0.00     0.000 O
ATOM     45  HD  NAG B   3      19.673  13.885   5.1190  0.00  0.00     0.000 HD
BRANCH 35 47
ATOM     45   N  NAG B   3      15.284  16.460   8.3950  0.00  0.00     0.000 N
ATOM     47  HD  NAG B   3      16.104  16.646   8.1860  0.00  0.00     0.000 HD
ATOM     47   C  NAG B   3      14.115  16.962   8.7380  0.00  0.00     0.000 C
ATOM     48   C  NAG B   3      13.947  17.321  10.1850  0.00  0.00     0.000 C
ATOM     49   O  NAG B   3      13.221  17.151   7.9150  0.00  0.00     0.000 OA
ENDBRANCH 35 47
BRANCH 34 50
ATOM     50  O4  BDP B   4      15.417  13.887   7.7120  0.00  0.00     0.000 O
BRANCH 50 54
ATOM     51  C1  BDP B   4      13.732  10.467   9.1320  0.00  0.00     0.000 C
ATOM     52  C2  BDP B   4      14.736  10.256   8.0050  0.00  0.00     0.000 C
ATOM     53  C3  BDP B   4      15.540  11.508   7.8380  0.00  0.00     0.000 C
ATOM     54  C4  BDP B   4      14.587  12.717   7.6110  0.00  0.00     0.000 C
ATOM     55  C5  BDP B   4      13.473  12.779   8.6460  0.00  0.00     0.000 C
ATOM     56  O5  BDP B   4      12.842  11.509   8.7760  0.00  0.00     0.000 O
ATOM     57   O  BDP B   4      15.601   9.183   8.3140  0.00  0.00     0.000 O
ATOM     59  HD  BDP B   4      15.311   8.523   7.8340  0.00  0.00     0.000 HD
ATOM     59   O  BDP B   4      16.337  11.340   6.6480  0.00  0.00     0.000 O
ATOM     61  HD  BDP B   4      16.047  10.681   6.1680  0.00  0.00     0.000 HD
BRANCH 55 61
ATOM     61   C  BDP B   4      12.443  13.807   8.2130  0.00  0.00     0.000 C
ATOM     62   O  BDP B   4      11.869  14.482   9.1070  0.00  0.00     0.000 OA
ATOM     63   O  BDP B   4      12.211  13.938   6.9720  0.00  0.00     0.000 OA
ENDBRANCH 55 61
BRANCH 51 64
ATOM     64  O3  NAG B   5      13.022   9.226   9.3100  0.00  0.00     0.000 O
BRANCH 64 67
ATOM     65  C1  NAG B   5      12.657   7.178  12.3530  0.00  0.00     0.000 C
ATOM     66  C2  NAG B   5      13.194   7.619  11.0030  0.00  0.00     0.000 C
ATOM     67  C3  NAG B   5      12.650   8.999  10.6550  0.00  0.00     0.000 C
ATOM     68  C4  NAG B   5      11.121   9.036  10.7760  0.00  0.00     0.000 C
ATOM     69  C5  NAG B   5      10.675   8.490  12.1230  0.00  0.00     0.000 C
ATOM     70  O5  NAG B   5      11.248   7.191  12.3380  0.00  0.00     0.000 O
ATOM     71   O  NAG B   5      10.685  10.366  10.5940  0.00  0.00     0.000 O
ATOM     73  HD  NAG B   5      10.072   9.973  10.1250  0.00  0.00     0.000 HD
ATOM     73   C  NAG B   5       9.153   8.369  12.2850  0.00  0.00     0.000 C
ATOM     74   O  NAG B   5       8.641   7.409  11.3370  0.00  0.00     0.000 O
ATOM     76  HD  NAG B   5       8.028   7.016  10.8680  0.00  0.00     0.000 HD
BRANCH 66 78
ATOM     76   N  NAG B   5      14.644   7.424  11.1960  0.00  0.00     0.000 N
ATOM     78  HD  NAG B   5      14.045   7.211  10.6080  0.00  0.00     0.000 HD
ATOM     78   C  NAG B   5      15.506   6.960  10.2780  0.00  0.00     0.000 C
ATOM     79   C  NAG B   5      16.927   6.891  10.7700  0.00  0.00     0.000 C
ATOM     80   O  NAG B   5      15.153   6.601   9.0980  0.00  0.00     0.000 OA
ENDBRANCH 66 78
BRANCH 65 81
ATOM     81  O4  BDP B   6      13.128   5.860  12.6640  0.00  0.00     0.000 O
BRANCH 81 85
ATOM     82  C1  BDP B   6      13.257   3.097  15.9370  0.00  0.00     0.000 C
ATOM     83  C2  BDP B   6      11.917   3.295  15.2340  0.00  0.00     0.000 C
ATOM     84  C3  BDP B   6      12.058   3.961  13.8620  0.00  0.00     0.000 C
ATOM     85  C4  BDP B   6      12.886   5.245  13.9320  0.00  0.00     0.000 C
ATOM     86  C5  BDP B   6      14.196   4.926  14.6920  0.00  0.00     0.000 C
ATOM     87  O5  BDP B   6      13.934   4.343  16.0090  0.00  0.00     0.000 O
ATOM     88   O  BDP B   6      11.374   1.988  15.0760  0.00  0.00     0.000 O
ATOM     90  HD  BDP B   6      10.954   1.505  14.4910  0.00  0.00     0.000 HD
ATOM     90   O  BDP B   6      10.761   4.217  13.3180  0.00  0.00     0.000 O
ATOM     92  HD  BDP B   6      10.341   3.735  12.7340  0.00  0.00     0.000 HD
BRANCH 86 92
ATOM     92   C  BDP B   6      14.950   6.196  15.0050  0.00  0.00     0.000 C
ATOM     93   O  BDP B   6      15.807   6.632  14.1780  0.00  0.00     0.000 OA
ATOM     94   O  BDP B   6      14.670   6.792  16.0910  0.00  0.00     0.000 OA
ENDBRANCH 86 92
BRANCH 82 95
ATOM     95  O3  NAG B   7      13.002   2.653  17.2840  0.00  0.00     0.000 O
BRANCH 95 98
ATOM     96  C1  NAG B   7      13.979  -0.167  19.3900  0.00  0.00     0.000 C
ATOM     97  C2  NAG B   7      13.026   0.858  18.7870  0.00  0.00     0.000 C
ATOM     98  C3  NAG B   7      13.905   1.734  17.8970  0.00  0.00     0.000 C
ATOM     99  C4  NAG B   7      14.989   2.405  18.7360  0.00  0.00     0.000 C
ATOM    100  C5  NAG B   7      15.783   1.368  19.5330  0.00  0.00     0.000 C
ATOM    101  O5  NAG B   7      14.875   0.546  20.2500  0.00  0.00     0.000 O
BRANCH 97 104
ATOM    102   N  NAG B   7      11.985   0.412  17.8510  0.00  0.00     0.000 N
ATOM    104  HD  NAG B   7      11.469   0.349  17.1580  0.00  0.00     0.000 HD
ATOM    104   O  NAG B   7       9.881  -0.007  17.1260  0.00  0.00     0.000 OA
ATOM    105   C  NAG B   7      10.654   0.337  18.0410  0.00  0.00     0.000 C
ATOM    106   C  NAG B   7      10.092   0.691  19.3750  0.00  0.00     0.000 C
ENDBRANCH 97 104
ATOM    107   O  NAG B   7      17.648   1.075  20.9240  0.00  0.00     0.000 O
ATOM    109  HD  NAG B   7      17.185   0.730  20.2790  0.00  0.00     0.000 HD
ATOM    109   O  NAG B   7      17.648   1.075  20.9240  0.00  0.00     0.000 O
ATOM    111  HD  NAG B   7      17.185   0.730  20.2790  0.00  0.00     0.000 HD
ENDBRANCH 95 98
ENDBRANCH 82 95
ENDBRANCH 81 85
ENDBRANCH 65 81
ENDBRANCH 64 67
ENDBRANCH 51 64
ENDBRANCH 50 54
ENDBRANCH 34 50
ENDBRANCH 33 36
ENDBRANCH 20 33
ENDBRANCH 19 23
ENDBRANCH 1 19
TORSDOF 19
ENDMDL
MODEL 52
REMARK VINA RESULT:      -5.6      7.575     10.324
ROOT
ATOM      1  C1  NAG B   1      18.783   3.468   5.8440  0.00  0.00     0.000 C
ATOM      2  C2  NAG B   1      18.382   2.008   5.6570  0.00  0.00     0.000 C
ATOM      3  C3  NAG B   1      18.354   1.257   6.9720  0.00  0.00     0.000 C
ATOM      4  C4  NAG B   1      19.756   1.405   7.5550  0.00  0.00     0.000 C
ATOM      5  C5  NAG B   1      20.030   2.887   7.8370  0.00  0.00     0.000 C
ATOM      6  O5  NAG B   1      19.973   3.667   6.6230  0.00  0.00     0.000 O
ATOM      7   O  NAG B   1      18.013  -0.137   6.7980  0.00  0.00     0.000 O
ATOM      9  HD  NAG B   1      17.537   0.250   6.1860  0.00  0.00     0.000 HD
ATOM      9   O  NAG B   1      19.866   0.660   8.7570  0.00  0.00     0.000 O
ATOM     11  HD  NAG B   1      19.390   1.046   8.1450  0.00  0.00     0.000 HD
ATOM     11   C  NAG B   1      21.379   3.044   8.5490  0.00  0.00     0.000 C
ATOM     12   O  NAG B   1      21.976   4.306   8.2560  0.00  0.00     0.000 O
ATOM     14  HD  NAG B   1      21.500   4.693   7.6450  0.00  0.00     0.000 HD
ENDROOT
BRANCH 2 16
ATOM     14   N  NAG B   1      17.080   1.815   4.9920  0.00  0.00     0.000 N
ATOM     16  HD  NAG B   1      16.524   2.189   4.4440  0.00  0.00     0.000 HD
ATOM     16   C  NAG B   1      16.959   1.404   3.7180  0.00  0.00     0.000 C
ATOM     17   C  NAG B   1      18.191   1.144   2.8930  0.00  0.00     0.000 C
ATOM     18   O  NAG B   1      15.854   1.207   3.2130  0.00  0.00     0.000 OA
ENDBRANCH 2 16
BRANCH 1 19
ATOM     19  O4  BDP B   2      19.104   3.887   4.5240  0.00  0.00     0.000 O
BRANCH 19 23
ATOM     20  C1  BDP B   2      18.282   7.870   5.1630  0.00  0.00     0.000 C
ATOM     21  C2  BDP B   2      17.122   7.007   4.7100  0.00  0.00     0.000 C
ATOM     22  C3  BDP B   2      17.420   5.539   4.9120  0.00  0.00     0.000 C
ATOM     23  C4  BDP B   2      18.745   5.216   4.2280  0.00  0.00     0.000 C
ATOM     24  C5  BDP B   2      19.827   6.130   4.7680  0.00  0.00     0.000 C
ATOM     25  O5  BDP B   2      19.482   7.477   4.5110  0.00  0.00     0.000 O
ATOM     26   O  BDP B   2      15.949   7.356   5.4130  0.00  0.00     0.000 O
ATOM     28  HD  BDP B   2      16.467   8.015   5.6340  0.00  0.00     0.000 HD
ATOM     28   O  BDP B   2      16.336   4.759   4.3840  0.00  0.00     0.000 O
ATOM     30  HD  BDP B   2      16.853   5.418   4.6050  0.00  0.00     0.000 HD
BRANCH 24 30
ATOM     30   C  BDP B   2      21.147   5.875   4.1330  0.00  0.00     0.000 C
ATOM     31   O  BDP B   2      22.107   5.607   4.8920  0.00  0.00     0.000 OA
ATOM     32   O  BDP B   2      21.233   5.949   2.8740  0.00  0.00     0.000 OA
ENDBRANCH 24 30
BRANCH 20 33
ATOM     33  O3  NAG B   3      17.929   9.164   4.7420  0.00  0.00     0.000 O
BRANCH 33 36
ATOM     34  C1  NAG B   3      18.604  12.219   6.8310  0.00  0.00     0.000 C
ATOM     35  C2  NAG B   3      17.848  11.016   6.3000  0.00  0.00     0.000 C
ATOM     36  C3  NAG B   3      18.731  10.164   5.3750  0.00  0.00     0.000 C
ATOM     37  C4  NAG B   3      19.346  11.058   4.3000  0.00  0.00     0.000 C
ATOM     38  C5  NAG B   3      20.004  12.278   4.9390  0.00  0.00     0.000 C
ATOM     39  O5  NAG B   3      19.057  12.983   5.7230  0.00  0.00     0.000 O
ATOM     40   O  NAG B   3      20.327  10.322   3.5530  0.00  0.00     0.000 O
ATOM     42  HD  NAG B   3      20.825  10.992   3.7840  0.00  0.00     0.000 HD
ATOM     42   C  NAG B   3      20.533  13.293   3.9300  0.00  0.00     0.000 C
ATOM     43   O  NAG B   3      19.436  13.867   3.2080  0.00  0.00     0.000 O
ATOM     45  HD  NAG B   3      19.934  14.537   3.4390  0.00  0.00     0.000 HD
BRANCH 35 47
ATOM     45   N  NAG B   3      16.455  10.769   6.6500  0.00  0.00     0.000 N
ATOM     47  HD  NAG B   3      16.555  11.003   5.8220  0.00  0.00     0.000 HD
ATOM     47   C  NAG B   3      16.080   9.803   7.4640  0.00  0.00     0.000 C
ATOM     48   C  NAG B   3      14.604   9.674   7.7020  0.00  0.00     0.000 C
ATOM     49   O  NAG B   3      16.889   9.034   7.9790  0.00  0.00     0.000 OA
ENDBRANCH 35 47
BRANCH 34 50
ATOM     50  O4  BDP B   4      17.626  12.935   7.5560  0.00  0.00     0.000 O
BRANCH 50 54
ATOM     51  C1  BDP B   4      16.898  16.336   9.6660  0.00  0.00     0.000 C
ATOM     52  C2  BDP B   4      16.937  16.527   8.1540  0.00  0.00     0.000 C
ATOM     53  C3  BDP B   4      16.834  15.184   7.4980  0.00  0.00     0.000 C
ATOM     54  C4  BDP B   4      17.952  14.247   8.0420  0.00  0.00     0.000 C
ATOM     55  C5  BDP B   4      18.011  14.238   9.5630  0.00  0.00     0.000 C
ATOM     56  O5  BDP B   4      18.018  15.570  10.0700  0.00  0.00     0.000 O
ATOM     57   O  BDP B   4      15.859  17.336   7.7340  0.00  0.00     0.000 O
ATOM     59  HD  BDP B   4      16.214  18.111   7.5830  0.00  0.00     0.000 HD
ATOM     59   O  BDP B   4      17.069  15.385   6.0900  0.00  0.00     0.000 O
ATOM     61  HD  BDP B   4      17.424  16.161   5.9390  0.00  0.00     0.000 HD
BRANCH 55 61
ATOM     61   C  BDP B   4      19.275  13.527  10.0120  0.00  0.00     0.000 C
ATOM     62   O  BDP B   4      20.382  14.018   9.6690  0.00  0.00     0.000 OA
ATOM     63   O  BDP B   4      19.156  12.474  10.7100  0.00  0.00     0.000 OA
ENDBRANCH 55 61
BRANCH 51 64
ATOM     64  O3  NAG B   5      16.933  17.647  10.2620  0.00  0.00     0.000 O
BRANCH 64 67
ATOM     65  C1  NAG B   5      14.774  18.296  13.1800  0.00  0.00     0.000 C
ATOM     66  C2  NAG B   5      15.156  18.062  11.7290  0.00  0.00     0.000 C
ATOM     67  C3  NAG B   5      16.613  17.626  11.6400  0.00  0.00     0.000 C
ATOM     68  C4  NAG B   5      17.528  18.604  12.3910  0.00  0.00     0.000 C
ATOM     69  C5  NAG B   5      17.013  18.845  13.8010  0.00  0.00     0.000 C
ATOM     70  O5  NAG B   5      15.637  19.249  13.7570  0.00  0.00     0.000 O
ATOM     71   O  NAG B   5      18.837  18.076  12.4080  0.00  0.00     0.000 O
ATOM     73  HD  NAG B   5      19.041  18.900  12.2390  0.00  0.00     0.000 HD
ATOM     73   C  NAG B   5      17.794  19.909  14.5860  0.00  0.00     0.000 C
ATOM     74   O  NAG B   5      17.646  21.191  13.9410  0.00  0.00     0.000 O
ATOM     76  HD  NAG B   5      17.851  22.015  13.7730  0.00  0.00     0.000 HD
BRANCH 66 78
ATOM     76   N  NAG B   5      14.192  17.063  11.2300  0.00  0.00     0.000 N
ATOM     78  HD  NAG B   5      14.416  17.879  11.0470  0.00  0.00     0.000 HD
ATOM     78   C  NAG B   5      13.472  17.156  10.1010  0.00  0.00     0.000 C
ATOM     79   C  NAG B   5      12.587  15.964   9.8540  0.00  0.00     0.000 C
ATOM     80   O  NAG B   5      13.526  18.167   9.3140  0.00  0.00     0.000 OA
ENDBRANCH 66 78
BRANCH 65 81
ATOM     81  O4  BDP B   6      13.417  18.751  13.2660  0.00  0.00     0.000 O
BRANCH 81 85
ATOM     82  C1  BDP B   6      10.112  18.074  15.9080  0.00  0.00     0.000 C
ATOM     83  C2  BDP B   6      10.752  19.460  15.9190  0.00  0.00     0.000 C
ATOM     84  C3  BDP B   6      11.623  19.723  14.6880  0.00  0.00     0.000 C
ATOM     85  C4  BDP B   6      12.639  18.603  14.4560  0.00  0.00     0.000 C
ATOM     86  C5  BDP B   6      11.881  17.255  14.5010  0.00  0.00     0.000 C
ATOM     87  O5  BDP B   6      11.128  17.094  15.7460  0.00  0.00     0.000 O
ATOM     88   O  BDP B   6       9.665  20.381  15.9400  0.00  0.00     0.000 O
ATOM     90  HD  BDP B   6       9.418  21.130  15.5830  0.00  0.00     0.000 HD
ATOM     90   O  BDP B   6      12.276  20.987  14.8230  0.00  0.00     0.000 O
ATOM     92  HD  BDP B   6      12.030  21.737  14.4670  0.00  0.00     0.000 HD
BRANCH 86 92
ATOM     92   C  BDP B   6      12.853  16.100  14.5170  0.00  0.00     0.000 C
ATOM     93   O  BDP B   6      13.523  15.863  15.5670  0.00  0.00     0.000 OA
ATOM     94   O  BDP B   6      12.940  15.393  13.4660  0.00  0.00     0.000 OA
ENDBRANCH 86 92
BRANCH 82 95
ATOM     95  O3  NAG B   7       9.485  17.854  17.1870  0.00  0.00     0.000 O
BRANCH 95 98
ATOM     96  C1  NAG B   7       6.186  16.767  18.3170  0.00  0.00     0.000 C
ATOM     97  C2  NAG B   7       7.425  17.653  18.2820  0.00  0.00     0.000 C
ATOM     98  C3  NAG B   7       8.353  16.990  17.2660  0.00  0.00     0.000 C
ATOM     99  C4  NAG B   7       8.692  15.572  17.7210  0.00  0.00     0.000 C
ATOM    100  C5  NAG B   7       7.420  14.767  17.9920  0.00  0.00     0.000 C
ATOM    101  O5  NAG B   7       6.585  15.507  18.8680  0.00  0.00     0.000 O
BRANCH 97 104
ATOM    102   N  NAG B   7       7.303  19.021  17.7590  0.00  0.00     0.000 N
ATOM    104  HD  NAG B   7       7.436  19.747  17.3060  0.00  0.00     0.000 HD
ATOM    104   O  NAG B   7       7.326  21.284  17.8290  0.00  0.00     0.000 OA
ATOM    105   C  NAG B   7       7.392  20.189  18.4220  0.00  0.00     0.000 C
ATOM    106   C  NAG B   7       7.589  20.171  19.8990  0.00  0.00     0.000 C
ENDBRANCH 97 104
ATOM    107   O  NAG B   7       6.612  12.626  18.5110  0.00  0.00     0.000 O
ATOM    109  HD  NAG B   7       6.471  13.343  18.0460  0.00  0.00     0.000 HD
ATOM    109   O  NAG B   7       6.612  12.626  18.5110  0.00  0.00     0.000 O
ATOM    111  HD  NAG B   7       6.471  13.343  18.0460  0.00  0.00     0.000 HD
ENDBRANCH 95 98
ENDBRANCH 82 95
ENDBRANCH 81 85
ENDBRANCH 65 81
ENDBRANCH 64 67
ENDBRANCH 51 64
ENDBRANCH 50 54
ENDBRANCH 34 50
ENDBRANCH 33 36
ENDBRANCH 20 33
ENDBRANCH 19 23
ENDBRANCH 1 19
TORSDOF 19
ENDMDL
MODEL 53
REMARK VINA RESULT:      -5.6      7.570     14.329
ROOT
ATOM      1  C1  NAG B   1      26.819   3.977   7.1050  0.00  0.00     0.000 C
ATOM      2  C2  NAG B   1      28.189   3.366   7.3830  0.00  0.00     0.000 C
ATOM      3  C3  NAG B   1      28.990   4.200   8.3620  0.00  0.00     0.000 C
ATOM      4  C4  NAG B   1      29.089   5.586   7.7330  0.00  0.00     0.000 C
ATOM      5  C5  NAG B   1      27.681   6.183   7.6090  0.00  0.00     0.000 C
ATOM      6  O5  NAG B   1      26.844   5.371   6.7590  0.00  0.00     0.000 O
ATOM      7   O  NAG B   1      30.305   3.648   8.6010  0.00  0.00     0.000 O
ATOM      9  HD  NAG B   1      29.820   2.938   8.4970  0.00  0.00     0.000 HD
ATOM      9   O  NAG B   1      29.900   6.429   8.5340  0.00  0.00     0.000 O
ATOM     11  HD  NAG B   1      29.415   5.719   8.4300  0.00  0.00     0.000 HD
ATOM     11   C  NAG B   1      27.768   7.629   7.1060  0.00  0.00     0.000 C
ATOM     12   O  NAG B   1      26.600   7.994   6.3730  0.00  0.00     0.000 O
ATOM     14  HD  NAG B   1      26.115   7.284   6.2690  0.00  0.00     0.000 HD
ENDROOT
BRANCH 2 16
ATOM     14   N  NAG B   1      28.439   2.146   6.5960  0.00  0.00     0.000 N
ATOM     16  HD  NAG B   1      29.054   1.573   6.3880  0.00  0.00     0.000 HD
ATOM     16   C  NAG B   1      28.472   0.916   7.1370  0.00  0.00     0.000 C
ATOM     17   C  NAG B   1      28.275   0.742   8.6200  0.00  0.00     0.000 C
ATOM     18   O  NAG B   1      28.634  -0.085   6.4390  0.00  0.00     0.000 OA
ENDBRANCH 2 16
BRANCH 1 19
ATOM     19  O4  BDP B   2      26.390   3.291   5.9360  0.00  0.00     0.000 O
BRANCH 19 23
ATOM     20  C1  BDP B   2      22.365   3.868   6.5790  0.00  0.00     0.000 C
ATOM     21  C2  BDP B   2      22.980   2.641   7.2200  0.00  0.00     0.000 C
ATOM     22  C3  BDP B   2      24.487   2.750   7.2780  0.00  0.00     0.000 C
ATOM     23  C4  BDP B   2      25.005   3.050   5.8740  0.00  0.00     0.000 C
ATOM     24  C5  BDP B   2      24.330   4.299   5.3440  0.00  0.00     0.000 C
ATOM     25  O5  BDP B   2      22.930   4.098   5.2960  0.00  0.00     0.000 O
ATOM     26   O  BDP B   2      22.465   2.458   8.5210  0.00  0.00     0.000 O
ATOM     28  HD  BDP B   2      21.923   3.063   8.2210  0.00  0.00     0.000 HD
ATOM     28   O  BDP B   2      25.030   1.529   7.8050  0.00  0.00     0.000 O
ATOM     30  HD  BDP B   2      24.488   2.134   7.5050  0.00  0.00     0.000 HD
BRANCH 24 30
ATOM     30   C  BDP B   2      24.782   4.642   3.9700  0.00  0.00     0.000 C
ATOM     31   O  BDP B   2      24.565   3.802   3.0670  0.00  0.00     0.000 OA
ATOM     32   O  BDP B   2      25.364   5.750   3.7880  0.00  0.00     0.000 OA
ENDBRANCH 24 30
BRANCH 20 33
ATOM     33  O3  NAG B   3      21.007   3.531   6.4330  0.00  0.00     0.000 O
BRANCH 33 36
ATOM     34  C1  NAG B   3      18.398   6.237   6.5870  0.00  0.00     0.000 C
ATOM     35  C2  NAG B   3      19.387   5.204   7.0950  0.00  0.00     0.000 C
ATOM     36  C3  NAG B   3      20.238   4.635   5.9490  0.00  0.00     0.000 C
ATOM     37  C4  NAG B   3      19.319   4.145   4.8320  0.00  0.00     0.000 C
ATOM     38  C5  NAG B   3      18.312   5.230   4.4610  0.00  0.00     0.000 C
ATOM     39  O5  NAG B   3      17.576   5.620   5.6070  0.00  0.00     0.000 O
ATOM     40   O  NAG B   3      20.095   3.796   3.6750  0.00  0.00     0.000 O
ATOM     42  HD  NAG B   3      19.548   4.349   3.2950  0.00  0.00     0.000 HD
ATOM     42   C  NAG B   3      17.269   4.781   3.4410  0.00  0.00     0.000 C
ATOM     43   O  NAG B   3      16.440   3.765   4.0190  0.00  0.00     0.000 O
ATOM     45  HD  NAG B   3      15.893   4.318   3.6390  0.00  0.00     0.000 HD
BRANCH 35 47
ATOM     45   N  NAG B   3      19.522   4.741   8.4690  0.00  0.00     0.000 N
ATOM     47  HD  NAG B   3      19.304   4.105   7.9230  0.00  0.00     0.000 HD
ATOM     47   C  NAG B   3      20.449   5.192   9.2910  0.00  0.00     0.000 C
ATOM     48   C  NAG B   3      20.461   4.593  10.6660  0.00  0.00     0.000 C
ATOM     49   O  NAG B   3      21.273   6.035   8.9430  0.00  0.00     0.000 OA
ENDBRANCH 35 47
BRANCH 34 50
ATOM     50  O4  BDP B   4      17.639   6.563   7.7320  0.00  0.00     0.000 O
BRANCH 50 54
ATOM     51  C1  BDP B   4      15.309   9.524   9.2670  0.00  0.00     0.000 C
ATOM     52  C2  BDP B   4      15.258   9.403   7.7480  0.00  0.00     0.000 C
ATOM     53  C3  BDP B   4      15.838   8.080   7.3530  0.00  0.00     0.000 C
ATOM     54  C4  BDP B   4      17.269   7.935   7.9460  0.00  0.00     0.000 C
ATOM     55  C5  BDP B   4      17.316   8.260   9.4330  0.00  0.00     0.000 C
ATOM     56  O5  BDP B   4      16.659   9.498   9.6930  0.00  0.00     0.000 O
ATOM     57   O  BDP B   4      13.923   9.482   7.2950  0.00  0.00     0.000 O
ATOM     59  HD  BDP B   4      13.848  10.284   6.9780  0.00  0.00     0.000 HD
ATOM     59   O  BDP B   4      15.950   8.083   5.9150  0.00  0.00     0.000 O
ATOM     61  HD  BDP B   4      15.875   8.885   5.5980  0.00  0.00     0.000 HD
BRANCH 55 61
ATOM     61   C  BDP B   4      18.763   8.360   9.8780  0.00  0.00     0.000 C
ATOM     62   O  BDP B   4      19.066   7.901  11.0110  0.00  0.00     0.000 OA
ATOM     63   O  BDP B   4      19.599   8.898   9.0890  0.00  0.00     0.000 OA
ENDBRANCH 55 61
BRANCH 51 64
ATOM     64  O3  NAG B   5      14.687  10.775   9.6170  0.00  0.00     0.000 O
BRANCH 64 67
ATOM     65  C1  NAG B   5      12.778  11.090  12.7560  0.00  0.00     0.000 C
ATOM     66  C2  NAG B   5      13.078  10.710  11.3160  0.00  0.00     0.000 C
ATOM     67  C3  NAG B   5      14.553  10.944  11.0150  0.00  0.00     0.000 C
ATOM     68  C4  NAG B   5      14.974  12.369  11.4000  0.00  0.00     0.000 C
ATOM     69  C5  NAG B   5      14.550  12.689  12.8240  0.00  0.00     0.000 C
ATOM     70  O5  NAG B   5      13.148  12.430  12.9860  0.00  0.00     0.000 O
ATOM     71   O  NAG B   5      16.373  12.484  11.2450  0.00  0.00     0.000 O
ATOM     73  HD  NAG B   5      16.150  13.249  10.9060  0.00  0.00     0.000 HD
ATOM     73   C  NAG B   5      14.817  14.138  13.2540  0.00  0.00     0.000 C
ATOM     74   O  NAG B   5      14.024  15.035  12.4490  0.00  0.00     0.000 O
ATOM     76  HD  NAG B   5      13.802  15.801  12.1100  0.00  0.00     0.000 HD
BRANCH 66 78
ATOM     76   N  NAG B   5      12.586   9.322  11.2270  0.00  0.00     0.000 N
ATOM     78  HD  NAG B   5      12.456  10.071  10.8130  0.00  0.00     0.000 HD
ATOM     78   C  NAG B   5      11.860   8.804  10.2240  0.00  0.00     0.000 C
ATOM     79   C  NAG B   5      11.526   7.349  10.4130  0.00  0.00     0.000 C
ATOM     80   O  NAG B   5      11.478   9.487   9.2070  0.00  0.00     0.000 OA
ENDBRANCH 66 78
BRANCH 65 81
ATOM     81  O4  BDP B   6      11.382  10.915  13.0310  0.00  0.00     0.000 O
BRANCH 81 85
ATOM     82  C1  BDP B   6       8.731  10.239  16.3290  0.00  0.00     0.000 C
ATOM     83  C2  BDP B   6       9.652  11.454  16.4020  0.00  0.00     0.000 C
ATOM     84  C3  BDP B   6      10.243  11.835  15.0420  0.00  0.00     0.000 C
ATOM     85  C4  BDP B   6      10.895  10.638  14.3460  0.00  0.00     0.000 C
ATOM     86  C5  BDP B   6       9.883   9.468  14.3660  0.00  0.00     0.000 C
ATOM     87  O5  BDP B   6       9.430   9.161  15.7240  0.00  0.00     0.000 O
ATOM     88   O  BDP B   6       8.838  12.520  16.8830  0.00  0.00     0.000 O
ATOM     90  HD  BDP B   6       8.691  13.362  16.7450  0.00  0.00     0.000 HD
ATOM     90   O  BDP B   6      11.179  12.903  15.2070  0.00  0.00     0.000 O
ATOM     92  HD  BDP B   6      11.032  13.745  15.0690  0.00  0.00     0.000 HD
BRANCH 86 92
ATOM     92   C  BDP B   6      10.543   8.189  13.9100  0.00  0.00     0.000 C
ATOM     93   O  BDP B   6      11.796   8.048  14.0510  0.00  0.00     0.000 OA
ATOM     94   O  BDP B   6       9.797   7.287  13.4180  0.00  0.00     0.000 OA
ENDBRANCH 86 92
BRANCH 82 95
ATOM     95  O3  NAG B   7       8.391   9.847  17.6730  0.00  0.00     0.000 O
BRANCH 95 98
ATOM     96  C1  NAG B   7       5.320   8.636  19.2370  0.00  0.00     0.000 C
ATOM     97  C2  NAG B   7       6.525   9.550  19.0570  0.00  0.00     0.000 C
ATOM     98  C3  NAG B   7       7.297   8.955  17.8810  0.00  0.00     0.000 C
ATOM     99  C4  NAG B   7       7.723   7.526  18.2100  0.00  0.00     0.000 C
ATOM    100  C5  NAG B   7       6.521   6.681  18.6310  0.00  0.00     0.000 C
ATOM    101  O5  NAG B   7       5.818   7.361  19.6600  0.00  0.00     0.000 O
BRANCH 97 104
ATOM    102   N  NAG B   7       6.350  10.939  18.6110  0.00  0.00     0.000 N
ATOM    104  HD  NAG B   7       6.450  11.691  18.1950  0.00  0.00     0.000 HD
ATOM    104   O  NAG B   7       6.303  13.195  18.8030  0.00  0.00     0.000 OA
ATOM    105   C  NAG B   7       6.416  12.073  19.3340  0.00  0.00     0.000 C
ATOM    106   C  NAG B   7       6.645  11.983  20.8040  0.00  0.00     0.000 C
ENDBRANCH 97 104
ATOM    107   O  NAG B   7       5.834   4.501  19.1620  0.00  0.00     0.000 O
ATOM    109  HD  NAG B   7       5.612   5.235  18.7600  0.00  0.00     0.000 HD
ATOM    109   O  NAG B   7       5.834   4.501  19.1620  0.00  0.00     0.000 O
ATOM    111  HD  NAG B   7       5.612   5.235  18.7600  0.00  0.00     0.000 HD
ENDBRANCH 95 98
ENDBRANCH 82 95
ENDBRANCH 81 85
ENDBRANCH 65 81
ENDBRANCH 64 67
ENDBRANCH 51 64
ENDBRANCH 50 54
ENDBRANCH 34 50
ENDBRANCH 33 36
ENDBRANCH 20 33
ENDBRANCH 19 23
ENDBRANCH 1 19
TORSDOF 19
ENDMDL
MODEL 54
REMARK VINA RESULT:      -5.6      5.576     12.111
ROOT
ATOM      1  C1  NAG B   1      11.664   6.584  27.7310  0.00  0.00     0.000 C
ATOM      2  C2  NAG B   1      11.911   7.260  29.0770  0.00  0.00     0.000 C
ATOM      3  C3  NAG B   1      13.292   7.878  29.1540  0.00  0.00     0.000 C
ATOM      4  C4  NAG B   1      14.266   6.733  28.8910  0.00  0.00     0.000 C
ATOM      5  C5  NAG B   1      14.041   6.197  27.4720  0.00  0.00     0.000 C
ATOM      6  O5  NAG B   1      12.701   5.681  27.3160  0.00  0.00     0.000 O
ATOM      7   O  NAG B   1      13.547   8.486  30.4400  0.00  0.00     0.000 O
ATOM      9  HD  NAG B   1      12.702   8.638  30.3260  0.00  0.00     0.000 HD
ATOM      9   O  NAG B   1      15.602   7.188  29.0270  0.00  0.00     0.000 O
ATOM     11  HD  NAG B   1      14.757   7.340  28.9120  0.00  0.00     0.000 HD
ATOM     11   C  NAG B   1      15.099   5.139  27.1380  0.00  0.00     0.000 C
ATOM     12   O  NAG B   1      14.601   4.185  26.2010  0.00  0.00     0.000 O
ATOM     14  HD  NAG B   1      13.756   4.337  26.0870  0.00  0.00     0.000 HD
ENDROOT
BRANCH 2 16
ATOM     14   N  NAG B   1      10.782   7.108  30.0130  0.00  0.00     0.000 N
ATOM     16  HD  NAG B   1      10.544   7.246  30.8340  0.00  0.00     0.000 HD
ATOM     16   C  NAG B   1       9.965   8.120  30.3500  0.00  0.00     0.000 C
ATOM     17   C  NAG B   1      10.201   9.496  29.7850  0.00  0.00     0.000 C
ATOM     18   O  NAG B   1       9.003   7.943  31.0970  0.00  0.00     0.000 OA
ENDBRANCH 2 16
BRANCH 1 19
ATOM     19  O4  BDP B   2      10.520   5.778  27.9790  0.00  0.00     0.000 O
BRANCH 19 23
ATOM     20  C1  BDP B   2       9.301   5.726  24.0470  0.00  0.00     0.000 C
ATOM     21  C2  BDP B   2       8.674   6.783  24.9330  0.00  0.00     0.000 C
ATOM     22  C3  BDP B   2       9.476   6.984  26.1980  0.00  0.00     0.000 C
ATOM     23  C4  BDP B   2       9.659   5.629  26.8750  0.00  0.00     0.000 C
ATOM     24  C5  BDP B   2      10.303   4.662  25.9010  0.00  0.00     0.000 C
ATOM     25  O5  BDP B   2       9.474   4.512  24.7640  0.00  0.00     0.000 O
ATOM     26   O  BDP B   2       8.569   8.006  24.2360  0.00  0.00     0.000 O
ATOM     28  HD  BDP B   2       8.771   7.471  23.5860  0.00  0.00     0.000 HD
ATOM     28   O  BDP B   2       8.795   7.923  27.0460  0.00  0.00     0.000 O
ATOM     30  HD  BDP B   2       8.998   7.388  26.3950  0.00  0.00     0.000 HD
BRANCH 24 30
ATOM     30   C  BDP B   2      10.500   3.314  26.4950  0.00  0.00     0.000 C
ATOM     31   O  BDP B   2       9.495   2.750  26.9850  0.00  0.00     0.000 OA
ATOM     32   O  BDP B   2      11.662   2.815  26.4820  0.00  0.00     0.000 OA
ENDBRANCH 24 30
BRANCH 20 33
ATOM     33  O3  NAG B   3       8.353   5.530  23.0270  0.00  0.00     0.000 O
BRANCH 33 36
ATOM     34  C1  NAG B   3       9.421   4.356  19.6170  0.00  0.00     0.000 C
ATOM     35  C2  NAG B   3       9.134   5.329  20.7440  0.00  0.00     0.000 C
ATOM     36  C3  NAG B   3       8.811   4.590  22.0520  0.00  0.00     0.000 C
ATOM     37  C4  NAG B   3       7.708   3.567  21.7950  0.00  0.00     0.000 C
ATOM     38  C5  NAG B   3       8.062   2.699  20.5900  0.00  0.00     0.000 C
ATOM     39  O5  NAG B   3       8.287   3.517  19.4540  0.00  0.00     0.000 O
ATOM     40   O  NAG B   3       7.534   2.732  22.9500  0.00  0.00     0.000 O
ATOM     42  HD  NAG B   3       7.656   2.106  22.3630  0.00  0.00     0.000 HD
ATOM     42   C  NAG B   3       6.955   1.732  20.1790  0.00  0.00     0.000 C
ATOM     43   O  NAG B   3       5.819   2.472  19.7150  0.00  0.00     0.000 O
ATOM     45  HD  NAG B   3       5.941   1.847  19.1280  0.00  0.00     0.000 HD
BRANCH 35 47
ATOM     45   N  NAG B   3       9.122   6.781  20.6100  0.00  0.00     0.000 N
ATOM     47  HD  NAG B   3       8.345   6.458  20.8150  0.00  0.00     0.000 HD
ATOM     47   C  NAG B   3      10.116   7.547  21.0120  0.00  0.00     0.000 C
ATOM     48   C  NAG B   3       9.933   9.023  20.8180  0.00  0.00     0.000 C
ATOM     49   O  NAG B   3      11.124   7.082  21.5400  0.00  0.00     0.000 OA
ENDBRANCH 35 47
BRANCH 34 50
ATOM     50  O4  BDP B   4       9.582   5.191  18.4880  0.00  0.00     0.000 O
BRANCH 50 54
ATOM     51  C1  BDP B   4      11.467   5.575  14.9040  0.00  0.00     0.000 C
ATOM     52  C2  BDP B   4      10.670   4.286  15.0630  0.00  0.00     0.000 C
ATOM     53  C3  BDP B   4       9.745   4.435  16.2320  0.00  0.00     0.000 C
ATOM     54  C4  BDP B   4      10.559   4.830  17.4980  0.00  0.00     0.000 C
ATOM     55  C5  BDP B   4      11.496   6.002  17.2420  0.00  0.00     0.000 C
ATOM     56  O5  BDP B   4      12.259   5.781  16.0590  0.00  0.00     0.000 O
ATOM     57   O  BDP B   4       9.913   4.030  13.8990  0.00  0.00     0.000 O
ATOM     59  HD  BDP B   4      10.351   3.407  13.4860  0.00  0.00     0.000 HD
ATOM     59   O  BDP B   4       9.155   3.140  16.4690  0.00  0.00     0.000 O
ATOM     61  HD  BDP B   4       9.593   2.517  16.0570  0.00  0.00     0.000 HD
BRANCH 55 61
ATOM     61   C  BDP B   4      12.439   6.157  18.4220  0.00  0.00     0.000 C
ATOM     62   O  BDP B   4      12.826   7.318  18.7210  0.00  0.00     0.000 OA
ATOM     63   O  BDP B   4      12.790   5.113  19.0520  0.00  0.00     0.000 OA
ENDBRANCH 55 61
BRANCH 51 64
ATOM     64  O3  NAG B   5      12.296   5.423  13.7360  0.00  0.00     0.000 O
BRANCH 64 67
ATOM     65  C1  NAG B   5      13.865   8.194  11.8770  0.00  0.00     0.000 C
ATOM     66  C2  NAG B   5      12.812   7.171  12.2670  0.00  0.00     0.000 C
ATOM     67  C3  NAG B   5      13.207   6.492  13.5720  0.00  0.00     0.000 C
ATOM     68  C4  NAG B   5      14.637   5.938  13.4940  0.00  0.00     0.000 C
ATOM     69  C5  NAG B   5      15.602   7.007  13.0070  0.00  0.00     0.000 C
ATOM     70  O5  NAG B   5      15.126   7.571  11.7760  0.00  0.00     0.000 O
ATOM     71   O  NAG B   5      15.006   5.459  14.7700  0.00  0.00     0.000 O
ATOM     73  HD  NAG B   5      15.335   4.812  14.2980  0.00  0.00     0.000 HD
ATOM     73   C  NAG B   5      17.035   6.508  12.7760  0.00  0.00     0.000 C
ATOM     74   O  NAG B   5      17.041   5.529  11.7160  0.00  0.00     0.000 O
ATOM     76  HD  NAG B   5      17.371   4.882  11.2450  0.00  0.00     0.000 HD
BRANCH 66 78
ATOM     76   N  NAG B   5      11.497   7.810  12.4690  0.00  0.00     0.000 N
ATOM     78  HD  NAG B   5      11.880   7.316  11.8690  0.00  0.00     0.000 HD
ATOM     78   C  NAG B   5      10.389   7.580  11.7470  0.00  0.00     0.000 C
ATOM     79   C  NAG B   5       9.197   8.373  12.2090  0.00  0.00     0.000 C
ATOM     80   O  NAG B   5      10.353   6.771  10.7530  0.00  0.00     0.000 OA
ENDBRANCH 66 78
BRANCH 65 81
ATOM     81  O4  BDP B   6      13.521   8.802  10.6250  0.00  0.00     0.000 O
BRANCH 81 85
ATOM     82  C1  BDP B   6      13.900  12.534   8.5520  0.00  0.00     0.000 C
ATOM     83  C2  BDP B   6      15.183  11.778   8.8840  0.00  0.00     0.000 C
ATOM     84  C3  BDP B   6      14.934  10.310   9.2400  0.00  0.00     0.000 C
ATOM     85  C4  BDP B   6      13.861  10.157  10.3200  0.00  0.00     0.000 C
ATOM     86  C5  BDP B   6      12.631  10.991   9.8890  0.00  0.00     0.000 C
ATOM     87  O5  BDP B   6      12.983  12.387   9.6270  0.00  0.00     0.000 O
ATOM     88   O  BDP B   6      15.984  11.854   7.7070  0.00  0.00     0.000 O
ATOM     90  HD  BDP B   6      16.502  11.360   7.2200  0.00  0.00     0.000 HD
ATOM     90   O  BDP B   6      16.161   9.700   9.6470  0.00  0.00     0.000 O
ATOM     92  HD  BDP B   6      16.680   9.206   9.1600  0.00  0.00     0.000 HD
BRANCH 86 92
ATOM     92   C  BDP B   6      11.629  11.078  11.0150  0.00  0.00     0.000 C
ATOM     93   O  BDP B   6      10.394  11.169  10.7460  0.00  0.00     0.000 OA
ATOM     94   O  BDP B   6      12.077  11.032  12.2030  0.00  0.00     0.000 OA
ENDBRANCH 86 92
BRANCH 82 95
ATOM     95  O3  NAG B   7      14.217  13.934   8.4290  0.00  0.00     0.000 O
BRANCH 95 98
ATOM     96  C1  NAG B   7      13.636  16.576   5.9740  0.00  0.00     0.000 C
ATOM     97  C2  NAG B   7      14.442  15.751   6.9690  0.00  0.00     0.000 C
ATOM     98  C3  NAG B   7      13.447  14.746   7.5440  0.00  0.00     0.000 C
ATOM     99  C4  NAG B   7      12.300  15.485   8.2300  0.00  0.00     0.000 C
ATOM    100  C5  NAG B   7      11.656  16.496   7.2790  0.00  0.00     0.000 C
ATOM    101  O5  NAG B   7      12.671  17.320   6.7270  0.00  0.00     0.000 O
BRANCH 97 104
ATOM    102   N  NAG B   7      15.518  14.889   6.4600  0.00  0.00     0.000 N
ATOM    104  HD  NAG B   7      16.021  14.202   6.3030  0.00  0.00     0.000 HD
ATOM    104   O  NAG B   7      17.644  14.160   6.1830  0.00  0.00     0.000 OA
ATOM    105   C  NAG B   7      16.848  15.010   6.6280  0.00  0.00     0.000 C
ATOM    106   C  NAG B   7      17.380  16.183   7.3780  0.00  0.00     0.000 C
ENDBRANCH 97 104
ATOM    107   O  NAG B   7       9.865  17.992   7.0400  0.00  0.00     0.000 O
ATOM    109  HD  NAG B   7      10.357  17.406   6.6350  0.00  0.00     0.000 HD
ATOM    109   O  NAG B   7       9.865  17.992   7.0400  0.00  0.00     0.000 O
ATOM    111  HD  NAG B   7      10.357  17.406   6.6350  0.00  0.00     0.000 HD
ENDBRANCH 95 98
ENDBRANCH 82 95
ENDBRANCH 81 85
ENDBRANCH 65 81
ENDBRANCH 64 67
ENDBRANCH 51 64
ENDBRANCH 50 54
ENDBRANCH 34 50
ENDBRANCH 33 36
ENDBRANCH 20 33
ENDBRANCH 19 23
ENDBRANCH 1 19
TORSDOF 19
ENDMDL
MODEL 55
REMARK VINA RESULT:      -5.6      5.364      7.745
ROOT
ATOM      1  C1  NAG B   1      10.758   9.600  13.9660  0.00  0.00     0.000 C
ATOM      2  C2  NAG B   1      10.021   8.538  14.7770  0.00  0.00     0.000 C
ATOM      3  C3  NAG B   1       8.737   9.075  15.3750  0.00  0.00     0.000 C
ATOM      4  C4  NAG B   1       9.152  10.271  16.2250  0.00  0.00     0.000 C
ATOM      5  C5  NAG B   1       9.763  11.346  15.3170  0.00  0.00     0.000 C
ATOM      6  O5  NAG B   1      10.941  10.852  14.6460  0.00  0.00     0.000 O
ATOM      7   O  NAG B   1       8.053   8.085  16.1770  0.00  0.00     0.000 O
ATOM      9  HD  NAG B   1       8.400   7.606  15.5450  0.00  0.00     0.000 HD
ATOM      9   O  NAG B   1       8.026  10.800  16.9060  0.00  0.00     0.000 O
ATOM     11  HD  NAG B   1       8.374  10.321  16.2740  0.00  0.00     0.000 HD
ATOM     11   C  NAG B   1      10.061  12.611  16.1310  0.00  0.00     0.000 C
ATOM     12   O  NAG B   1      11.157  13.337  15.5770  0.00  0.00     0.000 O
ATOM     14  HD  NAG B   1      11.505  12.858  14.9450  0.00  0.00     0.000 HD
ENDROOT
BRANCH 2 16
ATOM     14   N  NAG B   1      10.524   7.179  15.0440  0.00  0.00     0.000 N
ATOM     16  HD  NAG B   1      10.279   6.395  15.3190  0.00  0.00     0.000 HD
ATOM     16   C  NAG B   1      10.354   6.152  14.1930  0.00  0.00     0.000 C
ATOM     17   C  NAG B   1       9.595   6.358  12.9090  0.00  0.00     0.000 C
ATOM     18   O  NAG B   1      10.831   5.042  14.4280  0.00  0.00     0.000 OA
ENDBRANCH 2 16
BRANCH 1 19
ATOM     19  O4  BDP B   2      12.057   9.045  13.8110  0.00  0.00     0.000 O
BRANCH 19 23
ATOM     20  C1  BDP B   2      13.982   9.388  10.1880  0.00  0.00     0.000 C
ATOM     21  C2  BDP B   2      12.487   9.634  10.1820  0.00  0.00     0.000 C
ATOM     22  C3  BDP B   2      11.969   9.896  11.5780  0.00  0.00     0.000 C
ATOM     23  C4  BDP B   2      12.411   8.748  12.4810  0.00  0.00     0.000 C
ATOM     24  C5  BDP B   2      13.919   8.606  12.4150  0.00  0.00     0.000 C
ATOM     25  O5  BDP B   2      14.311   8.334  11.0820  0.00  0.00     0.000 O
ATOM     26   O  BDP B   2      12.174  10.726   9.3460  0.00  0.00     0.000 O
ATOM     28  HD  BDP B   2      13.002  10.593   9.1270  0.00  0.00     0.000 HD
ATOM     28   O  BDP B   2      10.540  10.030  11.5360  0.00  0.00     0.000 O
ATOM     30  HD  BDP B   2      11.367   9.896  11.3170  0.00  0.00     0.000 HD
BRANCH 24 30
ATOM     30   C  BDP B   2      14.417   7.493  13.2660  0.00  0.00     0.000 C
ATOM     31   O  BDP B   2      15.128   7.798  14.2510  0.00  0.00     0.000 OA
ATOM     32   O  BDP B   2      14.107   6.309  12.9500  0.00  0.00     0.000 OA
ENDBRANCH 24 30
BRANCH 20 33
ATOM     33  O3  NAG B   3      14.265   8.982   8.8720  0.00  0.00     0.000 O
BRANCH 33 36
ATOM     34  C1  NAG B   3      17.364  10.081   7.0450  0.00  0.00     0.000 C
ATOM     35  C2  NAG B   3      15.929  10.123   7.5320  0.00  0.00     0.000 C
ATOM     36  C3  NAG B   3      15.666   9.040   8.5900  0.00  0.00     0.000 C
ATOM     37  C4  NAG B   3      16.118   7.686   8.0500  0.00  0.00     0.000 C
ATOM     38  C5  NAG B   3      17.542   7.780   7.5090  0.00  0.00     0.000 C
ATOM     39  O5  NAG B   3      17.616   8.788   6.5150  0.00  0.00     0.000 O
ATOM     40   O  NAG B   3      16.067   6.700   9.0930  0.00  0.00     0.000 O
ATOM     42  HD  NAG B   3      16.892   6.585   8.8550  0.00  0.00     0.000 HD
ATOM     42   C  NAG B   3      18.031   6.503   6.8300  0.00  0.00     0.000 C
ATOM     43   O  NAG B   3      17.257   6.264   5.6480  0.00  0.00     0.000 O
ATOM     45  HD  NAG B   3      18.082   6.150   5.4100  0.00  0.00     0.000 HD
BRANCH 35 47
ATOM     45   N  NAG B   3      15.028  11.129   6.9830  0.00  0.00     0.000 N
ATOM     47  HD  NAG B   3      14.883  10.339   6.6600  0.00  0.00     0.000 HD
ATOM     47   C  NAG B   3      14.528  12.114   7.7040  0.00  0.00     0.000 C
ATOM     48   C  NAG B   3      13.601  13.051   6.9880  0.00  0.00     0.000 C
ATOM     49   O  NAG B   3      14.784  12.241   8.8990  0.00  0.00     0.000 OA
ENDBRANCH 35 47
BRANCH 34 50
ATOM     50  O4  BDP B   4      17.396  11.049   6.0160  0.00  0.00     0.000 O
BRANCH 50 54
ATOM     51  C1  BDP B   4      19.511  14.175   4.4970  0.00  0.00     0.000 C
ATOM     52  C2  BDP B   4      20.020  12.802   4.0730  0.00  0.00     0.000 C
ATOM     53  C3  BDP B   4      18.964  11.784   4.3770  0.00  0.00     0.000 C
ATOM     54  C4  BDP B   4      18.568  11.870   5.8790  0.00  0.00     0.000 C
ATOM     55  C5  BDP B   4      18.257  13.295   6.3150  0.00  0.00     0.000 C
ATOM     56  O5  BDP B   4      19.291  14.181   5.8960  0.00  0.00     0.000 O
ATOM     57   O  BDP B   4      20.299  12.789   2.6890  0.00  0.00     0.000 O
ATOM     59  HD  BDP B   4      21.162  12.841   2.6400  0.00  0.00     0.000 HD
ATOM     59   O  BDP B   4      19.552  10.488   4.1450  0.00  0.00     0.000 O
ATOM     61  HD  BDP B   4      20.415  10.540   4.0960  0.00  0.00     0.000 HD
BRANCH 55 61
ATOM     61   C  BDP B   4      18.143  13.342   7.8280  0.00  0.00     0.000 C
ATOM     62   O  BDP B   4      18.952  12.652   8.5030  0.00  0.00     0.000 OA
ATOM     63   O  BDP B   4      17.242  14.073   8.3410  0.00  0.00     0.000 OA
ENDBRANCH 55 61
BRANCH 51 64
ATOM     64  O3  NAG B   5      20.520  15.136   4.1340  0.00  0.00     0.000 O
BRANCH 64 67
ATOM     65  C1  NAG B   5      19.313  18.553   3.4540  0.00  0.00     0.000 C
ATOM     66  C2  NAG B   5      19.524  17.062   3.2520  0.00  0.00     0.000 C
ATOM     67  C3  NAG B   5      20.168  16.458   4.4930  0.00  0.00     0.000 C
ATOM     68  C4  NAG B   5      21.431  17.233   4.8920  0.00  0.00     0.000 C
ATOM     69  C5  NAG B   5      21.143  18.723   4.9780  0.00  0.00     0.000 C
ATOM     70  O5  NAG B   5      20.541  19.176   3.7570  0.00  0.00     0.000 O
ATOM     71   O  NAG B   5      21.899  16.730   6.1250  0.00  0.00     0.000 O
ATOM     73  HD  NAG B   5      22.665  16.805   5.7280  0.00  0.00     0.000 HD
ATOM     73   C  NAG B   5      22.380  19.592   5.2470  0.00  0.00     0.000 C
ATOM     74   O  NAG B   5      23.298  19.482   4.1400  0.00  0.00     0.000 O
ATOM     76  HD  NAG B   5      24.064  19.557   3.7420  0.00  0.00     0.000 HD
BRANCH 66 78
ATOM     76   N  NAG B   5      18.173  16.657   2.8200  0.00  0.00     0.000 N
ATOM     78  HD  NAG B   5      18.990  16.529   2.5610  0.00  0.00     0.000 HD
ATOM     78   C  NAG B   5      17.886  15.718   1.9040  0.00  0.00     0.000 C
ATOM     79   C  NAG B   5      16.410  15.517   1.6930  0.00  0.00     0.000 C
ATOM     80   O  NAG B   5      18.784  15.062   1.2650  0.00  0.00     0.000 OA
ENDBRANCH 66 78
BRANCH 65 81
ATOM     81  O4  BDP B   6      18.750  19.136   2.2710  0.00  0.00     0.000 O
BRANCH 81 85
ATOM     82  C1  BDP B   6      15.980  22.267   1.3340  0.00  0.00     0.000 C
ATOM     83  C2  BDP B   6      17.463  22.547   1.1100  0.00  0.00     0.000 C
ATOM     84  C3  BDP B   6      18.311  21.273   1.0770  0.00  0.00     0.000 C
ATOM     85  C4  BDP B   6      18.054  20.383   2.2950  0.00  0.00     0.000 C
ATOM     86  C5  BDP B   6      16.524  20.202   2.4370  0.00  0.00     0.000 C
ATOM     87  O5  BDP B   6      15.826  21.487   2.5110  0.00  0.00     0.000 O
ATOM     88   O  BDP B   6      17.540  23.203  -0.1530  0.00  0.00     0.000 O
ATOM     90  HD  BDP B   6      18.021  23.211  -0.8730  0.00  0.00     0.000 HD
ATOM     90   O  BDP B   6      19.695  21.620   0.9790  0.00  0.00     0.000 O
ATOM     92  HD  BDP B   6      20.176  21.627   0.2590  0.00  0.00     0.000 HD
BRANCH 86 92
ATOM     92   C  BDP B   6      16.188  19.535   3.7490  0.00  0.00     0.000 C
ATOM     93   O  BDP B   6      16.215  20.215   4.8190  0.00  0.00     0.000 OA
ATOM     94   O  BDP B   6      15.868  18.307   3.7170  0.00  0.00     0.000 OA
ENDBRANCH 86 92
BRANCH 82 95
ATOM     95  O3  NAG B   7      15.308  23.524   1.5450  0.00  0.00     0.000 O
BRANCH 95 98
ATOM     96  C1  NAG B   7      12.699  25.558  -0.0030  0.00  0.00     0.000 C
ATOM     97  C2  NAG B   7      13.984  25.294   0.7690  0.00  0.00     0.000 C
ATOM     98  C3  NAG B   7      14.071  23.773   0.8770  0.00  0.00     0.000 C
ATOM     99  C4  NAG B   7      12.852  23.235   1.6220  0.00  0.00     0.000 C
ATOM    100  C5  NAG B   7      11.556  23.720   0.9690  0.00  0.00     0.000 C
ATOM    101  O5  NAG B   7      11.613  25.131   0.8270  0.00  0.00     0.000 O
BRANCH 97 104
ATOM    102   N  NAG B   7      15.245  25.682   0.1220  0.00  0.00     0.000 N
ATOM    104  HD  NAG B   7      16.037  25.653  -0.2270  0.00  0.00     0.000 HD
ATOM    104   O  NAG B   7      17.225  26.759  -0.0980  0.00  0.00     0.000 OA
ATOM    105   C  NAG B   7      16.165  26.576   0.5310  0.00  0.00     0.000 C
ATOM    106   C  NAG B   7      15.913  27.356   1.7760  0.00  0.00     0.000 C
ENDBRANCH 97 104
ATOM    107   O  NAG B   7       9.221  23.495   1.0050  0.00  0.00     0.000 O
ATOM    109  HD  NAG B   7       9.916  23.587   0.4970  0.00  0.00     0.000 HD
ATOM    109   O  NAG B   7       9.221  23.495   1.0050  0.00  0.00     0.000 O
ATOM    111  HD  NAG B   7       9.916  23.587   0.4970  0.00  0.00     0.000 HD
ENDBRANCH 95 98
ENDBRANCH 82 95
ENDBRANCH 81 85
ENDBRANCH 65 81
ENDBRANCH 64 67
ENDBRANCH 51 64
ENDBRANCH 50 54
ENDBRANCH 34 50
ENDBRANCH 33 36
ENDBRANCH 20 33
ENDBRANCH 19 23
ENDBRANCH 1 19
TORSDOF 19
ENDMDL
MODEL 56
REMARK VINA RESULT:      -5.6      7.635     15.903
ROOT
ATOM      1  C1  NAG B   1       8.237   7.911  16.7720  0.00  0.00     0.000 C
ATOM      2  C2  NAG B   1       8.497   7.088  18.0310  0.00  0.00     0.000 C
ATOM      3  C3  NAG B   1       7.829   7.692  19.2490  0.00  0.00     0.000 C
ATOM      4  C4  NAG B   1       8.383   9.109  19.3570  0.00  0.00     0.000 C
ATOM      5  C5  NAG B   1       7.965   9.908  18.1150  0.00  0.00     0.000 C
ATOM      6  O5  NAG B   1       8.500   9.316  16.9120  0.00  0.00     0.000 O
ATOM      7   O  NAG B   1       8.103   6.938  20.4520  0.00  0.00     0.000 O
ATOM      9  HD  NAG B   1       8.062   6.318  19.8490  0.00  0.00     0.000 HD
ATOM      9   O  NAG B   1       7.884   9.740  20.5240  0.00  0.00     0.000 O
ATOM     11  HD  NAG B   1       7.842   9.121  19.9210  0.00  0.00     0.000 HD
ATOM     11   C  NAG B   1       8.394  11.373  18.2670  0.00  0.00     0.000 C
ATOM     12   O  NAG B   1       8.643  11.973  16.9970  0.00  0.00     0.000 O
ATOM     14  HD  NAG B   1       8.601  11.354  16.3930  0.00  0.00     0.000 HD
ENDROOT
BRANCH 2 16
ATOM     14   N  NAG B   1       8.083   5.689  17.8180  0.00  0.00     0.000 N
ATOM     16  HD  NAG B   1       8.036   5.068  17.2160  0.00  0.00     0.000 HD
ATOM     16   C  NAG B   1       8.949   4.662  17.7930  0.00  0.00     0.000 C
ATOM     17   C  NAG B   1      10.423   4.918  17.9610  0.00  0.00     0.000 C
ATOM     18   O  NAG B   1       8.560   3.502  17.6620  0.00  0.00     0.000 OA
ENDBRANCH 2 16
BRANCH 1 19
ATOM     19  O4  BDP B   2       9.208   7.420  15.8580  0.00  0.00     0.000 O
BRANCH 19 23
ATOM     20  C1  BDP B   2      12.138   9.073  13.4870  0.00  0.00     0.000 C
ATOM     21  C2  BDP B   2      12.366   9.139  14.9830  0.00  0.00     0.000 C
ATOM     22  C3  BDP B   2      11.476   8.162  15.7160  0.00  0.00     0.000 C
ATOM     23  C4  BDP B   2      10.031   8.411  15.2910  0.00  0.00     0.000 C
ATOM     24  C5  BDP B   2       9.925   8.308  13.7820  0.00  0.00     0.000 C
ATOM     25  O5  BDP B   2      10.765   9.274  13.1810  0.00  0.00     0.000 O
ATOM     26   O  BDP B   2      13.718   8.870  15.2850  0.00  0.00     0.000 O
ATOM     28  HD  BDP B   2      13.765   8.969  14.4260  0.00  0.00     0.000 HD
ATOM     28   O  BDP B   2      11.658   8.326  17.1320  0.00  0.00     0.000 O
ATOM     30  HD  BDP B   2      11.705   8.424  16.2730  0.00  0.00     0.000 HD
BRANCH 24 30
ATOM     30   C  BDP B   2       8.541   8.552  13.2990  0.00  0.00     0.000 C
ATOM     31   O  BDP B   2       8.056   7.717  12.5000  0.00  0.00     0.000 OA
ATOM     32   O  BDP B   2       7.934   9.582  13.7080  0.00  0.00     0.000 OA
ENDBRANCH 24 30
BRANCH 20 33
ATOM     33  O3  NAG B   3      12.887  10.151  12.9810  0.00  0.00     0.000 O
BRANCH 33 36
ATOM     34  C1  NAG B   3      14.442  10.029   9.5580  0.00  0.00     0.000 C
ATOM     35  C2  NAG B   3      14.320   9.827  11.0560  0.00  0.00     0.000 C
ATOM     36  C3  NAG B   3      12.904  10.159  11.5510  0.00  0.00     0.000 C
ATOM     37  C4  NAG B   3      12.510  11.550  11.0600  0.00  0.00     0.000 C
ATOM     38  C5  NAG B   3      12.753  11.669   9.5580  0.00  0.00     0.000 C
ATOM     39  O5  NAG B   3      14.108  11.378   9.2630  0.00  0.00     0.000 O
ATOM     40   O  NAG B   3      11.123  11.795  11.3400  0.00  0.00     0.000 O
ATOM     42  HD  NAG B   3      11.108  11.963  10.4910  0.00  0.00     0.000 HD
ATOM     42   C  NAG B   3      12.509  13.069   9.0020  0.00  0.00     0.000 C
ATOM     43   O  NAG B   3      13.471  13.977   9.5520  0.00  0.00     0.000 O
ATOM     45  HD  NAG B   3      13.457  14.145   8.7030  0.00  0.00     0.000 HD
BRANCH 35 47
ATOM     45   N  NAG B   3      15.401   9.414  11.9410  0.00  0.00     0.000 N
ATOM     47  HD  NAG B   3      15.106  10.207  12.1230  0.00  0.00     0.000 HD
ATOM     47   C  NAG B   3      15.532   8.180  12.3860  0.00  0.00     0.000 C
ATOM     48   C  NAG B   3      16.690   7.929  13.3060  0.00  0.00     0.000 C
ATOM     49   O  NAG B   3      14.737   7.291  12.0870  0.00  0.00     0.000 OA
ENDBRANCH 35 47
BRANCH 34 50
ATOM     50  O4  BDP B   4      15.810   9.792   9.3000  0.00  0.00     0.000 O
BRANCH 50 54
ATOM     51  C1  BDP B   4      18.461   8.601   6.4520  0.00  0.00     0.000 C
ATOM     52  C2  BDP B   4      17.484   9.679   5.9950  0.00  0.00     0.000 C
ATOM     53  C3  BDP B   4      16.836  10.282   7.2030  0.00  0.00     0.000 C
ATOM     54  C4  BDP B   4      16.179   9.163   8.0610  0.00  0.00     0.000 C
ATOM     55  C5  BDP B   4      17.131   8.005   8.3300  0.00  0.00     0.000 C
ATOM     56  O5  BDP B   4      17.747   7.576   7.1190  0.00  0.00     0.000 O
ATOM     57   O  BDP B   4      18.165  10.686   5.2770  0.00  0.00     0.000 O
ATOM     59  HD  BDP B   4      17.980  10.526   4.4470  0.00  0.00     0.000 HD
ATOM     59   O  BDP B   4      15.787  11.151   6.7270  0.00  0.00     0.000 O
ATOM     61  HD  BDP B   4      15.602  10.991   5.8960  0.00  0.00     0.000 HD
BRANCH 55 61
ATOM     61   C  BDP B   4      16.354   6.848   8.9320  0.00  0.00     0.000 C
ATOM     62   O  BDP B   4      16.886   6.207   9.8760  0.00  0.00     0.000 OA
ATOM     63   O  BDP B   4      15.208   6.583   8.4580  0.00  0.00     0.000 OA
ENDBRANCH 55 61
BRANCH 51 64
ATOM     64  O3  NAG B   5      19.112   8.088   5.2740  0.00  0.00     0.000 O
BRANCH 64 67
ATOM     65  C1  NAG B   5      22.631   6.988   5.3130  0.00  0.00     0.000 C
ATOM     66  C2  NAG B   5      21.448   7.937   5.2380  0.00  0.00     0.000 C
ATOM     67  C3  NAG B   5      20.163   7.193   5.5800  0.00  0.00     0.000 C
ATOM     68  C4  NAG B   5      20.018   5.924   4.7290  0.00  0.00     0.000 C
ATOM     69  C5  NAG B   5      21.285   5.085   4.7940  0.00  0.00     0.000 C
ATOM     70  O5  NAG B   5      22.423   5.891   4.4530  0.00  0.00     0.000 O
ATOM     71   O  NAG B   5      18.899   5.197   5.1890  0.00  0.00     0.000 O
ATOM     73  HD  NAG B   5      18.765   5.099   4.3390  0.00  0.00     0.000 HD
ATOM     73   C  NAG B   5      21.279   3.858   3.8720  0.00  0.00     0.000 C
ATOM     74   O  NAG B   5      21.221   4.288   2.4960  0.00  0.00     0.000 O
ATOM     76  HD  NAG B   5      21.087   4.191   1.6460  0.00  0.00     0.000 HD
BRANCH 66 78
ATOM     76   N  NAG B   5      21.911   9.041   6.1010  0.00  0.00     0.000 N
ATOM     78  HD  NAG B   5      21.572   8.950   5.3090  0.00  0.00     0.000 HD
ATOM     78   C  NAG B   5      21.711  10.350   5.8820  0.00  0.00     0.000 C
ATOM     79   C  NAG B   5      22.290  11.232   6.9560  0.00  0.00     0.000 C
ATOM     80   O  NAG B   5      21.096  10.806   4.8540  0.00  0.00     0.000 OA
ENDBRANCH 66 78
BRANCH 65 81
ATOM     81  O4  BDP B   6      23.836   7.672   4.9470  0.00  0.00     0.000 O
BRANCH 81 85
ATOM     82  C1  BDP B   6      28.075   7.303   5.4550  0.00  0.00     0.000 C
ATOM     83  C2  BDP B   6      27.434   6.542   4.2980  0.00  0.00     0.000 C
ATOM     84  C3  BDP B   6      26.031   7.049   3.9560  0.00  0.00     0.000 C
ATOM     85  C4  BDP B   6      25.130   7.117   5.1910  0.00  0.00     0.000 C
ATOM     86  C5  BDP B   6      25.898   7.877   6.2990  0.00  0.00     0.000 C
ATOM     87  O5  BDP B   6      27.201   7.269   6.5750  0.00  0.00     0.000 O
ATOM     88   O  BDP B   6      28.300   6.745   3.1840  0.00  0.00     0.000 O
ATOM     90  HD  BDP B   6      28.266   6.911   2.3350  0.00  0.00     0.000 HD
ATOM     90   O  BDP B   6      25.453   6.219   2.9460  0.00  0.00     0.000 O
ATOM     92  HD  BDP B   6      25.420   6.385   2.0970  0.00  0.00     0.000 HD
BRANCH 86 92
ATOM     92   C  BDP B   6      25.168   7.775   7.6160  0.00  0.00     0.000 C
ATOM     93   O  BDP B   6      24.446   8.742   8.0060  0.00  0.00     0.000 OA
ATOM     94   O  BDP B   6      25.294   6.696   8.2740  0.00  0.00     0.000 OA
ENDBRANCH 86 92
BRANCH 82 95
ATOM     95  O3  NAG B   7      29.293   6.627   5.8240  0.00  0.00     0.000 O
BRANCH 95 98
ATOM     96  C1  NAG B   7      32.815   7.516   6.2040  0.00  0.00     0.000 C
ATOM     97  C2  NAG B   7      31.634   6.660   5.7670  0.00  0.00     0.000 C
ATOM     98  C3  NAG B   7      30.402   7.397   6.2880  0.00  0.00     0.000 C
ATOM     99  C4  NAG B   7      30.473   7.517   7.8090  0.00  0.00     0.000 C
ATOM    100  C5  NAG B   7      31.790   8.161   8.2440  0.00  0.00     0.000 C
ATOM    101  O5  NAG B   7      32.866   7.466   7.6340  0.00  0.00     0.000 O
BRANCH 97 104
ATOM    102   N  NAG B   7      31.384   6.535   4.3250  0.00  0.00     0.000 N
ATOM    104  HD  NAG B   7      31.002   6.556   3.5480  0.00  0.00     0.000 HD
ATOM    104   O  NAG B   7      31.130   5.470   2.3420  0.00  0.00     0.000 OA
ATOM    105   C  NAG B   7      31.427   5.433   3.5520  0.00  0.00     0.000 C
ATOM    106   C  NAG B   7      31.827   4.134   4.1650  0.00  0.00     0.000 C
ENDBRANCH 97 104
ATOM    107   O  NAG B   7      32.961   9.007  10.0930  0.00  0.00     0.000 O
ATOM    109  HD  NAG B   7      32.785   9.122   9.2530  0.00  0.00     0.000 HD
ATOM    109   O  NAG B   7      32.961   9.007  10.0930  0.00  0.00     0.000 O
ATOM    111  HD  NAG B   7      32.785   9.122   9.2530  0.00  0.00     0.000 HD
ENDBRANCH 95 98
ENDBRANCH 82 95
ENDBRANCH 81 85
ENDBRANCH 65 81
ENDBRANCH 64 67
ENDBRANCH 51 64
ENDBRANCH 50 54
ENDBRANCH 34 50
ENDBRANCH 33 36
ENDBRANCH 20 33
ENDBRANCH 19 23
ENDBRANCH 1 19
TORSDOF 19
ENDMDL
MODEL 57
REMARK VINA RESULT:      -5.6      7.809     11.891
ROOT
ATOM      1  C1  NAG B   1      19.038   5.688   4.5860  0.00  0.00     0.000 C
ATOM      2  C2  NAG B   1      18.328   4.874   3.5070  0.00  0.00     0.000 C
ATOM      3  C3  NAG B   1      18.968   5.060   2.1470  0.00  0.00     0.000 C
ATOM      4  C4  NAG B   1      18.915   6.560   1.8730  0.00  0.00     0.000 C
ATOM      5  C5  NAG B   1      19.760   7.293   2.9220  0.00  0.00     0.000 C
ATOM      6  O5  NAG B   1      19.246   7.069   4.2530  0.00  0.00     0.000 O
ATOM      7   O  NAG B   1      18.277   4.322   1.1130  0.00  0.00     0.000 O
ATOM      9  HD  NAG B   1      18.198   3.800   1.8000  0.00  0.00     0.000 HD
ATOM      9   O  NAG B   1      19.415   6.837   0.5750  0.00  0.00     0.000 O
ATOM     11  HD  NAG B   1      19.336   6.315   1.2620  0.00  0.00     0.000 HD
ATOM     11   C  NAG B   1      19.832   8.788   2.5850  0.00  0.00     0.000 C
ATOM     12   O  NAG B   1      19.996   9.577   3.7630  0.00  0.00     0.000 O
ATOM     14  HD  NAG B   1      19.917   9.055   4.4490  0.00  0.00     0.000 HD
ENDROOT
BRANCH 2 16
ATOM     14   N  NAG B   1      18.207   3.607   4.2500  0.00  0.00     0.000 N
ATOM     16  HD  NAG B   1      17.850   3.253   4.9550  0.00  0.00     0.000 HD
ATOM     16   C  NAG B   1      17.127   2.810   4.1720  0.00  0.00     0.000 C
ATOM     17   C  NAG B   1      15.956   3.213   3.3150  0.00  0.00     0.000 C
ATOM     18   O  NAG B   1      17.082   1.735   4.7690  0.00  0.00     0.000 OA
ENDBRANCH 2 16
BRANCH 1 19
ATOM     19  O4  BDP B   2      18.109   5.680   5.6610  0.00  0.00     0.000 O
BRANCH 19 23
ATOM     20  C1  BDP B   2      16.692   8.457   8.3490  0.00  0.00     0.000 C
ATOM     21  C2  BDP B   2      16.153   8.551   6.9360  0.00  0.00     0.000 C
ATOM     22  C3  BDP B   2      16.399   7.271   6.1690  0.00  0.00     0.000 C
ATOM     23  C4  BDP B   2      17.886   6.938   6.2510  0.00  0.00     0.000 C
ATOM     24  C5  BDP B   2      18.306   6.859   7.7060  0.00  0.00     0.000 C
ATOM     25  O5  BDP B   2      18.068   8.104   8.3360  0.00  0.00     0.000 O
ATOM     26   O  BDP B   2      14.770   8.834   6.9580  0.00  0.00     0.000 O
ATOM     28  HD  BDP B   2      14.973   8.976   7.7880  0.00  0.00     0.000 HD
ATOM     28   O  BDP B   2      15.958   7.440   4.8130  0.00  0.00     0.000 O
ATOM     30  HD  BDP B   2      16.161   7.582   5.6430  0.00  0.00     0.000 HD
BRANCH 24 30
ATOM     30   C  BDP B   2      19.752   6.548   7.8580  0.00  0.00     0.000 C
ATOM     31   O  BDP B   2      20.570   7.383   7.4060  0.00  0.00     0.000 OA
ATOM     32   O  BDP B   2      20.078   5.464   8.4210  0.00  0.00     0.000 OA
ENDBRANCH 24 30
BRANCH 20 33
ATOM     33  O3  NAG B   3      16.554   9.763   8.8530  0.00  0.00     0.000 O
BRANCH 33 36
ATOM     34  C1  NAG B   3      15.614  10.617  12.3940  0.00  0.00     0.000 C
ATOM     35  C2  NAG B   3      15.426  10.359  10.9110  0.00  0.00     0.000 C
ATOM     36  C3  NAG B   3      16.708   9.800  10.2740  0.00  0.00     0.000 C
ATOM     37  C4  NAG B   3      17.883  10.711  10.6200  0.00  0.00     0.000 C
ATOM     38  C5  NAG B   3      17.926  10.971  12.1240  0.00  0.00     0.000 C
ATOM     39  O5  NAG B   3      16.694  11.526  12.5530  0.00  0.00     0.000 O
ATOM     40   O  NAG B   3      19.116  10.101  10.2060  0.00  0.00     0.000 O
ATOM     42  HD  NAG B   3      19.320  10.242  11.0360  0.00  0.00     0.000 HD
ATOM     42   C  NAG B   3      18.993  11.978  12.5460  0.00  0.00     0.000 C
ATOM     43   O  NAG B   3      18.673  13.268  12.0090  0.00  0.00     0.000 O
ATOM     45  HD  NAG B   3      18.878  13.409  12.8390  0.00  0.00     0.000 HD
BRANCH 35 47
ATOM     45   N  NAG B   3      14.270   9.490  10.7350  0.00  0.00     0.000 N
ATOM     47  HD  NAG B   3      14.484   9.595  11.5670  0.00  0.00     0.000 HD
ATOM     47   C  NAG B   3      13.345   9.703   9.8200  0.00  0.00     0.000 C
ATOM     48   C  NAG B   3      12.210   8.723   9.7870  0.00  0.00     0.000 C
ATOM     49   O  NAG B   3      13.395  10.664   9.0550  0.00  0.00     0.000 OA
ENDBRANCH 35 47
BRANCH 34 50
ATOM     50  O4  BDP B   4      14.399  11.223  12.7830  0.00  0.00     0.000 O
BRANCH 50 54
ATOM     51  C1  BDP B   4      12.140  12.103  16.0510  0.00  0.00     0.000 C
ATOM     52  C2  BDP B   4      13.643  12.230  16.2690  0.00  0.00     0.000 C
ATOM     53  C3  BDP B   4      14.322  12.252  14.9340  0.00  0.00     0.000 C
ATOM     54  C4  BDP B   4      13.911  10.993  14.1160  0.00  0.00     0.000 C
ATOM     55  C5  BDP B   4      12.403  10.788  14.0880  0.00  0.00     0.000 C
ATOM     56  O5  BDP B   4      11.864  10.873  15.4040  0.00  0.00     0.000 O
ATOM     57   O  BDP B   4      13.938  13.424  16.9630  0.00  0.00     0.000 O
ATOM     59  HD  BDP B   4      14.100  13.170  17.7750  0.00  0.00     0.000 HD
ATOM     59   O  BDP B   4      15.740  12.177  15.1830  0.00  0.00     0.000 O
ATOM     61  HD  BDP B   4      15.903  11.923  15.9940  0.00  0.00     0.000 HD
BRANCH 55 61
ATOM     61   C  BDP B   4      12.095   9.417  13.5110  0.00  0.00     0.000 C
ATOM     62   O  BDP B   4      13.003   8.546  13.5410  0.00  0.00     0.000 OA
ATOM     63   O  BDP B   4      10.939   9.214  13.0290  0.00  0.00     0.000 OA
ENDBRANCH 55 61
BRANCH 51 64
ATOM     64  O3  NAG B   5      11.514  12.150  17.3470  0.00  0.00     0.000 O
BRANCH 64 67
ATOM     65  C1  NAG B   5       8.400  13.961  18.1310  0.00  0.00     0.000 C
ATOM     66  C2  NAG B   5       9.889  13.722  17.9530  0.00  0.00     0.000 C
ATOM     67  C3  NAG B   5      10.121  12.380  17.2710  0.00  0.00     0.000 C
ATOM     68  C4  NAG B   5       9.377  11.254  18.0030  0.00  0.00     0.000 C
ATOM     69  C5  NAG B   5       7.918  11.624  18.2160  0.00  0.00     0.000 C
ATOM     70  O5  NAG B   5       7.827  12.902  18.8630  0.00  0.00     0.000 O
ATOM     71   O  NAG B   5       9.499  10.067  17.2490  0.00  0.00     0.000 O
ATOM     73  HD  NAG B   5       9.625   9.724  18.0350  0.00  0.00     0.000 HD
ATOM     73   C  NAG B   5       7.124  10.611  19.0540  0.00  0.00     0.000 C
ATOM     74   O  NAG B   5       7.665  10.560  20.3900  0.00  0.00     0.000 O
ATOM     76  HD  NAG B   5       7.792  10.217  21.1760  0.00  0.00     0.000 HD
BRANCH 66 78
ATOM     76   N  NAG B   5      10.359  14.905  17.2070  0.00  0.00     0.000 N
ATOM     78  HD  NAG B   5      10.531  14.519  17.9630  0.00  0.00     0.000 HD
ATOM     78   C  NAG B   5      11.440  15.645  17.5010  0.00  0.00     0.000 C
ATOM     79   C  NAG B   5      11.669  16.780  16.5390  0.00  0.00     0.000 C
ATOM     80   O  NAG B   5      12.198  15.413  18.5090  0.00  0.00     0.000 OA
ENDBRANCH 66 78
BRANCH 65 81
ATOM     81  O4  BDP B   6       8.178  15.202  18.8140  0.00  0.00     0.000 O
BRANCH 81 85
ATOM     82  C1  BDP B   6       5.128  18.173  19.2980  0.00  0.00     0.000 C
ATOM     83  C2  BDP B   6       4.716  16.710  19.4390  0.00  0.00     0.000 C
ATOM     84  C3  BDP B   6       5.909  15.775  19.6570  0.00  0.00     0.000 C
ATOM     85  C4  BDP B   6       7.000  15.984  18.6050  0.00  0.00     0.000 C
ATOM     86  C5  BDP B   6       7.304  17.500  18.5300  0.00  0.00     0.000 C
ATOM     87  O5  BDP B   6       6.098  18.286  18.2670  0.00  0.00     0.000 O
ATOM     88   O  BDP B   6       3.860  16.664  20.5770  0.00  0.00     0.000 O
ATOM     90  HD  BDP B   6       3.704  16.176  21.2750  0.00  0.00     0.000 HD
ATOM     90   O  BDP B   6       5.459  14.418  19.6640  0.00  0.00     0.000 O
ATOM     92  HD  BDP B   6       5.302  13.929  20.3620  0.00  0.00     0.000 HD
BRANCH 86 92
ATOM     92   C  BDP B   6       8.196  17.804  17.3510  0.00  0.00     0.000 C
ATOM     93   O  BDP B   6       9.028  18.757  17.4280  0.00  0.00     0.000 OA
ATOM     94   O  BDP B   6       8.086  17.062  16.3260  0.00  0.00     0.000 OA
ENDBRANCH 86 92
BRANCH 82 95
ATOM     95  O3  NAG B   7       3.970  18.934  18.9030  0.00  0.00     0.000 O
BRANCH 95 98
ATOM     96  C1  NAG B   7       2.331  22.011  19.9930  0.00  0.00     0.000 C
ATOM     97  C2  NAG B   7       2.409  20.557  19.5460  0.00  0.00     0.000 C
ATOM     98  C3  NAG B   7       3.889  20.313  19.2600  0.00  0.00     0.000 C
ATOM     99  C4  NAG B   7       4.369  21.261  18.1630  0.00  0.00     0.000 C
ATOM    100  C5  NAG B   7       4.055  22.714  18.5220  0.00  0.00     0.000 C
ATOM    101  O5  NAG B   7       2.681  22.818  18.8630  0.00  0.00     0.000 O
BRANCH 97 104
ATOM    102   N  NAG B   7       2.126  19.457  20.4780  0.00  0.00     0.000 N
ATOM    104  HD  NAG B   7       2.167  18.705  20.9050  0.00  0.00     0.000 HD
ATOM    104   O  NAG B   7       0.931  17.769  21.4020  0.00  0.00     0.000 OA
ATOM    105   C  NAG B   7       1.006  18.718  20.5970  0.00  0.00     0.000 C
ATOM    106   C  NAG B   7      -0.167  19.036  19.7340  0.00  0.00     0.000 C
ENDBRANCH 97 104
ATOM    107   O  NAG B   7       4.390  24.940  17.8600  0.00  0.00     0.000 O
ATOM    109  HD  NAG B   7       4.341  24.402  18.5370  0.00  0.00     0.000 HD
ATOM    109   O  NAG B   7       4.390  24.940  17.8600  0.00  0.00     0.000 O
ATOM    111  HD  NAG B   7       4.341  24.402  18.5370  0.00  0.00     0.000 HD
ENDBRANCH 95 98
ENDBRANCH 82 95
ENDBRANCH 81 85
ENDBRANCH 65 81
ENDBRANCH 64 67
ENDBRANCH 51 64
ENDBRANCH 50 54
ENDBRANCH 34 50
ENDBRANCH 33 36
ENDBRANCH 20 33
ENDBRANCH 19 23
ENDBRANCH 1 19
TORSDOF 19
ENDMDL
MODEL 58
REMARK VINA RESULT:      -5.6      4.923     11.671
ROOT
ATOM      1  C1  NAG B   1       8.237  14.912  19.6310  0.00  0.00     0.000 C
ATOM      2  C2  NAG B   1       7.777  16.366  19.6890  0.00  0.00     0.000 C
ATOM      3  C3  NAG B   1       8.427  17.206  18.6090  0.00  0.00     0.000 C
ATOM      4  C4  NAG B   1       9.930  17.062  18.8280  0.00  0.00     0.000 C
ATOM      5  C5  NAG B   1      10.330  15.596  18.6220  0.00  0.00     0.000 C
ATOM      6  O5  NAG B   1       9.661  14.736  19.5700  0.00  0.00     0.000 O
ATOM      7   O  NAG B   1       8.026  18.594  18.6820  0.00  0.00     0.000 O
ATOM      9  HD  NAG B   1       7.307  18.178  18.9280  0.00  0.00     0.000 HD
ATOM      9   O  NAG B   1      10.637  17.886  17.9160  0.00  0.00     0.000 O
ATOM     11  HD  NAG B   1       9.918  17.470  18.1620  0.00  0.00     0.000 HD
ATOM     11   C  NAG B   1      11.854  15.453  18.7030  0.00  0.00     0.000 C
ATOM     12   O  NAG B   1      12.229  14.158  19.1690  0.00  0.00     0.000 O
ATOM     14  HD  NAG B   1      11.510  13.742  19.4150  0.00  0.00     0.000 HD
ENDROOT
BRANCH 2 16
ATOM     14   N  NAG B   1       6.336  16.655  19.5800  0.00  0.00     0.000 N
ATOM     16  HD  NAG B   1       5.553  16.292  19.6490  0.00  0.00     0.000 HD
ATOM     16   C  NAG B   1       5.548  16.872  20.6470  0.00  0.00     0.000 C
ATOM     17   C  NAG B   1       6.125  16.797  22.0360  0.00  0.00     0.000 C
ATOM     18   O  NAG B   1       4.359  17.160  20.5140  0.00  0.00     0.000 OA
ENDBRANCH 2 16
BRANCH 1 19
ATOM     19  O4  BDP B   2       7.832  14.394  20.8910  0.00  0.00     0.000 O
BRANCH 19 23
ATOM     20  C1  BDP B   2       7.558  10.475  19.6600  0.00  0.00     0.000 C
ATOM     21  C2  BDP B   2       6.324  11.331  19.4630  0.00  0.00     0.000 C
ATOM     22  C3  BDP B   2       6.658  12.803  19.5470  0.00  0.00     0.000 C
ATOM     23  C4  BDP B   2       7.393  13.057  20.8600  0.00  0.00     0.000 C
ATOM     24  C5  BDP B   2       8.610  12.157  20.9400  0.00  0.00     0.000 C
ATOM     25  O5  BDP B   2       8.203  10.803  20.8830  0.00  0.00     0.000 O
ATOM     26   O  BDP B   2       5.728  11.049  18.2150  0.00  0.00     0.000 O
ATOM     28  HD  BDP B   2       6.293  10.395  18.2700  0.00  0.00     0.000 HD
ATOM     28   O  BDP B   2       5.448  13.569  19.4480  0.00  0.00     0.000 O
ATOM     30  HD  BDP B   2       6.013  12.916  19.5040  0.00  0.00     0.000 HD
BRANCH 24 30
ATOM     30   C  BDP B   2       9.368  12.346  22.2050  0.00  0.00     0.000 C
ATOM     31   O  BDP B   2       8.761  12.119  23.2770  0.00  0.00     0.000 OA
ATOM     32   O  BDP B   2      10.570  12.731  22.1340  0.00  0.00     0.000 OA
ENDBRANCH 24 30
BRANCH 20 33
ATOM     33  O3  NAG B   3       7.055   9.164  19.7400  0.00  0.00     0.000 O
BRANCH 33 36
ATOM     34  C1  NAG B   3       9.278   6.377  18.5400  0.00  0.00     0.000 C
ATOM     35  C2  NAG B   3       8.324   7.554  18.4530  0.00  0.00     0.000 C
ATOM     36  C3  NAG B   3       8.105   8.199  19.8300  0.00  0.00     0.000 C
ATOM     37  C4  NAG B   3       7.701   7.122  20.8340  0.00  0.00     0.000 C
ATOM     38  C5  NAG B   3       8.679   5.951  20.7770  0.00  0.00     0.000 C
ATOM     39  O5  NAG B   3       8.740   5.436  19.4580  0.00  0.00     0.000 O
ATOM     40   O  NAG B   3       7.688   7.668  22.1620  0.00  0.00     0.000 O
ATOM     42  HD  NAG B   3       8.217   6.998  22.3100  0.00  0.00     0.000 HD
ATOM     42   C  NAG B   3       8.279   4.769  21.6560  0.00  0.00     0.000 C
ATOM     43   O  NAG B   3       7.065   4.192  21.1600  0.00  0.00     0.000 O
ATOM     45  HD  NAG B   3       7.594   3.523  21.3080  0.00  0.00     0.000 HD
BRANCH 35 47
ATOM     45   N  NAG B   3       8.833   8.474  17.4450  0.00  0.00     0.000 N
ATOM     47  HD  NAG B   3       9.376   7.818  17.6010  0.00  0.00     0.000 HD
ATOM     47   C  NAG B   3       8.061   9.050  16.5440  0.00  0.00     0.000 C
ATOM     48   C  NAG B   3       8.749   9.955  15.5660  0.00  0.00     0.000 C
ATOM     49   O  NAG B   3       6.852   8.837  16.4910  0.00  0.00     0.000 OA
ENDBRANCH 35 47
BRANCH 34 50
ATOM     50  O4  BDP B   4       9.274   5.846  17.2320  0.00  0.00     0.000 O
BRANCH 50 54
ATOM     51  C1  BDP B   4      12.098   5.682  14.3070  0.00  0.00     0.000 C
ATOM     52  C2  BDP B   4      11.371   4.366  14.5580  0.00  0.00     0.000 C
ATOM     53  C3  BDP B   4      10.137   4.645  15.3610  0.00  0.00     0.000 C
ATOM     54  C4  BDP B   4      10.519   5.409  16.6620  0.00  0.00     0.000 C
ATOM     55  C5  BDP B   4      11.415   6.609  16.3870  0.00  0.00     0.000 C
ATOM     56  O5  BDP B   4      12.503   6.236  15.5460  0.00  0.00     0.000 O
ATOM     57   O  BDP B   4      11.006   3.767  13.3330  0.00  0.00     0.000 O
ATOM     59  HD  BDP B   4      11.583   3.131  13.2210  0.00  0.00     0.000 HD
ATOM     59   O  BDP B   4       9.586   3.368  15.7410  0.00  0.00     0.000 O
ATOM     61  HD  BDP B   4      10.163   2.732  15.6280  0.00  0.00     0.000 HD
BRANCH 55 61
ATOM     61   C  BDP B   4      11.959   7.139  17.7020  0.00  0.00     0.000 C
ATOM     62   O  BDP B   4      12.542   6.329  18.4690  0.00  0.00     0.000 OA
ATOM     63   O  BDP B   4      11.803   8.370  17.9640  0.00  0.00     0.000 OA
ENDBRANCH 55 61
BRANCH 51 64
ATOM     64  O3  NAG B   5      13.241   5.388  13.4810  0.00  0.00     0.000 O
BRANCH 64 67
ATOM     65  C1  NAG B   5      14.434   8.259  11.4980  0.00  0.00     0.000 C
ATOM     66  C2  NAG B   5      13.499   7.159  11.9720  0.00  0.00     0.000 C
ATOM     67  C3  NAG B   5      14.048   6.525  13.2440  0.00  0.00     0.000 C
ATOM     68  C4  NAG B   5      15.506   6.085  13.0560  0.00  0.00     0.000 C
ATOM     69  C5  NAG B   5      16.342   7.224  12.4930  0.00  0.00     0.000 C
ATOM     70  O5  NAG B   5      15.729   7.738  11.3010  0.00  0.00     0.000 O
ATOM     71   O  NAG B   5      16.010   5.648  14.3000  0.00  0.00     0.000 O
ATOM     73  HD  NAG B   5      16.353   5.025  13.8060  0.00  0.00     0.000 HD
ATOM     73   C  NAG B   5      17.789   6.838  12.1520  0.00  0.00     0.000 C
ATOM     74   O  NAG B   5      17.791   5.854  11.0970  0.00  0.00     0.000 O
ATOM     76  HD  NAG B   5      18.134   5.231  10.6030  0.00  0.00     0.000 HD
BRANCH 66 78
ATOM     76   N  NAG B   5      12.203   7.860  12.0410  0.00  0.00     0.000 N
ATOM     78  HD  NAG B   5      12.520   7.142  11.6750  0.00  0.00     0.000 HD
ATOM     78   C  NAG B   5      11.019   7.369  11.6410  0.00  0.00     0.000 C
ATOM     79   C  NAG B   5       9.872   8.319  11.8590  0.00  0.00     0.000 C
ATOM     80   O  NAG B   5      10.879   6.207  11.1170  0.00  0.00     0.000 OA
ENDBRANCH 66 78
BRANCH 65 81
ATOM     81  O4  BDP B   6      13.946   8.827  10.2760  0.00  0.00     0.000 O
BRANCH 81 85
ATOM     82  C1  BDP B   6      14.071  12.522   8.1080  0.00  0.00     0.000 C
ATOM     83  C2  BDP B   6      15.266  11.582   7.9710  0.00  0.00     0.000 C
ATOM     84  C3  BDP B   6      14.958  10.155   8.4320  0.00  0.00     0.000 C
ATOM     85  C4  BDP B   6      14.340  10.127   9.8320  0.00  0.00     0.000 C
ATOM     86  C5  BDP B   6      13.170  11.139   9.8560  0.00  0.00     0.000 C
ATOM     87  O5  BDP B   6      13.597  12.478   9.4470  0.00  0.00     0.000 O
ATOM     88   O  BDP B   6      15.587  11.576   6.5820  0.00  0.00     0.000 O
ATOM     90  HD  BDP B   6      15.817  11.027   5.9530  0.00  0.00     0.000 HD
ATOM     90   O  BDP B   6      16.149   9.367   8.3820  0.00  0.00     0.000 O
ATOM     92  HD  BDP B   6      16.379   8.818   7.7520  0.00  0.00     0.000 HD
BRANCH 86 92
ATOM     92   C  BDP B   6      12.669  11.337  11.2660  0.00  0.00     0.000 C
ATOM     93   O  BDP B   6      13.461  11.776  12.1540  0.00  0.00     0.000 OA
ATOM     94   O  BDP B   6      11.449  11.070  11.4980  0.00  0.00     0.000 OA
ENDBRANCH 86 92
BRANCH 82 95
ATOM     95  O3  NAG B   7      14.518  13.866   7.8410  0.00  0.00     0.000 O
BRANCH 95 98
ATOM     96  C1  NAG B   7      13.773  16.711   5.6750  0.00  0.00     0.000 C
ATOM     97  C2  NAG B   7      14.635  15.826   6.5660  0.00  0.00     0.000 C
ATOM     98  C3  NAG B   7      13.694  14.728   7.0580  0.00  0.00     0.000 C
ATOM     99  C4  NAG B   7      12.537  15.348   7.8370  0.00  0.00     0.000 C
ATOM    100  C5  NAG B   7      11.830  16.420   7.0060  0.00  0.00     0.000 C
ATOM    101  O5  NAG B   7      12.798  17.336   6.5180  0.00  0.00     0.000 O
BRANCH 97 104
ATOM    102   N  NAG B   7      15.731  15.009   6.0280  0.00  0.00     0.000 N
ATOM    104  HD  NAG B   7      16.286  14.358   5.8910  0.00  0.00     0.000 HD
ATOM    104   O  NAG B   7      17.876  14.455   5.5580  0.00  0.00     0.000 OA
ATOM    105   C  NAG B   7      17.050  15.279   5.9970  0.00  0.00     0.000 C
ATOM    106   C  NAG B   7      17.533  16.591   6.5140  0.00  0.00     0.000 C
ENDBRANCH 97 104
ATOM    107   O  NAG B   7       9.976  17.856   6.9550  0.00  0.00     0.000 O
ATOM    109  HD  NAG B   7      10.481  17.334   6.4830  0.00  0.00     0.000 HD
ATOM    109   O  NAG B   7       9.976  17.856   6.9550  0.00  0.00     0.000 O
ATOM    111  HD  NAG B   7      10.481  17.334   6.4830  0.00  0.00     0.000 HD
ENDBRANCH 95 98
ENDBRANCH 82 95
ENDBRANCH 81 85
ENDBRANCH 65 81
ENDBRANCH 64 67
ENDBRANCH 51 64
ENDBRANCH 50 54
ENDBRANCH 34 50
ENDBRANCH 33 36
ENDBRANCH 20 33
ENDBRANCH 19 23
ENDBRANCH 1 19
TORSDOF 19
ENDMDL
MODEL 59
REMARK VINA RESULT:      -5.5      3.474      6.554
ROOT
ATOM      1  C1  NAG B   1       5.207   9.048  18.3110  0.00  0.00     0.000 C
ATOM      2  C2  NAG B   1       5.097   9.914  19.5630  0.00  0.00     0.000 C
ATOM      3  C3  NAG B   1       3.731   9.800  20.2090  0.00  0.00     0.000 C
ATOM      4  C4  NAG B   1       2.734  10.209  19.1290  0.00  0.00     0.000 C
ATOM      5  C5  NAG B   1       2.816   9.213  17.9650  0.00  0.00     0.000 C
ATOM      6  O5  NAG B   1       4.133   9.212  17.3730  0.00  0.00     0.000 O
ATOM      7   O  NAG B   1       3.606  10.648  21.3730  0.00  0.00     0.000 O
ATOM      9  HD  NAG B   1       4.436  10.402  21.4090  0.00  0.00     0.000 HD
ATOM      9   O  NAG B   1       1.419  10.221  19.6590  0.00  0.00     0.000 O
ATOM     11  HD  NAG B   1       2.248   9.976  19.6950  0.00  0.00     0.000 HD
ATOM     11   C  NAG B   1       1.728   9.525  16.9310  0.00  0.00     0.000 C
ATOM     12   O  NAG B   1       2.129   9.129  15.6210  0.00  0.00     0.000 O
ATOM     14  HD  NAG B   1       2.959   8.883  15.6570  0.00  0.00     0.000 HD
ENDROOT
BRANCH 2 16
ATOM     14   N  NAG B   1       6.198   9.569  20.4790  0.00  0.00     0.000 N
ATOM     16  HD  NAG B   1       7.034   9.341  20.4980  0.00  0.00     0.000 HD
ATOM     16   C  NAG B   1       7.160  10.439  20.8330  0.00  0.00     0.000 C
ATOM     17   C  NAG B   1       7.158  11.833  20.2640  0.00  0.00     0.000 C
ATOM     18   O  NAG B   1       8.036  10.129  21.6400  0.00  0.00     0.000 OA
ENDBRANCH 2 16
BRANCH 1 19
ATOM     19  O4  BDP B   2       6.369   9.555  17.6680  0.00  0.00     0.000 O
BRANCH 19 23
ATOM     20  C1  BDP B   2       9.010   8.183  14.8250  0.00  0.00     0.000 C
ATOM     21  C2  BDP B   2       7.612   8.510  14.3430  0.00  0.00     0.000 C
ATOM     22  C3  BDP B   2       6.878   9.378  15.3390  0.00  0.00     0.000 C
ATOM     23  C4  BDP B   2       6.926   8.695  16.7030  0.00  0.00     0.000 C
ATOM     24  C5  BDP B   2       8.370   8.430  17.0830  0.00  0.00     0.000 C
ATOM     25  O5  BDP B   2       8.968   7.589  16.1150  0.00  0.00     0.000 O
ATOM     26   O  BDP B   2       7.666   9.162  13.0920  0.00  0.00     0.000 O
ATOM     28  HD  BDP B   2       8.484   8.889  13.1620  0.00  0.00     0.000 HD
ATOM     28   O  BDP B   2       5.531   9.584  14.8860  0.00  0.00     0.000 O
ATOM     30  HD  BDP B   2       6.349   9.310  14.9560  0.00  0.00     0.000 HD
BRANCH 24 30
ATOM     30   C  BDP B   2       8.488   7.753  18.4020  0.00  0.00     0.000 C
ATOM     31   O  BDP B   2       9.303   8.234  19.2230  0.00  0.00     0.000 OA
ATOM     32   O  BDP B   2       7.774   6.733  18.6200  0.00  0.00     0.000 OA
ENDBRANCH 24 30
BRANCH 20 33
ATOM     33  O3  NAG B   3       9.478   7.236  13.8960  0.00  0.00     0.000 O
BRANCH 33 36
ATOM     34  C1  NAG B   3      12.989   7.233  12.5460  0.00  0.00     0.000 C
ATOM     35  C2  NAG B   3      11.509   7.557  12.6170  0.00  0.00     0.000 C
ATOM     36  C3  NAG B   3      10.900   7.098  13.9510  0.00  0.00     0.000 C
ATOM     37  C4  NAG B   3      11.246   5.630  14.1870  0.00  0.00     0.000 C
ATOM     38  C5  NAG B   3      12.744   5.404  14.0070  0.00  0.00     0.000 C
ATOM     39  O5  NAG B   3      13.147   5.832  12.7170  0.00  0.00     0.000 O
ATOM     40   O  NAG B   3      10.860   5.241  15.5140  0.00  0.00     0.000 O
ATOM     42  HD  NAG B   3      11.689   4.995  15.5500  0.00  0.00     0.000 HD
ATOM     42   C  NAG B   3      13.162   3.938  14.0960  0.00  0.00     0.000 C
ATOM     43   O  NAG B   3      12.597   3.211  12.9980  0.00  0.00     0.000 O
ATOM     45  HD  NAG B   3      13.427   2.965  13.0330  0.00  0.00     0.000 HD
BRANCH 35 47
ATOM     45   N  NAG B   3      10.894   8.237  11.4840  0.00  0.00     0.000 N
ATOM     47  HD  NAG B   3      10.706   7.392  11.5080  0.00  0.00     0.000 HD
ATOM     47   C  NAG B   3      10.403   9.457  11.5610  0.00  0.00     0.000 C
ATOM     48   C  NAG B   3       9.786  10.002  10.3070  0.00  0.00     0.000 C
ATOM     49   O  NAG B   3      10.423  10.103  12.6070  0.00  0.00     0.000 OA
ENDBRANCH 35 47
BRANCH 34 50
ATOM     50  O4  BDP B   4      13.351   7.613  11.2350  0.00  0.00     0.000 O
BRANCH 50 54
ATOM     51  C1  BDP B   4      15.706  10.570   9.7310  0.00  0.00     0.000 C
ATOM     52  C2  BDP B   4      15.988   9.186   9.1590  0.00  0.00     0.000 C
ATOM     53  C3  BDP B   4      14.841   8.284   9.4970  0.00  0.00     0.000 C
ATOM     54  C4  BDP B   4      14.603   8.291  11.0350  0.00  0.00     0.000 C
ATOM     55  C5  BDP B   4      14.525   9.702  11.6020  0.00  0.00     0.000 C
ATOM     56  O5  BDP B   4      15.623  10.485  11.1420  0.00  0.00     0.000 O
ATOM     57   O  BDP B   4      16.131   9.254   7.7560  0.00  0.00     0.000 O
ATOM     59  HD  BDP B   4      16.985   9.203   7.6210  0.00  0.00     0.000 HD
ATOM     59   O  BDP B   4      15.228   6.949   9.1130  0.00  0.00     0.000 O
ATOM     61  HD  BDP B   4      16.082   6.898   8.9780  0.00  0.00     0.000 HD
BRANCH 55 61
ATOM     61   C  BDP B   4      14.562   9.635  13.1180  0.00  0.00     0.000 C
ATOM     62   O  BDP B   4      13.606  10.149  13.7560  0.00  0.00     0.000 OA
ATOM     63   O  BDP B   4      15.550   9.062  13.6710  0.00  0.00     0.000 OA
ENDBRANCH 55 61
BRANCH 51 64
ATOM     64  O3  NAG B   5      16.794  11.426   9.3330  0.00  0.00     0.000 O
BRANCH 64 67
ATOM     65  C1  NAG B   5      16.130  15.049   9.5050  0.00  0.00     0.000 C
ATOM     66  C2  NAG B   5      16.026  13.615   9.0160  0.00  0.00     0.000 C
ATOM     67  C3  NAG B   5      16.759  12.686   9.9760  0.00  0.00     0.000 C
ATOM     68  C4  NAG B   5      18.193  13.172  10.2270  0.00  0.00     0.000 C
ATOM     69  C5  NAG B   5      18.201  14.640  10.6210  0.00  0.00     0.000 C
ATOM     70  O5  NAG B   5      17.485  15.412   9.6460  0.00  0.00     0.000 O
ATOM     71   O  NAG B   5      18.772  12.369  11.2330  0.00  0.00     0.000 O
ATOM     73  HD  NAG B   5      19.456  12.409  10.7030  0.00  0.00     0.000 HD
ATOM     73   C  NAG B   5      19.603  15.247  10.7690  0.00  0.00     0.000 C
ATOM     74   O  NAG B   5      20.275  15.229   9.4920  0.00  0.00     0.000 O
ATOM     76  HD  NAG B   5      20.959  15.270   8.9610  0.00  0.00     0.000 HD
BRANCH 66 78
ATOM     76   N  NAG B   5      15.196  13.341   7.8280  0.00  0.00     0.000 N
ATOM     78  HD  NAG B   5      15.178  13.156   8.6740  0.00  0.00     0.000 HD
ATOM     78   C  NAG B   5      13.958  12.822   7.8330  0.00  0.00     0.000 C
ATOM     79   C  NAG B   5      13.362  12.679   6.4580  0.00  0.00     0.000 C
ATOM     80   O  NAG B   5      13.346  12.473   8.9050  0.00  0.00     0.000 OA
ENDBRANCH 66 78
BRANCH 65 81
ATOM     81  O4  BDP B   6      15.482  15.933   8.5810  0.00  0.00     0.000 O
BRANCH 81 85
ATOM     82  C1  BDP B   6      12.979  19.410   8.5480  0.00  0.00     0.000 C
ATOM     83  C2  BDP B   6      14.437  19.595   8.9570  0.00  0.00     0.000 C
ATOM     84  C3  BDP B   6      15.323  18.415   8.5500  0.00  0.00     0.000 C
ATOM     85  C4  BDP B   6      14.743  17.077   9.0140  0.00  0.00     0.000 C
ATOM     86  C5  BDP B   6      13.261  17.023   8.5740  0.00  0.00     0.000 C
ATOM     87  O5  BDP B   6      12.504  18.176   9.0650  0.00  0.00     0.000 O
ATOM     88   O  BDP B   6      14.874  20.773   8.2850  0.00  0.00     0.000 O
ATOM     90  HD  BDP B   6      15.558  21.079   7.8500  0.00  0.00     0.000 HD
ATOM     90   O  BDP B   6      16.644  18.607   9.0640  0.00  0.00     0.000 O
ATOM     92  HD  BDP B   6      17.328  18.912   8.6300  0.00  0.00     0.000 HD
BRANCH 86 92
ATOM     92   C  BDP B   6      12.564  15.841   9.2020  0.00  0.00     0.000 C
ATOM     93   O  BDP B   6      12.805  15.545  10.4120  0.00  0.00     0.000 OA
ATOM     94   O  BDP B   6      11.738  15.198   8.4840  0.00  0.00     0.000 OA
ENDBRANCH 86 92
BRANCH 82 95
ATOM     95  O3  NAG B   7      12.203  20.468   9.1450  0.00  0.00     0.000 O
BRANCH 95 98
ATOM     96  C1  NAG B   7       9.572  22.905   8.4550  0.00  0.00     0.000 C
ATOM     97  C2  NAG B   7      10.561  22.129   9.3140  0.00  0.00     0.000 C
ATOM     98  C3  NAG B   7      11.232  21.150   8.3530  0.00  0.00     0.000 C
ATOM     99  C4  NAG B   7      10.184  20.228   7.7360  0.00  0.00     0.000 C
ATOM    100  C5  NAG B   7       9.060  21.036   7.0860  0.00  0.00     0.000 C
ATOM    101  O5  NAG B   7       8.568  21.978   8.0270  0.00  0.00     0.000 O
BRANCH 97 104
ATOM    102   N  NAG B   7      11.704  22.846   9.8960  0.00  0.00     0.000 N
ATOM    104  HD  NAG B   7      12.508  23.071  10.1250  0.00  0.00     0.000 HD
ATOM    104   O  NAG B   7      13.004  23.702  11.5410  0.00  0.00     0.000 OA
ATOM    105   C  NAG B   7      11.953  23.133  11.1880  0.00  0.00     0.000 C
ATOM    106   C  NAG B   7      10.951  22.747  12.2210  0.00  0.00     0.000 C
ENDBRANCH 97 104
ATOM    107   O  NAG B   7       7.130  20.867   5.7630  0.00  0.00     0.000 O
ATOM    109  HD  NAG B   7       7.841  21.335   5.9220  0.00  0.00     0.000 HD
ATOM    109   O  NAG B   7       7.130  20.867   5.7630  0.00  0.00     0.000 O
ATOM    111  HD  NAG B   7       7.841  21.335   5.9220  0.00  0.00     0.000 HD
ENDBRANCH 95 98
ENDBRANCH 82 95
ENDBRANCH 81 85
ENDBRANCH 65 81
ENDBRANCH 64 67
ENDBRANCH 51 64
ENDBRANCH 50 54
ENDBRANCH 34 50
ENDBRANCH 33 36
ENDBRANCH 20 33
ENDBRANCH 19 23
ENDBRANCH 1 19
TORSDOF 19
ENDMDL
MODEL 60
REMARK VINA RESULT:      -5.5      7.994     13.356
ROOT
ATOM      1  C1  NAG B   1       7.948  14.411  25.1080  0.00  0.00     0.000 C
ATOM      2  C2  NAG B   1       8.587  15.755  25.4430  0.00  0.00     0.000 C
ATOM      3  C3  NAG B   1       7.636  16.659  26.2000  0.00  0.00     0.000 C
ATOM      4  C4  NAG B   1       6.411  16.806  25.3030  0.00  0.00     0.000 C
ATOM      5  C5  NAG B   1       5.752  15.432  25.1240  0.00  0.00     0.000 C
ATOM      6  O5  NAG B   1       6.654  14.500  24.4900  0.00  0.00     0.000 O
ATOM      7   O  NAG B   1       8.222  17.950  26.4860  0.00  0.00     0.000 O
ATOM      9  HD  NAG B   1       8.903  17.418  26.5470  0.00  0.00     0.000 HD
ATOM      9   O  NAG B   1       5.486  17.710  25.8840  0.00  0.00     0.000 O
ATOM     11  HD  NAG B   1       6.167  17.178  25.9450  0.00  0.00     0.000 HD
ATOM     11   C  NAG B   1       4.442  15.578  24.3400  0.00  0.00     0.000 C
ATOM     12   O  NAG B   1       4.147  14.394  23.6000  0.00  0.00     0.000 O
ATOM     14  HD  NAG B   1       4.828  13.862  23.6610  0.00  0.00     0.000 HD
ENDROOT
BRANCH 2 16
ATOM     14   N  NAG B   1       9.867  15.369  26.0620  0.00  0.00     0.000 N
ATOM     16  HD  NAG B   1      10.563  14.866  25.9500  0.00  0.00     0.000 HD
ATOM     16   C  NAG B   1      11.052  15.875  25.6780  0.00  0.00     0.000 C
ATOM     17   C  NAG B   1      11.114  16.866  24.5450  0.00  0.00     0.000 C
ATOM     18   O  NAG B   1      12.095  15.566  26.2520  0.00  0.00     0.000 OA
ENDBRANCH 2 16
BRANCH 1 19
ATOM     19  O4  BDP B   2       8.817  13.876  24.1190  0.00  0.00     0.000 O
BRANCH 19 23
ATOM     20  C1  BDP B   2       8.440  12.631  20.2140  0.00  0.00     0.000 C
ATOM     21  C2  BDP B   2       8.325  14.121  20.4600  0.00  0.00     0.000 C
ATOM     22  C3  BDP B   2       8.885  14.499  21.8120  0.00  0.00     0.000 C
ATOM     23  C4  BDP B   2       8.209  13.635  22.8730  0.00  0.00     0.000 C
ATOM     24  C5  BDP B   2       8.401  12.171  22.5290  0.00  0.00     0.000 C
ATOM     25  O5  BDP B   2       7.823  11.902  21.2650  0.00  0.00     0.000 O
ATOM     26   O  BDP B   2       9.000  14.838  19.4480  0.00  0.00     0.000 O
ATOM     28  HD  BDP B   2       8.997  14.044  19.1030  0.00  0.00     0.000 HD
ATOM     28   O  BDP B   2       8.669  15.900  22.0400  0.00  0.00     0.000 O
ATOM     30  HD  BDP B   2       8.666  15.106  21.6940  0.00  0.00     0.000 HD
BRANCH 24 30
ATOM     30   C  BDP B   2       7.754  11.271  23.5200  0.00  0.00     0.000 C
ATOM     31   O  BDP B   2       6.502  11.216  23.5140  0.00  0.00     0.000 OA
ATOM     32   O  BDP B   2       8.492  10.621  24.3130  0.00  0.00     0.000 OA
ENDBRANCH 24 30
BRANCH 20 33
ATOM     33  O3  NAG B   3       7.720  12.426  19.0230  0.00  0.00     0.000 O
BRANCH 33 36
ATOM     34  C1  NAG B   3       8.681   9.635  16.6910  0.00  0.00     0.000 C
ATOM     35  C2  NAG B   3       8.716  11.010  17.3310  0.00  0.00     0.000 C
ATOM     36  C3  NAG B   3       7.816  11.072  18.5740  0.00  0.00     0.000 C
ATOM     37  C4  NAG B   3       6.420  10.571  18.2120  0.00  0.00     0.000 C
ATOM     38  C5  NAG B   3       6.509   9.224  17.5000  0.00  0.00     0.000 C
ATOM     39  O5  NAG B   3       7.334   9.337  16.3530  0.00  0.00     0.000 O
ATOM     40   O  NAG B   3       5.625  10.432  19.4000  0.00  0.00     0.000 O
ATOM     42  HD  NAG B   3       5.523   9.630  19.0890  0.00  0.00     0.000 HD
ATOM     42   C  NAG B   3       5.167   8.708  16.9850  0.00  0.00     0.000 C
ATOM     43   O  NAG B   3       4.682   9.579  15.9570  0.00  0.00     0.000 O
ATOM     45  HD  NAG B   3       4.580   8.778  15.6460  0.00  0.00     0.000 HD
BRANCH 35 47
ATOM     45   N  NAG B   3       9.475  12.142  16.8130  0.00  0.00     0.000 N
ATOM     47  HD  NAG B   3       8.619  12.274  16.7870  0.00  0.00     0.000 HD
ATOM     47   C  NAG B   3      10.616  12.541  17.3390  0.00  0.00     0.000 C
ATOM     48   C  NAG B   3      11.257  13.736  16.6970  0.00  0.00     0.000 C
ATOM     49   O  NAG B   3      11.114  11.983  18.3150  0.00  0.00     0.000 OA
ENDBRANCH 35 47
BRANCH 34 50
ATOM     50  O4  BDP B   4       9.459   9.790  15.5230  0.00  0.00     0.000 O
BRANCH 50 54
ATOM     51  C1  BDP B   4      12.105   7.963  13.0300  0.00  0.00     0.000 C
ATOM     52  C2  BDP B   4      10.689   7.401  12.9700  0.00  0.00     0.000 C
ATOM     53  C3  BDP B   4       9.759   8.374  13.6270  0.00  0.00     0.000 C
ATOM     54  C4  BDP B   4      10.252   8.679  15.0710  0.00  0.00     0.000 C
ATOM     55  C5  BDP B   4      11.729   9.045  15.1130  0.00  0.00     0.000 C
ATOM     56  O5  BDP B   4      12.499   8.093  14.3840  0.00  0.00     0.000 O
ATOM     57   O  BDP B   4      10.295   7.210  11.6280  0.00  0.00     0.000 O
ATOM     59  HD  BDP B   4      10.364   6.357  11.5000  0.00  0.00     0.000 HD
ATOM     59   O  BDP B   4       8.474   7.727  13.7230  0.00  0.00     0.000 O
ATOM     61  HD  BDP B   4       8.543   6.874  13.5950  0.00  0.00     0.000 HD
BRANCH 55 61
ATOM     61   C  BDP B   4      12.198   9.065  16.5570  0.00  0.00     0.000 C
ATOM     62   O  BDP B   4      13.043   9.937  16.8910  0.00  0.00     0.000 OA
ATOM     63   O  BDP B   4      11.717   8.207  17.3580  0.00  0.00     0.000 OA
ENDBRANCH 55 61
BRANCH 51 64
ATOM     64  O3  NAG B   5      12.962   7.036  12.3350  0.00  0.00     0.000 O
BRANCH 64 67
ATOM     65  C1  NAG B   5      15.746   8.063  10.1480  0.00  0.00     0.000 C
ATOM     66  C2  NAG B   5      14.327   7.709  10.5570  0.00  0.00     0.000 C
ATOM     67  C3  NAG B   5      14.244   7.573  12.0720  0.00  0.00     0.000 C
ATOM     68  C4  NAG B   5      15.318   6.612  12.5990  0.00  0.00     0.000 C
ATOM     69  C5  NAG B   5      16.689   6.992  12.0620  0.00  0.00     0.000 C
ATOM     70  O5  NAG B   5      16.643   7.090  10.6310  0.00  0.00     0.000 O
ATOM     71   O  NAG B   5      15.296   6.640  14.0100  0.00  0.00     0.000 O
ATOM     73  HD  NAG B   5      15.388   5.785  13.9080  0.00  0.00     0.000 HD
ATOM     73   C  NAG B   5      17.808   6.010  12.4350  0.00  0.00     0.000 C
ATOM     74   O  NAG B   5      17.546   4.726  11.8310  0.00  0.00     0.000 O
ATOM     76  HD  NAG B   5      17.637   3.871  11.7290  0.00  0.00     0.000 HD
BRANCH 66 78
ATOM     76   N  NAG B   5      13.561   8.764   9.8650  0.00  0.00     0.000 N
ATOM     78  HD  NAG B   5      13.531   7.902   9.9440  0.00  0.00     0.000 HD
ATOM     78   C  NAG B   5      12.370   8.610   9.2670  0.00  0.00     0.000 C
ATOM     79   C  NAG B   5      11.834   9.880   8.6630  0.00  0.00     0.000 C
ATOM     80   O  NAG B   5      11.753   7.487   9.2070  0.00  0.00     0.000 OA
ENDBRANCH 66 78
BRANCH 65 81
ATOM     81  O4  BDP B   6      15.841   8.147   8.7200  0.00  0.00     0.000 O
BRANCH 81 85
ATOM     82  C1  BDP B   6      18.081  10.318   5.7810  0.00  0.00     0.000 C
ATOM     83  C2  BDP B   6      18.589   8.934   6.1750  0.00  0.00     0.000 C
ATOM     84  C3  BDP B   6      17.531   8.094   6.8960  0.00  0.00     0.000 C
ATOM     85  C4  BDP B   6      16.902   8.849   8.0680  0.00  0.00     0.000 C
ATOM     86  C5  BDP B   6      16.460  10.241   7.5540  0.00  0.00     0.000 C
ATOM     87  O5  BDP B   6      17.567  10.970   6.9330  0.00  0.00     0.000 O
ATOM     88   O  BDP B   6      18.950   8.299   4.9520  0.00  0.00     0.000 O
ATOM     90  HD  BDP B   6      18.892   7.530   4.5560  0.00  0.00     0.000 HD
ATOM     90   O  BDP B   6      18.112   6.863   7.3330  0.00  0.00     0.000 O
ATOM     92  HD  BDP B   6      18.053   6.095   6.9370  0.00  0.00     0.000 HD
BRANCH 86 92
ATOM     92   C  BDP B   6      16.049  11.125   8.7070  0.00  0.00     0.000 C
ATOM     93   O  BDP B   6      14.825  11.420   8.8610  0.00  0.00     0.000 OA
ATOM     94   O  BDP B   6      16.961  11.520   9.4970  0.00  0.00     0.000 OA
ENDBRANCH 86 92
BRANCH 82 95
ATOM     95  O3  NAG B   7      19.196  11.090   5.2960  0.00  0.00     0.000 O
BRANCH 95 98
ATOM     96  C1  NAG B   7      19.827  13.180   2.3680  0.00  0.00     0.000 C
ATOM     97  C2  NAG B   7      20.116  12.085   3.3860  0.00  0.00     0.000 C
ATOM     98  C3  NAG B   7      18.957  12.156   4.3780  0.00  0.00     0.000 C
ATOM     99  C4  NAG B   7      18.919  13.534   5.0340  0.00  0.00     0.000 C
ATOM    100  C5  NAG B   7      18.878  14.640   3.9790  0.00  0.00     0.000 C
ATOM    101  O5  NAG B   7      19.933  14.432   3.0530  0.00  0.00     0.000 O
BRANCH 97 104
ATOM    102   N  NAG B   7      20.091  10.697   2.9050  0.00  0.00     0.000 N
ATOM    104  HD  NAG B   7      19.892   9.860   2.8070  0.00  0.00     0.000 HD
ATOM    104   O  NAG B   7      20.902   8.623   2.4950  0.00  0.00     0.000 OA
ATOM    105   C  NAG B   7      21.089   9.793   2.8820  0.00  0.00     0.000 C
ATOM    106   C  NAG B   7      22.446  10.199   3.3460  0.00  0.00     0.000 C
ENDBRANCH 97 104
ATOM    107   O  NAG B   7      18.633  16.953   3.6720  0.00  0.00     0.000 O
ATOM    109  HD  NAG B   7      18.432  16.172   3.3570  0.00  0.00     0.000 HD
ATOM    109   O  NAG B   7      18.633  16.953   3.6720  0.00  0.00     0.000 O
ATOM    111  HD  NAG B   7      18.432  16.172   3.3570  0.00  0.00     0.000 HD
ENDBRANCH 95 98
ENDBRANCH 82 95
ENDBRANCH 81 85
ENDBRANCH 65 81
ENDBRANCH 64 67
ENDBRANCH 51 64
ENDBRANCH 50 54
ENDBRANCH 34 50
ENDBRANCH 33 36
ENDBRANCH 20 33
ENDBRANCH 19 23
ENDBRANCH 1 19
TORSDOF 19
ENDMDL
MODEL 61
REMARK VINA RESULT:      -5.5      6.871     17.655
ROOT
ATOM      1  C1  NAG B   1       5.936  21.646   8.6000  0.00  0.00     0.000 C
ATOM      2  C2  NAG B   1       4.753  21.602   9.5630  0.00  0.00     0.000 C
ATOM      3  C3  NAG B   1       4.068  22.948   9.6780  0.00  0.00     0.000 C
ATOM      4  C4  NAG B   1       5.152  23.920  10.1330  0.00  0.00     0.000 C
ATOM      5  C5  NAG B   1       6.236  24.007   9.0510  0.00  0.00     0.000 C
ATOM      6  O5  NAG B   1       6.858  22.722   8.8340  0.00  0.00     0.000 O
ATOM      7   O  NAG B   1       2.970  22.923  10.6180  0.00  0.00     0.000 O
ATOM      9  HD  NAG B   1       2.935  22.131  10.2690  0.00  0.00     0.000 HD
ATOM      9   O  NAG B   1       4.593  25.204  10.3570  0.00  0.00     0.000 O
ATOM     11  HD  NAG B   1       4.558  24.412  10.0080  0.00  0.00     0.000 HD
ATOM     11   C  NAG B   1       7.265  25.080   9.4260  0.00  0.00     0.000 C
ATOM     12   O  NAG B   1       8.549  24.778   8.8840  0.00  0.00     0.000 O
ATOM     14  HD  NAG B   1       8.514  23.986   8.5350  0.00  0.00     0.000 HD
ENDROOT
BRANCH 2 16
ATOM     14   N  NAG B   1       4.376  20.425  10.3660  0.00  0.00     0.000 N
ATOM     16  HD  NAG B   1       3.736  20.095  10.8470  0.00  0.00     0.000 HD
ATOM     16   C  NAG B   1       3.578  19.446   9.9060  0.00  0.00     0.000 C
ATOM     17   C  NAG B   1       3.002  19.537   8.5180  0.00  0.00     0.000 C
ATOM     18   O  NAG B   1       3.326  18.454  10.5890  0.00  0.00     0.000 OA
ENDBRANCH 2 16
BRANCH 1 19
ATOM     19  O4  BDP B   2       6.644  20.452   8.9010  0.00  0.00     0.000 O
BRANCH 19 23
ATOM     20  C1  BDP B   2      10.609  19.352   9.0200  0.00  0.00     0.000 C
ATOM     21  C2  BDP B   2      10.074  20.074  10.2390  0.00  0.00     0.000 C
ATOM     22  C3  BDP B   2       8.563  20.052  10.2700  0.00  0.00     0.000 C
ATOM     23  C4  BDP B   2       8.044  20.595   8.9420  0.00  0.00     0.000 C
ATOM     24  C5  BDP B   2       8.635  19.790   7.8020  0.00  0.00     0.000 C
ATOM     25  O5  BDP B   2      10.046  19.891   7.8320  0.00  0.00     0.000 O
ATOM     26   O  BDP B   2      10.583  19.489  11.4180  0.00  0.00     0.000 O
ATOM     28  HD  BDP B   2      11.085  19.108  10.8230  0.00  0.00     0.000 HD
ATOM     28   O  BDP B   2       8.101  20.826  11.3880  0.00  0.00     0.000 O
ATOM     30  HD  BDP B   2       8.603  20.446  10.7940  0.00  0.00     0.000 HD
BRANCH 24 30
ATOM     30   C  BDP B   2       8.177  20.276   6.4740  0.00  0.00     0.000 C
ATOM     31   O  BDP B   2       8.547  21.420   6.1220  0.00  0.00     0.000 OA
ATOM     32   O  BDP B   2       7.440  19.521   5.7780  0.00  0.00     0.000 OA
ENDBRANCH 24 30
BRANCH 20 33
ATOM     33  O3  NAG B   3      11.989  19.622   9.0420  0.00  0.00     0.000 O
BRANCH 33 36
ATOM     34  C1  NAG B   3      14.410  17.442   7.1620  0.00  0.00     0.000 C
ATOM     35  C2  NAG B   3      13.527  17.903   8.3050  0.00  0.00     0.000 C
ATOM     36  C3  NAG B   3      12.650  19.094   7.8890  0.00  0.00     0.000 C
ATOM     37  C4  NAG B   3      13.531  20.183   7.2830  0.00  0.00     0.000 C
ATOM     38  C5  NAG B   3      14.436  19.593   6.2050  0.00  0.00     0.000 C
ATOM     39  O5  NAG B   3      15.212  18.539   6.7490  0.00  0.00     0.000 O
ATOM     40   O  NAG B   3      12.713  21.214   6.7070  0.00  0.00     0.000 O
ATOM     42  HD  NAG B   3      13.197  21.037   6.0110  0.00  0.00     0.000 HD
ATOM     42   C  NAG B   3      15.445  20.586   5.6330  0.00  0.00     0.000 C
ATOM     43   O  NAG B   3      16.375  20.965   6.6550  0.00  0.00     0.000 O
ATOM     45  HD  NAG B   3      16.859  20.789   5.9590  0.00  0.00     0.000 HD
BRANCH 35 47
ATOM     45   N  NAG B   3      13.503  17.363   9.6580  0.00  0.00     0.000 N
ATOM     47  HD  NAG B   3      13.723  18.200   9.6380  0.00  0.00     0.000 HD
ATOM     47   C  NAG B   3      12.603  16.490  10.0660  0.00  0.00     0.000 C
ATOM     48   C  NAG B   3      12.709  16.051  11.4960  0.00  0.00     0.000 C
ATOM     49   O  NAG B   3      11.712  16.079   9.3260  0.00  0.00     0.000 OA
ENDBRANCH 35 47
BRANCH 34 50
ATOM     50  O4  BDP B   4      15.213  16.436   7.7440  0.00  0.00     0.000 O
BRANCH 50 54
ATOM     51  C1  BDP B   4      17.140  12.920   7.0560  0.00  0.00     0.000 C
ATOM     52  C2  BDP B   4      17.604  14.077   6.1780  0.00  0.00     0.000 C
ATOM     53  C3  BDP B   4      17.105  15.359   6.7720  0.00  0.00     0.000 C
ATOM     54  C4  BDP B   4      15.561  15.288   6.9520  0.00  0.00     0.000 C
ATOM     55  C5  BDP B   4      15.119  14.015   7.6610  0.00  0.00     0.000 C
ATOM     56  O5  BDP B   4      15.725  12.874   7.0590  0.00  0.00     0.000 O
ATOM     57   O  BDP B   4      19.014  14.109   6.1140  0.00  0.00     0.000 O
ATOM     59  HD  BDP B   4      19.204  13.779   5.3370  0.00  0.00     0.000 HD
ATOM     59   O  BDP B   4      17.394  16.403   5.8190  0.00  0.00     0.000 O
ATOM     61  HD  BDP B   4      17.585  16.073   5.0420  0.00  0.00     0.000 HD
BRANCH 55 61
ATOM     61   C  BDP B   4      13.609  13.888   7.5640  0.00  0.00     0.000 C
ATOM     62   O  BDP B   4      13.038  14.378   6.5550  0.00  0.00     0.000 OA
ATOM     63   O  BDP B   4      12.995  13.292   8.5010  0.00  0.00     0.000 OA
ENDBRANCH 55 61
BRANCH 51 64
ATOM     64  O3  NAG B   5      17.689  11.712   6.4950  0.00  0.00     0.000 O
BRANCH 64 67
ATOM     65  C1  NAG B   5      19.402   9.025   8.3500  0.00  0.00     0.000 C
ATOM     66  C2  NAG B   5      19.235  10.298   7.5380  0.00  0.00     0.000 C
ATOM     67  C3  NAG B   5      17.759  10.658   7.4360  0.00  0.00     0.000 C
ATOM     68  C4  NAG B   5      16.935   9.466   6.9300  0.00  0.00     0.000 C
ATOM     69  C5  NAG B   5      17.238   8.219   7.7450  0.00  0.00     0.000 C
ATOM     70  O5  NAG B   5      18.653   7.983   7.7690  0.00  0.00     0.000 O
ATOM     71   O  NAG B   5      15.565   9.802   6.9990  0.00  0.00     0.000 O
ATOM     73  HD  NAG B   5      15.554   9.410   6.2270  0.00  0.00     0.000 HD
ATOM     73   C  NAG B   5      16.553   6.945   7.2300  0.00  0.00     0.000 C
ATOM     74   O  NAG B   5      17.052   6.627   5.9140  0.00  0.00     0.000 O
ATOM     76  HD  NAG B   5      17.041   6.235   5.1410  0.00  0.00     0.000 HD
BRANCH 66 78
ATOM     76   N  NAG B   5      20.033  11.335   8.2200  0.00  0.00     0.000 N
ATOM     78  HD  NAG B   5      20.038  10.928   7.4560  0.00  0.00     0.000 HD
ATOM     78   C  NAG B   5      20.967  12.114   7.6510  0.00  0.00     0.000 C
ATOM     79   C  NAG B   5      21.595  13.092   8.6070  0.00  0.00     0.000 C
ATOM     80   O  NAG B   5      21.299  12.026   6.4160  0.00  0.00     0.000 OA
ENDBRANCH 66 78
BRANCH 65 81
ATOM     81  O4  BDP B   6      20.786   8.656   8.4100  0.00  0.00     0.000 O
BRANCH 81 85
ATOM     82  C1  BDP B   6      23.539   6.576  10.9510  0.00  0.00     0.000 C
ATOM     83  C2  BDP B   6      22.319   5.807  10.4540  0.00  0.00     0.000 C
ATOM     84  C3  BDP B   6      21.637   6.479   9.2590  0.00  0.00     0.000 C
ATOM     85  C4  BDP B   6      21.338   7.955   9.5270  0.00  0.00     0.000 C
ATOM     86  C5  BDP B   6      22.634   8.615  10.0550  0.00  0.00     0.000 C
ATOM     87  O5  BDP B   6      23.163   7.917  11.2280  0.00  0.00     0.000 O
ATOM     88   O  BDP B   6      22.808   4.526  10.0660  0.00  0.00     0.000 O
ATOM     90  HD  BDP B   6      22.716   3.940   9.4350  0.00  0.00     0.000 HD
ATOM     90   O  BDP B   6      20.443   5.767   8.9250  0.00  0.00     0.000 O
ATOM     92  HD  BDP B   6      20.351   5.180   8.2940  0.00  0.00     0.000 HD
BRANCH 86 92
ATOM     92   C  BDP B   6      22.351  10.008  10.5620  0.00  0.00     0.000 C
ATOM     93   O  BDP B   6      21.200  10.285  11.0150  0.00  0.00     0.000 OA
ATOM     94   O  BDP B   6      23.304  10.848  10.5320  0.00  0.00     0.000 OA
ENDBRANCH 86 92
BRANCH 82 95
ATOM     95  O3  NAG B   7      23.983   5.977  12.1840  0.00  0.00     0.000 O
BRANCH 95 98
ATOM     96  C1  NAG B   7      27.224   5.000  13.5550  0.00  0.00     0.000 C
ATOM     97  C2  NAG B   7      25.763   4.816  13.1680  0.00  0.00     0.000 C
ATOM     98  C3  NAG B   7      25.333   6.169  12.6040  0.00  0.00     0.000 C
ATOM     99  C4  NAG B   7      25.496   7.250  13.6690  0.00  0.00     0.000 C
ATOM    100  C5  NAG B   7      26.920   7.255  14.2280  0.00  0.00     0.000 C
ATOM    101  O5  NAG B   7      27.258   5.938  14.6360  0.00  0.00     0.000 O
BRANCH 97 104
ATOM    102   N  NAG B   7      25.422   3.898  12.0720  0.00  0.00     0.000 N
ATOM    104  HD  NAG B   7      25.083   3.568  11.3470  0.00  0.00     0.000 HD
ATOM    104   O  NAG B   7      24.530   2.056  11.1030  0.00  0.00     0.000 OA
ATOM    105   C  NAG B   7      24.809   2.701  12.1320  0.00  0.00     0.000 C
ATOM    106   C  NAG B   7      24.444   2.141  13.4640  0.00  0.00     0.000 C
ENDBRANCH 97 104
ATOM    107   O  NAG B   7      28.396   8.416  15.6350  0.00  0.00     0.000 O
ATOM    109  HD  NAG B   7      28.322   7.982  14.8890  0.00  0.00     0.000 HD
ATOM    109   O  NAG B   7      28.396   8.416  15.6350  0.00  0.00     0.000 O
ATOM    111  HD  NAG B   7      28.322   7.982  14.8890  0.00  0.00     0.000 HD
ENDBRANCH 95 98
ENDBRANCH 82 95
ENDBRANCH 81 85
ENDBRANCH 65 81
ENDBRANCH 64 67
ENDBRANCH 51 64
ENDBRANCH 50 54
ENDBRANCH 34 50
ENDBRANCH 33 36
ENDBRANCH 20 33
ENDBRANCH 19 23
ENDBRANCH 1 19
TORSDOF 19
ENDMDL
MODEL 62
REMARK VINA RESULT:      -5.5      8.046     20.328
ROOT
ATOM      1  C1  NAG B   1      13.907   7.823  10.0100  0.00  0.00     0.000 C
ATOM      2  C2  NAG B   1      13.534   9.128   9.3120  0.00  0.00     0.000 C
ATOM      3  C3  NAG B   1      14.127   9.212   7.9210  0.00  0.00     0.000 C
ATOM      4  C4  NAG B   1      15.634   9.064   8.1100  0.00  0.00     0.000 C
ATOM      5  C5  NAG B   1      15.933   7.676   8.6920  0.00  0.00     0.000 C
ATOM      6  O5  NAG B   1      15.308   7.508   9.9830  0.00  0.00     0.000 O
ATOM      7   O  NAG B   1      13.811  10.463   7.2680  0.00  0.00     0.000 O
ATOM      9  HD  NAG B   1      13.096  10.308   7.7310  0.00  0.00     0.000 HD
ATOM      9   O  NAG B   1      16.299   9.216   6.8670  0.00  0.00     0.000 O
ATOM     11  HD  NAG B   1      15.584   9.061   7.3300  0.00  0.00     0.000 HD
ATOM     11   C  NAG B   1      17.449   7.454   8.7620  0.00  0.00     0.000 C
ATOM     12   O  NAG B   1      17.793   6.567   9.8250  0.00  0.00     0.000 O
ATOM     14  HD  NAG B   1      17.078   6.412  10.2880  0.00  0.00     0.000 HD
ENDROOT
BRANCH 2 16
ATOM     14   N  NAG B   1      12.072   9.186   9.4890  0.00  0.00     0.000 N
ATOM     16  HD  NAG B   1      11.446   9.121  10.0840  0.00  0.00     0.000 HD
ATOM     16   C  NAG B   1      11.432  10.268   9.9640  0.00  0.00     0.000 C
ATOM     17   C  NAG B   1      12.217  11.488  10.3700  0.00  0.00     0.000 C
ATOM     18   O  NAG B   1      10.205  10.297  10.0510  0.00  0.00     0.000 OA
ENDBRANCH 2 16
BRANCH 1 19
ATOM     19  O4  BDP B   2      13.591   8.083  11.3720  0.00  0.00     0.000 O
BRANCH 19 23
ATOM     20  C1  BDP B   2      12.472   5.694  14.5320  0.00  0.00     0.000 C
ATOM     21  C2  BDP B   2      13.944   6.040  14.4370  0.00  0.00     0.000 C
ATOM     22  C3  BDP B   2      14.171   7.225  13.5260  0.00  0.00     0.000 C
ATOM     23  C4  BDP B   2      13.508   6.935  12.1830  0.00  0.00     0.000 C
ATOM     24  C5  BDP B   2      12.043   6.615  12.4010  0.00  0.00     0.000 C
ATOM     25  O5  BDP B   2      11.926   5.480  13.2380  0.00  0.00     0.000 O
ATOM     26   O  BDP B   2      14.464   6.319  15.7190  0.00  0.00     0.000 O
ATOM     28  HD  BDP B   2      13.696   5.981  15.9320  0.00  0.00     0.000 HD
ATOM     28   O  BDP B   2      15.582   7.457  13.3940  0.00  0.00     0.000 O
ATOM     30  HD  BDP B   2      14.814   7.119  13.6060  0.00  0.00     0.000 HD
BRANCH 24 30
ATOM     30   C  BDP B   2      11.338   6.311  11.1290  0.00  0.00     0.000 C
ATOM     31   O  BDP B   2      10.360   7.033  10.8270  0.00  0.00     0.000 OA
ATOM     32   O  BDP B   2      11.753   5.344  10.4280  0.00  0.00     0.000 OA
ENDBRANCH 24 30
BRANCH 20 33
ATOM     33  O3  NAG B   3      12.453   4.484  15.2480  0.00  0.00     0.000 O
BRANCH 33 36
ATOM     34  C1  NAG B   3       9.501   3.630  17.4170  0.00  0.00     0.000 C
ATOM     35  C2  NAG B   3      10.824   4.259  17.0250  0.00  0.00     0.000 C
ATOM     36  C3  NAG B   3      11.118   4.058  15.5300  0.00  0.00     0.000 C
ATOM     37  C4  NAG B   3      10.988   2.576  15.1850  0.00  0.00     0.000 C
ATOM     38  C5  NAG B   3       9.660   2.027  15.7000  0.00  0.00     0.000 C
ATOM     39  O5  NAG B   3       9.554   2.247  17.0960  0.00  0.00     0.000 O
ATOM     40   O  NAG B   3      11.060   2.396  13.7620  0.00  0.00     0.000 O
ATOM     42  HD  NAG B   3      10.310   1.986  13.9010  0.00  0.00     0.000 HD
ATOM     42   C  NAG B   3       9.501   0.521  15.5130  0.00  0.00     0.000 C
ATOM     43   O  NAG B   3      10.463  -0.166  16.3230  0.00  0.00     0.000 O
ATOM     45  HD  NAG B   3       9.713  -0.576  16.4610  0.00  0.00     0.000 HD
BRANCH 35 47
ATOM     45   N  NAG B   3      11.783   4.938  17.8870  0.00  0.00     0.000 N
ATOM     47  HD  NAG B   3      12.127   4.257  17.4770  0.00  0.00     0.000 HD
ATOM     47   C  NAG B   3      11.820   6.248  18.0270  0.00  0.00     0.000 C
ATOM     48   C  NAG B   3      12.884   6.786  18.9370  0.00  0.00     0.000 C
ATOM     49   O  NAG B   3      11.045   6.990  17.4270  0.00  0.00     0.000 OA
ENDBRANCH 35 47
BRANCH 34 50
ATOM     50  O4  BDP B   4       9.448   3.808  18.8170  0.00  0.00     0.000 O
BRANCH 50 54
ATOM     51  C1  BDP B   4       7.267   3.088  22.1750  0.00  0.00     0.000 C
ATOM     52  C2  BDP B   4       7.790   1.835  21.4810  0.00  0.00     0.000 C
ATOM     53  C3  BDP B   4       8.859   2.236  20.5110  0.00  0.00     0.000 C
ATOM     54  C4  BDP B   4       8.304   3.311  19.5330  0.00  0.00     0.000 C
ATOM     55  C5  BDP B   4       7.610   4.454  20.2610  0.00  0.00     0.000 C
ATOM     56  O5  BDP B   4       6.681   3.945  21.2140  0.00  0.00     0.000 O
ATOM     57   O  BDP B   4       8.330   0.939  22.4280  0.00  0.00     0.000 O
ATOM     59  HD  BDP B   4       7.725   0.326  22.5180  0.00  0.00     0.000 HD
ATOM     59   O  BDP B   4       9.189   1.061  19.7410  0.00  0.00     0.000 O
ATOM     61  HD  BDP B   4       8.584   0.448  19.8310  0.00  0.00     0.000 HD
BRANCH 55 61
ATOM     61   C  BDP B   4       6.870   5.314  19.2520  0.00  0.00     0.000 C
ATOM     62   O  BDP B   4       5.643   5.094  19.0750  0.00  0.00     0.000 OA
ATOM     63   O  BDP B   4       7.521   6.213  18.6370  0.00  0.00     0.000 OA
ENDBRANCH 55 61
BRANCH 51 64
ATOM     64  O3  NAG B   5       6.290   2.662  23.1440  0.00  0.00     0.000 O
BRANCH 64 67
ATOM     65  C1  NAG B   5       5.930   4.264  26.4450  0.00  0.00     0.000 C
ATOM     66  C2  NAG B   5       6.478   3.331  25.3790  0.00  0.00     0.000 C
ATOM     67  C3  NAG B   5       5.902   3.703  24.0190  0.00  0.00     0.000 C
ATOM     68  C4  NAG B   5       4.370   3.781  24.0720  0.00  0.00     0.000 C
ATOM     69  C5  NAG B   5       3.916   4.662  25.2260  0.00  0.00     0.000 C
ATOM     70  O5  NAG B   5       4.521   4.217  26.4480  0.00  0.00     0.000 O
ATOM     71   O  NAG B   5       3.899   4.275  22.8360  0.00  0.00     0.000 O
ATOM     73  HD  NAG B   5       3.306   3.655  22.9520  0.00  0.00     0.000 HD
ATOM     73   C  NAG B   5       2.396   4.697  25.4350  0.00  0.00     0.000 C
ATOM     74   O  NAG B   5       1.927   3.382  25.8010  0.00  0.00     0.000 O
ATOM     76  HD  NAG B   5       1.334   2.762  25.9160  0.00  0.00     0.000 HD
BRANCH 66 78
ATOM     76   N  NAG B   5       7.935   3.450  25.5800  0.00  0.00     0.000 N
ATOM     78  HD  NAG B   5       7.348   2.815  25.5340  0.00  0.00     0.000 HD
ATOM     78   C  NAG B   5       8.820   2.441  25.5510  0.00  0.00     0.000 C
ATOM     79   C  NAG B   5      10.241   2.884  25.7730  0.00  0.00     0.000 C
ATOM     80   O  NAG B   5       8.486   1.217  25.3630  0.00  0.00     0.000 OA
ENDBRANCH 66 78
BRANCH 65 81
ATOM     81  O4  BDP B   6       6.433   3.889  27.7340  0.00  0.00     0.000 O
BRANCH 81 85
ATOM     82  C1  BDP B   6       7.109   5.632  31.5900  0.00  0.00     0.000 C
ATOM     83  C2  BDP B   6       5.729   5.041  31.3160  0.00  0.00     0.000 C
ATOM     84  C3  BDP B   6       5.714   4.103  30.1060  0.00  0.00     0.000 C
ATOM     85  C4  BDP B   6       6.337   4.753  28.8690  0.00  0.00     0.000 C
ATOM     86  C5  BDP B   6       7.707   5.342  29.2800  0.00  0.00     0.000 C
ATOM     87  O5  BDP B   6       7.588   6.264  30.4110  0.00  0.00     0.000 O
ATOM     88   O  BDP B   6       5.388   4.311  32.4910  0.00  0.00     0.000 O
ATOM     90  HD  BDP B   6       5.027   3.561  32.7280  0.00  0.00     0.000 HD
ATOM     90   O  BDP B   6       4.373   3.681  29.8430  0.00  0.00     0.000 O
ATOM     92  HD  BDP B   6       4.012   2.931  30.0810  0.00  0.00     0.000 HD
BRANCH 86 92
ATOM     92   C  BDP B   6       8.268   6.202  28.1730  0.00  0.00     0.000 C
ATOM     93   O  BDP B   6       7.823   7.379  28.0110  0.00  0.00     0.000 OA
ATOM     94   O  BDP B   6       9.192   5.706  27.4570  0.00  0.00     0.000 OA
ENDBRANCH 86 92
BRANCH 82 95
ATOM     95  O3  NAG B   7       6.976   6.642  32.6100  0.00  0.00     0.000 O
BRANCH 95 98
ATOM     96  C1  NAG B   7       8.131   7.314  36.0090  0.00  0.00     0.000 C
ATOM     97  C2  NAG B   7       7.161   7.347  34.8350  0.00  0.00     0.000 C
ATOM     98  C3  NAG B   7       7.908   6.667  33.6900  0.00  0.00     0.000 C
ATOM     99  C4  NAG B   7       9.190   7.435  33.3780  0.00  0.00     0.000 C
ATOM    100  C5  NAG B   7      10.043   7.608  34.6350  0.00  0.00     0.000 C
ATOM    101  O5  NAG B   7       9.236   8.157  35.6660  0.00  0.00     0.000 O
BRANCH 97 104
ATOM    102   N  NAG B   7       5.922   6.566  34.9480  0.00  0.00     0.000 N
ATOM    104  HD  NAG B   7       5.284   6.002  34.7900  0.00  0.00     0.000 HD
ATOM    104   O  NAG B   7       3.686   6.211  35.0250  0.00  0.00     0.000 OA
ATOM    105   C  NAG B   7       4.648   7.002  34.9870  0.00  0.00     0.000 C
ATOM    106   C  NAG B   7       4.385   8.469  34.9710  0.00  0.00     0.000 C
ENDBRANCH 97 104
ATOM    107   O  NAG B   7      12.122   8.358  35.4220  0.00  0.00     0.000 O
ATOM    109  HD  NAG B   7      11.512   7.748  35.5030  0.00  0.00     0.000 HD
ATOM    109   O  NAG B   7      12.122   8.358  35.4220  0.00  0.00     0.000 O
ATOM    111  HD  NAG B   7      11.512   7.748  35.5030  0.00  0.00     0.000 HD
ENDBRANCH 95 98
ENDBRANCH 82 95
ENDBRANCH 81 85
ENDBRANCH 65 81
ENDBRANCH 64 67
ENDBRANCH 51 64
ENDBRANCH 50 54
ENDBRANCH 34 50
ENDBRANCH 33 36
ENDBRANCH 20 33
ENDBRANCH 19 23
ENDBRANCH 1 19
TORSDOF 19
ENDMDL
MODEL 63
REMARK VINA RESULT:      -5.5      2.549      3.722
ROOT
ATOM      1  C1  NAG B   1       9.412   7.829  15.5500  0.00  0.00     0.000 C
ATOM      2  C2  NAG B   1       8.797   8.113  16.9170  0.00  0.00     0.000 C
ATOM      3  C3  NAG B   1       8.069   9.441  16.9450  0.00  0.00     0.000 C
ATOM      4  C4  NAG B   1       9.110  10.484  16.5480  0.00  0.00     0.000 C
ATOM      5  C5  NAG B   1       9.580  10.206  15.1140  0.00  0.00     0.000 C
ATOM      6  O5  NAG B   1      10.197   8.905  15.0120  0.00  0.00     0.000 O
ATOM      7   O  NAG B   1       7.517   9.734  18.2480  0.00  0.00     0.000 O
ATOM      9  HD  NAG B   1       7.431   8.874  18.1980  0.00  0.00     0.000 HD
ATOM      9   O  NAG B   1       8.551  11.785  16.6260  0.00  0.00     0.000 O
ATOM     11  HD  NAG B   1       8.465  10.925  16.5760  0.00  0.00     0.000 HD
ATOM     11   C  NAG B   1      10.523  11.321  14.6470  0.00  0.00     0.000 C
ATOM     12   O  NAG B   1      11.460  10.837  13.6850  0.00  0.00     0.000 O
ATOM     14  HD  NAG B   1      11.373   9.977  13.6350  0.00  0.00     0.000 HD
ENDROOT
BRANCH 2 16
ATOM     14   N  NAG B   1       8.078   6.857  17.1980  0.00  0.00     0.000 N
ATOM     16  HD  NAG B   1       8.179   5.997  17.2280  0.00  0.00     0.000 HD
ATOM     16   C  NAG B   1       8.180   6.197  18.3650  0.00  0.00     0.000 C
ATOM     17   C  NAG B   1       9.082   6.723  19.4490  0.00  0.00     0.000 C
ATOM     18   O  NAG B   1       7.526   5.177  18.5800  0.00  0.00     0.000 OA
ENDBRANCH 2 16
BRANCH 1 19
ATOM     19  O4  BDP B   2      10.325   6.774  15.8180  0.00  0.00     0.000 O
BRANCH 19 23
ATOM     20  C1  BDP B   2      12.609   7.421  12.4550  0.00  0.00     0.000 C
ATOM     21  C2  BDP B   2      11.483   6.417  12.3210  0.00  0.00     0.000 C
ATOM     22  C3  BDP B   2      10.479   6.566  13.4410  0.00  0.00     0.000 C
ATOM     23  C4  BDP B   2      11.224   6.498  14.7710  0.00  0.00     0.000 C
ATOM     24  C5  BDP B   2      12.314   7.552  14.7930  0.00  0.00     0.000 C
ATOM     25  O5  BDP B   2      13.221   7.318  13.7330  0.00  0.00     0.000 O
ATOM     26   O  BDP B   2      10.835   6.571  11.0770  0.00  0.00     0.000 O
ATOM     28  HD  BDP B   2      11.535   7.066  10.9520  0.00  0.00     0.000 HD
ATOM     28   O  BDP B   2       9.484   5.536  13.3260  0.00  0.00     0.000 O
ATOM     30  HD  BDP B   2      10.184   6.031  13.2020  0.00  0.00     0.000 HD
BRANCH 24 30
ATOM     30   C  BDP B   2      13.089   7.532  16.0620  0.00  0.00     0.000 C
ATOM     31   O  BDP B   2      13.783   6.515  16.2950  0.00  0.00     0.000 OA
ATOM     32   O  BDP B   2      13.002   8.528  16.8350  0.00  0.00     0.000 OA
ENDBRANCH 24 30
BRANCH 20 33
ATOM     33  O3  NAG B   3      13.532   7.032  11.4680  0.00  0.00     0.000 O
BRANCH 33 36
ATOM     34  C1  NAG B   3      16.319   9.349  10.4620  0.00  0.00     0.000 C
ATOM     35  C2  NAG B   3      14.927   8.747  10.4810  0.00  0.00     0.000 C
ATOM     36  C3  NAG B   3      14.779   7.716  11.6100  0.00  0.00     0.000 C
ATOM     37  C4  NAG B   3      15.914   6.699  11.5180  0.00  0.00     0.000 C
ATOM     38  C5  NAG B   3      17.259   7.414  11.4190  0.00  0.00     0.000 C
ATOM     39  O5  NAG B   3      17.257   8.294  10.3070  0.00  0.00     0.000 O
ATOM     40   O  NAG B   3      15.909   5.851  12.6770  0.00  0.00     0.000 O
ATOM     42  HD  NAG B   3      16.731   6.119  12.7240  0.00  0.00     0.000 HD
ATOM     42   C  NAG B   3      18.442   6.476  11.1920  0.00  0.00     0.000 C
ATOM     43   O  NAG B   3      18.319   5.852   9.9080  0.00  0.00     0.000 O
ATOM     45  HD  NAG B   3      19.141   6.120   9.9550  0.00  0.00     0.000 HD
BRANCH 35 47
ATOM     45   N  NAG B   3      13.853   9.042   9.5410  0.00  0.00     0.000 N
ATOM     47  HD  NAG B   3      14.098   8.212   9.5180  0.00  0.00     0.000 HD
ATOM     47   C  NAG B   3      12.867   9.873   9.8170  0.00  0.00     0.000 C
ATOM     48   C  NAG B   3      11.832  10.048   8.7460  0.00  0.00     0.000 C
ATOM     49   O  NAG B   3      12.785  10.450  10.8990  0.00  0.00     0.000 OA
ENDBRANCH 35 47
BRANCH 34 50
ATOM     50  O4  BDP B   4      16.311  10.172   9.3150  0.00  0.00     0.000 O
BRANCH 50 54
ATOM     51  C1  BDP B   4      16.909  14.128   8.5730  0.00  0.00     0.000 C
ATOM     52  C2  BDP B   4      17.800  13.192   7.7640  0.00  0.00     0.000 C
ATOM     53  C3  BDP B   4      17.237  11.806   7.8440  0.00  0.00     0.000 C
ATOM     54  C4  BDP B   4      17.077  11.389   9.3340  0.00  0.00     0.000 C
ATOM     55  C5  BDP B   4      16.353  12.445  10.1570  0.00  0.00     0.000 C
ATOM     56  O5  BDP B   4      16.926  13.731   9.9320  0.00  0.00     0.000 O
ATOM     57   O  BDP B   4      17.844  13.602   6.4140  0.00  0.00     0.000 O
ATOM     59  HD  BDP B   4      18.613  13.991   6.3290  0.00  0.00     0.000 HD
ATOM     59   O  BDP B   4      18.203  10.924   7.2360  0.00  0.00     0.000 O
ATOM     61  HD  BDP B   4      18.972  11.314   7.1510  0.00  0.00     0.000 HD
BRANCH 55 61
ATOM     61   C  BDP B   4      16.470  12.099  11.6310  0.00  0.00     0.000 C
ATOM     62   O  BDP B   4      17.620  11.896  12.1010  0.00  0.00     0.000 OA
ATOM     63   O  BDP B   4      15.405  12.031  12.3180  0.00  0.00     0.000 OA
ENDBRANCH 55 61
BRANCH 51 64
ATOM     64  O3  NAG B   5      17.441  15.459   8.4230  0.00  0.00     0.000 O
BRANCH 64 67
ATOM     65  C1  NAG B   5      15.012  18.228   8.5810  0.00  0.00     0.000 C
ATOM     66  C2  NAG B   5      15.735  17.012   8.0280  0.00  0.00     0.000 C
ATOM     67  C3  NAG B   5      16.662  16.433   9.0890  0.00  0.00     0.000 C
ATOM     68  C4  NAG B   5      17.584  17.516   9.6660  0.00  0.00     0.000 C
ATOM     69  C5  NAG B   5      16.779  18.729  10.1070  0.00  0.00     0.000 C
ATOM     70  O5  NAG B   5      15.948  19.182   9.0280  0.00  0.00     0.000 O
ATOM     71   O  NAG B   5      18.310  16.965  10.7430  0.00  0.00     0.000 O
ATOM     73  HD  NAG B   5      18.957  17.409  10.3770  0.00  0.00     0.000 HD
ATOM     73   C  NAG B   5      17.631  19.915  10.5800  0.00  0.00     0.000 C
ATOM     74   O  NAG B   5      18.424  20.410   9.4820  0.00  0.00     0.000 O
ATOM     76  HD  NAG B   5      19.071  20.854   9.1150  0.00  0.00     0.000 HD
BRANCH 66 78
ATOM     76   N  NAG B   5      14.626  16.164   7.5510  0.00  0.00     0.000 N
ATOM     78  HD  NAG B   5      15.353  16.504   7.2260  0.00  0.00     0.000 HD
ATOM     78   C  NAG B   5      14.591  15.489   6.3920  0.00  0.00     0.000 C
ATOM     79   C  NAG B   5      13.327  14.696   6.1970  0.00  0.00     0.000 C
ATOM     80   O  NAG B   5      15.540  15.523   5.5290  0.00  0.00     0.000 OA
ENDBRANCH 66 78
BRANCH 65 81
ATOM     81  O4  BDP B   6      14.173  18.805   7.5710  0.00  0.00     0.000 O
BRANCH 81 85
ATOM     82  C1  BDP B   6      10.314  20.651   7.3300  0.00  0.00     0.000 C
ATOM     83  C2  BDP B   6      11.534  21.567   7.3570  0.00  0.00     0.000 C
ATOM     84  C3  BDP B   6      12.838  20.833   7.0330  0.00  0.00     0.000 C
ATOM     85  C4  BDP B   6      13.018  19.581   7.8950  0.00  0.00     0.000 C
ATOM     86  C5  BDP B   6      11.711  18.756   7.8150  0.00  0.00     0.000 C
ATOM     87  O5  BDP B   6      10.541  19.549   8.1960  0.00  0.00     0.000 O
ATOM     88   O  BDP B   6      11.287  22.559   6.3640  0.00  0.00     0.000 O
ATOM     90  HD  BDP B   6      11.696  22.989   5.7340  0.00  0.00     0.000 HD
ATOM     90   O  BDP B   6      13.943  21.726   7.1900  0.00  0.00     0.000 O
ATOM     92  HD  BDP B   6      14.353  22.156   6.5590  0.00  0.00     0.000 HD
BRANCH 86 92
ATOM     92   C  BDP B   6      11.730  17.634   8.8240  0.00  0.00     0.000 C
ATOM     93   O  BDP B   6      11.662  16.433   8.4240  0.00  0.00     0.000 OA
ATOM     94   O  BDP B   6      11.838  17.950  10.0500  0.00  0.00     0.000 OA
ENDBRANCH 86 92
BRANCH 82 95
ATOM     95  O3  NAG B   7       9.183  21.386   7.8370  0.00  0.00     0.000 O
BRANCH 95 98
ATOM     96  C1  NAG B   7       5.841  22.229   6.6270  0.00  0.00     0.000 C
ATOM     97  C2  NAG B   7       7.199  22.491   7.2660  0.00  0.00     0.000 C
ATOM     98  C3  NAG B   7       7.888  21.129   7.2960  0.00  0.00     0.000 C
ATOM     99  C4  NAG B   7       7.061  20.147   8.1230  0.00  0.00     0.000 C
ATOM    100  C5  NAG B   7       5.620  20.083   7.6150  0.00  0.00     0.000 C
ATOM    101  O5  NAG B   7       5.102  21.402   7.5330  0.00  0.00     0.000 O
BRANCH 97 104
ATOM    102   N  NAG B   7       8.239  23.290   6.6040  0.00  0.00     0.000 N
ATOM    104  HD  NAG B   7       9.007  23.580   6.3270  0.00  0.00     0.000 HD
ATOM    104   O  NAG B   7       9.494  25.126   6.1750  0.00  0.00     0.000 OA
ATOM    105   C  NAG B   7       8.536  24.593   6.7680  0.00  0.00     0.000 C
ATOM    106   C  NAG B   7       7.704  25.415   7.6930  0.00  0.00     0.000 C
ENDBRANCH 97 104
ATOM    107   O  NAG B   7       3.579  18.951   7.8530  0.00  0.00     0.000 O
ATOM    109  HD  NAG B   7       4.126  19.314   7.2880  0.00  0.00     0.000 HD
ATOM    109   O  NAG B   7       3.579  18.951   7.8530  0.00  0.00     0.000 O
ATOM    111  HD  NAG B   7       4.126  19.314   7.2880  0.00  0.00     0.000 HD
ENDBRANCH 95 98
ENDBRANCH 82 95
ENDBRANCH 81 85
ENDBRANCH 65 81
ENDBRANCH 64 67
ENDBRANCH 51 64
ENDBRANCH 50 54
ENDBRANCH 34 50
ENDBRANCH 33 36
ENDBRANCH 20 33
ENDBRANCH 19 23
ENDBRANCH 1 19
TORSDOF 19
ENDMDL
MODEL 64
REMARK VINA RESULT:      -5.5      7.956     14.404
ROOT
ATOM      1  C1  NAG B   1      25.809   5.905   9.0280  0.00  0.00     0.000 C
ATOM      2  C2  NAG B   1      27.101   5.292   9.5630  0.00  0.00     0.000 C
ATOM      3  C3  NAG B   1      27.674   6.096  10.7110  0.00  0.00     0.000 C
ATOM      4  C4  NAG B   1      27.884   7.503  10.1600  0.00  0.00     0.000 C
ATOM      5  C5  NAG B   1      26.525   8.098   9.7680  0.00  0.00     0.000 C
ATOM      6  O5  NAG B   1      25.889   7.310   8.7380  0.00  0.00     0.000 O
ATOM      7   O  NAG B   1      28.918   5.543  11.1980  0.00  0.00     0.000 O
ATOM      9  HD  NAG B   1      28.473   4.834  10.9740  0.00  0.00     0.000 HD
ATOM      9   O  NAG B   1      28.503   8.323  11.1360  0.00  0.00     0.000 O
ATOM     11  HD  NAG B   1      28.058   7.614  10.9130  0.00  0.00     0.000 HD
ATOM     11   C  NAG B   1      26.697   9.560   9.3400  0.00  0.00     0.000 C
ATOM     12   O  NAG B   1      25.700   9.943   8.3940  0.00  0.00     0.000 O
ATOM     14  HD  NAG B   1      25.255   9.235   8.1700  0.00  0.00     0.000 HD
ENDROOT
BRANCH 2 16
ATOM     14   N  NAG B   1      27.528   4.100   8.8080  0.00  0.00     0.000 N
ATOM     16  HD  NAG B   1      28.180   3.537   8.7200  0.00  0.00     0.000 HD
ATOM     16   C  NAG B   1      27.456   2.852   9.3020  0.00  0.00     0.000 C
ATOM     17   C  NAG B   1      26.944   2.626  10.7000  0.00  0.00     0.000 C
ATOM     18   O  NAG B   1      27.776   1.877   8.6230  0.00  0.00     0.000 OA
ENDBRANCH 2 16
BRANCH 1 19
ATOM     19  O4  BDP B   2      25.638   5.257   7.7750  0.00  0.00     0.000 O
BRANCH 19 23
ATOM     20  C1  BDP B   2      21.556   5.777   7.6820  0.00  0.00     0.000 C
ATOM     21  C2  BDP B   2      22.055   4.467   8.2550  0.00  0.00     0.000 C
ATOM     22  C3  BDP B   2      23.518   4.552   8.6250  0.00  0.00     0.000 C
ATOM     23  C4  BDP B   2      24.297   5.040   7.4070  0.00  0.00     0.000 C
ATOM     24  C5  BDP B   2      23.717   6.358   6.9320  0.00  0.00     0.000 C
ATOM     25  O5  BDP B   2      22.358   6.178   6.5810  0.00  0.00     0.000 O
ATOM     26   O  BDP B   2      21.297   4.109   9.3900  0.00  0.00     0.000 O
ATOM     28  HD  BDP B   2      20.813   4.755   9.0760  0.00  0.00     0.000 HD
ATOM     28   O  BDP B   2      23.969   3.264   9.0740  0.00  0.00     0.000 O
ATOM     30  HD  BDP B   2      23.485   3.910   8.7600  0.00  0.00     0.000 HD
BRANCH 24 30
ATOM     30   C  BDP B   2      24.425   6.885   5.7360  0.00  0.00     0.000 C
ATOM     31   O  BDP B   2      24.965   8.011   5.8380  0.00  0.00     0.000 OA
ATOM     32   O  BDP B   2      24.440   6.180   4.6870  0.00  0.00     0.000 OA
ENDBRANCH 24 30
BRANCH 20 33
ATOM     33  O3  NAG B   3      20.260   5.477   7.2240  0.00  0.00     0.000 O
BRANCH 33 36
ATOM     34  C1  NAG B   3      17.446   7.950   7.5730  0.00  0.00     0.000 C
ATOM     35  C2  NAG B   3      18.392   6.830   7.9620  0.00  0.00     0.000 C
ATOM     36  C3  NAG B   3      19.516   6.662   6.9280  0.00  0.00     0.000 C
ATOM     37  C4  NAG B   3      18.905   6.527   5.5360  0.00  0.00     0.000 C
ATOM     38  C5  NAG B   3      17.909   7.655   5.2830  0.00  0.00     0.000 C
ATOM     39  O5  NAG B   3      16.911   7.653   6.2910  0.00  0.00     0.000 O
ATOM     40   O  NAG B   3      19.939   6.571   4.5400  0.00  0.00     0.000 O
ATOM     42  HD  NAG B   3      19.439   7.205   4.2260  0.00  0.00     0.000 HD
ATOM     42   C  NAG B   3      17.152   7.526   3.9630  0.00  0.00     0.000 C
ATOM     43   O  NAG B   3      16.314   6.365   4.0030  0.00  0.00     0.000 O
ATOM     45  HD  NAG B   3      15.814   6.999   3.6900  0.00  0.00     0.000 HD
BRANCH 35 47
ATOM     45   N  NAG B   3      18.183   6.048   9.1750  0.00  0.00     0.000 N
ATOM     47  HD  NAG B   3      18.022   5.596   8.4540  0.00  0.00     0.000 HD
ATOM     47   C  NAG B   3      18.955   6.153  10.2380  0.00  0.00     0.000 C
ATOM     48   C  NAG B   3      18.613   5.261  11.3940  0.00  0.00     0.000 C
ATOM     49   O  NAG B   3      19.917   6.918  10.2710  0.00  0.00     0.000 OA
ENDBRANCH 35 47
BRANCH 34 50
ATOM     50  O4  BDP B   4      16.433   7.888   8.5550  0.00  0.00     0.000 O
BRANCH 50 54
ATOM     51  C1  BDP B   4      13.835  10.097  10.7730  0.00  0.00     0.000 C
ATOM     52  C2  BDP B   4      13.693  10.280   9.2670  0.00  0.00     0.000 C
ATOM     53  C3  BDP B   4      14.419   9.165   8.5780  0.00  0.00     0.000 C
ATOM     54  C4  BDP B   4      15.895   9.118   9.0680  0.00  0.00     0.000 C
ATOM     55  C5  BDP B   4      16.002   9.139  10.5860  0.00  0.00     0.000 C
ATOM     56  O5  BDP B   4      15.203  10.187  11.1280  0.00  0.00     0.000 O
ATOM     57   O  BDP B   4      12.331  10.250   8.8960  0.00  0.00     0.000 O
ATOM     59  HD  BDP B   4      12.124  11.080   8.7580  0.00  0.00     0.000 HD
ATOM     59   O  BDP B   4      14.427   9.476   7.1700  0.00  0.00     0.000 O
ATOM     61  HD  BDP B   4      14.220  10.306   7.0310  0.00  0.00     0.000 HD
BRANCH 55 61
ATOM     61   C  BDP B   4      17.451   9.360  10.9830  0.00  0.00     0.000 C
ATOM     62   O  BDP B   4      17.853   8.852  12.0620  0.00  0.00     0.000 OA
ATOM     63   O  BDP B   4      18.188  10.044  10.2090  0.00  0.00     0.000 OA
ENDBRANCH 55 61
BRANCH 51 64
ATOM     64  O3  NAG B   5      13.074  11.145  11.4040  0.00  0.00     0.000 O
BRANCH 64 67
ATOM     65  C1  NAG B   5      11.217  10.432  14.5090  0.00  0.00     0.000 C
ATOM     66  C2  NAG B   5      11.535  10.447  13.0230  0.00  0.00     0.000 C
ATOM     67  C3  NAG B   5      12.951  10.963  12.8010  0.00  0.00     0.000 C
ATOM     68  C4  NAG B   5      13.166  12.306  13.5130  0.00  0.00     0.000 C
ATOM     69  C5  NAG B   5      12.734  12.218  14.9680  0.00  0.00     0.000 C
ATOM     70  O5  NAG B   5      11.390  11.722  15.0500  0.00  0.00     0.000 O
ATOM     71   O  NAG B   5      14.528  12.661  13.4040  0.00  0.00     0.000 O
ATOM     73  HD  NAG B   5      14.187  13.442  13.2510  0.00  0.00     0.000 HD
ATOM     73   C  NAG B   5      12.795  13.551  15.7270  0.00  0.00     0.000 C
ATOM     74   O  NAG B   5      11.858  14.482  15.1450  0.00  0.00     0.000 O
ATOM     76  HD  NAG B   5      11.517  15.263  14.9920  0.00  0.00     0.000 HD
BRANCH 66 78
ATOM     76   N  NAG B   5      11.216   9.062  12.6280  0.00  0.00     0.000 N
ATOM     78  HD  NAG B   5      11.009   9.862  12.3690  0.00  0.00     0.000 HD
ATOM     78   C  NAG B   5      10.586   8.687  11.5040  0.00  0.00     0.000 C
ATOM     79   C  NAG B   5      10.423   7.197  11.3750  0.00  0.00     0.000 C
ATOM     80   O  NAG B   5      10.156   9.520  10.6280  0.00  0.00     0.000 OA
ENDBRANCH 66 78
BRANCH 65 81
ATOM     81  O4  BDP B   6       9.870   9.991  14.7200  0.00  0.00     0.000 O
BRANCH 81 85
ATOM     82  C1  BDP B   6       7.332   8.523  17.8450  0.00  0.00     0.000 C
ATOM     83  C2  BDP B   6       7.742   9.992  17.9010  0.00  0.00     0.000 C
ATOM     84  C3  BDP B   6       8.286  10.509  16.5670  0.00  0.00     0.000 C
ATOM     85  C4  BDP B   6       9.389   9.607  16.0100  0.00  0.00     0.000 C
ATOM     86  C5  BDP B   6       8.870   8.150  16.0360  0.00  0.00     0.000 C
ATOM     87  O5  BDP B   6       8.427   7.752  17.3730  0.00  0.00     0.000 O
ATOM     88   O  BDP B   6       6.556  10.705  18.2420  0.00  0.00     0.000 O
ATOM     90  HD  BDP B   6       6.130  11.430  18.0330  0.00  0.00     0.000 HD
ATOM     90   O  BDP B   6       8.754  11.851  16.7280  0.00  0.00     0.000 O
ATOM     92  HD  BDP B   6       8.328  12.575  16.5190  0.00  0.00     0.000 HD
BRANCH 86 92
ATOM     92   C  BDP B   6       9.987   7.183  15.7250  0.00  0.00     0.000 C
ATOM     93   O  BDP B   6      10.811   6.868  16.6360  0.00  0.00     0.000 OA
ATOM     94   O  BDP B   6      10.038   6.705  14.5490  0.00  0.00     0.000 OA
ENDBRANCH 86 92
BRANCH 82 95
ATOM     95  O3  NAG B   7       7.026   8.086  19.1840  0.00  0.00     0.000 O
BRANCH 95 98
ATOM     96  C1  NAG B   7       4.266   6.301  20.7760  0.00  0.00     0.000 C
ATOM     97  C2  NAG B   7       5.301   7.407  20.6140  0.00  0.00     0.000 C
ATOM     98  C3  NAG B   7       6.099   7.017  19.3710  0.00  0.00     0.000 C
ATOM     99  C4  NAG B   7       6.762   5.659  19.5850  0.00  0.00     0.000 C
ATOM    100  C5  NAG B   7       5.730   4.606  19.9930  0.00  0.00     0.000 C
ATOM    101  O5  NAG B   7       4.979   5.100  21.0910  0.00  0.00     0.000 O
BRANCH 97 104
ATOM    102   N  NAG B   7       4.793   8.753  20.3150  0.00  0.00     0.000 N
ATOM    104  HD  NAG B   7       4.644   9.512  19.9250  0.00  0.00     0.000 HD
ATOM    104   O  NAG B   7       4.491  10.977  20.6180  0.00  0.00     0.000 OA
ATOM    105   C  NAG B   7       4.930   9.885  21.0300  0.00  0.00     0.000 C
ATOM    106   C  NAG B   7       5.636   9.833  22.3420  0.00  0.00     0.000 C
ENDBRANCH 97 104
ATOM    107   O  NAG B   7       5.424   2.316  20.3990  0.00  0.00     0.000 O
ATOM    109  HD  NAG B   7       5.070   3.028  20.0570  0.00  0.00     0.000 HD
ATOM    109   O  NAG B   7       5.424   2.316  20.3990  0.00  0.00     0.000 O
ATOM    111  HD  NAG B   7       5.070   3.028  20.0570  0.00  0.00     0.000 HD
ENDBRANCH 95 98
ENDBRANCH 82 95
ENDBRANCH 81 85
ENDBRANCH 65 81
ENDBRANCH 64 67
ENDBRANCH 51 64
ENDBRANCH 50 54
ENDBRANCH 34 50
ENDBRANCH 33 36
ENDBRANCH 20 33
ENDBRANCH 19 23
ENDBRANCH 1 19
TORSDOF 19
ENDMDL
MODEL 65
REMARK VINA RESULT:      -5.5      9.080     17.394
ROOT
ATOM      1  C1  NAG B   1       9.594   7.364  14.5070  0.00  0.00     0.000 C
ATOM      2  C2  NAG B   1       9.720   6.947  15.9700  0.00  0.00     0.000 C
ATOM      3  C3  NAG B   1       8.809   7.758  16.8690  0.00  0.00     0.000 C
ATOM      4  C4  NAG B   1       9.204   9.214  16.6430  0.00  0.00     0.000 C
ATOM      5  C5  NAG B   1       8.923   9.591  15.1820  0.00  0.00     0.000 C
ATOM      6  O5  NAG B   1       9.699   8.777  14.2760  0.00  0.00     0.000 O
ATOM      7   O  NAG B   1       8.953   7.396  18.2610  0.00  0.00     0.000 O
ATOM      9  HD  NAG B   1       9.068   6.638  17.8580  0.00  0.00     0.000 HD
ATOM      9   O  NAG B   1       8.465  10.060  17.5080  0.00  0.00     0.000 O
ATOM     11  HD  NAG B   1       8.581   9.303  17.1040  0.00  0.00     0.000 HD
ATOM     11   C  NAG B   1       9.184  11.087  14.9680  0.00  0.00     0.000 C
ATOM     12   O  NAG B   1       9.579  11.356  13.6240  0.00  0.00     0.000 O
ATOM     14  HD  NAG B   1       9.695  10.598  13.2210  0.00  0.00     0.000 HD
ENDROOT
BRANCH 2 16
ATOM     14   N  NAG B   1       9.581   5.482  15.8890  0.00  0.00     0.000 N
ATOM     16  HD  NAG B   1       9.888   4.782  15.4820  0.00  0.00     0.000 HD
ATOM     16   C  NAG B   1      10.428   4.629  16.4900  0.00  0.00     0.000 C
ATOM     17   C  NAG B   1      11.602   5.160  17.2700  0.00  0.00     0.000 C
ATOM     18   O  NAG B   1      10.251   3.412  16.4410  0.00  0.00     0.000 OA
ENDBRANCH 2 16
BRANCH 1 19
ATOM     19  O4  BDP B   2      10.742   6.782  13.9050  0.00  0.00     0.000 O
BRANCH 19 23
ATOM     20  C1  BDP B   2      14.078   8.183  11.9420  0.00  0.00     0.000 C
ATOM     21  C2  BDP B   2      14.006   8.459  13.4290  0.00  0.00     0.000 C
ATOM     22  C3  BDP B   2      12.992   7.565  14.1050  0.00  0.00     0.000 C
ATOM     23  C4  BDP B   2      11.659   7.710  13.3760  0.00  0.00     0.000 C
ATOM     24  C5  BDP B   2      11.852   7.398  11.9050  0.00  0.00     0.000 C
ATOM     25  O5  BDP B   2      12.792   8.298  11.3500  0.00  0.00     0.000 O
ATOM     26   O  BDP B   2      15.273   8.275  14.0230  0.00  0.00     0.000 O
ATOM     28  HD  BDP B   2      15.488   8.257  13.1840  0.00  0.00     0.000 HD
ATOM     28   O  BDP B   2      12.891   7.927  15.4910  0.00  0.00     0.000 O
ATOM     30  HD  BDP B   2      13.106   7.908  14.6530  0.00  0.00     0.000 HD
BRANCH 24 30
ATOM     30   C  BDP B   2      10.589   7.532  11.1320  0.00  0.00     0.000 C
ATOM     31   O  BDP B   2      10.051   8.663  11.1030  0.00  0.00     0.000 OA
ATOM     32   O  BDP B   2      10.125   6.507  10.5560  0.00  0.00     0.000 OA
ENDBRANCH 24 30
BRANCH 20 33
ATOM     33  O3  NAG B   3      14.909   9.203  11.4450  0.00  0.00     0.000 O
BRANCH 33 36
ATOM     34  C1  NAG B   3      16.300   9.102   7.9520  0.00  0.00     0.000 C
ATOM     35  C2  NAG B   3      16.225   8.844   9.4440  0.00  0.00     0.000 C
ATOM     36  C3  NAG B   3      14.865   9.273  10.0180  0.00  0.00     0.000 C
ATOM     37  C4  NAG B   3      14.574  10.713   9.6030  0.00  0.00     0.000 C
ATOM     38  C5  NAG B   3      14.762  10.878   8.0970  0.00  0.00     0.000 C
ATOM     39  O5  NAG B   3      16.073  10.486   7.7280  0.00  0.00     0.000 O
ATOM     40   O  NAG B   3      13.227  11.063   9.9570  0.00  0.00     0.000 O
ATOM     42  HD  NAG B   3      13.191  11.269   9.1160  0.00  0.00     0.000 HD
ATOM     42   C  NAG B   3      14.618  12.318   7.6110  0.00  0.00     0.000 C
ATOM     43   O  NAG B   3      15.678  13.115   8.1530  0.00  0.00     0.000 O
ATOM     45  HD  NAG B   3      15.642  13.321   7.3130  0.00  0.00     0.000 HD
BRANCH 35 47
ATOM     45   N  NAG B   3      17.295   8.304  10.2730  0.00  0.00     0.000 N
ATOM     47  HD  NAG B   3      17.067   9.107  10.5040  0.00  0.00     0.000 HD
ATOM     47   C  NAG B   3      17.345   7.042  10.6480  0.00  0.00     0.000 C
ATOM     48   C  NAG B   3      18.505   6.656  11.5170  0.00  0.00     0.000 C
ATOM     49   O  NAG B   3      16.477   6.233  10.3280  0.00  0.00     0.000 OA
ENDBRANCH 35 47
BRANCH 34 50
ATOM     50  O4  BDP B   4      17.630   8.762   7.6210  0.00  0.00     0.000 O
BRANCH 50 54
ATOM     51  C1  BDP B   4      20.028   7.451   4.6070  0.00  0.00     0.000 C
ATOM     52  C2  BDP B   4      19.093   8.591   4.2200  0.00  0.00     0.000 C
ATOM     53  C3  BDP B   4      18.557   9.216   5.4700  0.00  0.00     0.000 C
ATOM     54  C4  BDP B   4      17.885   8.128   6.3560  0.00  0.00     0.000 C
ATOM     55  C5  BDP B   4      18.779   6.911   6.5560  0.00  0.00     0.000 C
ATOM     56  O5  BDP B   4      19.295   6.462   5.3060  0.00  0.00     0.000 O
ATOM     57   O  BDP B   4      19.791   9.564   3.4720  0.00  0.00     0.000 O
ATOM     59  HD  BDP B   4      19.546   9.427   2.6530  0.00  0.00     0.000 HD
ATOM     59   O  BDP B   4      17.537  10.153   5.0670  0.00  0.00     0.000 O
ATOM     61  HD  BDP B   4      17.292  10.015   4.2480  0.00  0.00     0.000 HD
BRANCH 55 61
ATOM     61   C  BDP B   4      17.971   5.795   7.1930  0.00  0.00     0.000 C
ATOM     62   O  BDP B   4      18.567   5.001   7.9670  0.00  0.00     0.000 OA
ATOM     63   O  BDP B   4      16.735   5.716   6.9180  0.00  0.00     0.000 OA
ENDBRANCH 55 61
BRANCH 51 64
ATOM     64  O3  NAG B   5      20.575   6.914   3.3870  0.00  0.00     0.000 O
BRANCH 64 67
ATOM     65  C1  NAG B   5      24.031   5.633   3.2910  0.00  0.00     0.000 C
ATOM     66  C2  NAG B   5      22.899   6.645   3.2940  0.00  0.00     0.000 C
ATOM     67  C3  NAG B   5      21.583   5.950   3.6200  0.00  0.00     0.000 C
ATOM     68  C4  NAG B   5      21.356   4.741   2.7020  0.00  0.00     0.000 C
ATOM     69  C5  NAG B   5      22.577   3.836   2.6930  0.00  0.00     0.000 C
ATOM     70  O5  NAG B   5      23.750   4.600   2.3750  0.00  0.00     0.000 O
ATOM     71   O  NAG B   5      20.208   4.048   3.1430  0.00  0.00     0.000 O
ATOM     73  HD  NAG B   5      20.054   4.007   2.2920  0.00  0.00     0.000 HD
ATOM     73   C  NAG B   5      22.491   2.666   1.7030  0.00  0.00     0.000 C
ATOM     74   O  NAG B   5      22.431   3.177   0.3550  0.00  0.00     0.000 O
ATOM     76  HD  NAG B   5      22.277   3.136  -0.4960  0.00  0.00     0.000 HD
BRANCH 66 78
ATOM     76   N  NAG B   5      23.410   7.671   4.2230  0.00  0.00     0.000 N
ATOM     78  HD  NAG B   5      23.087   7.643   3.4200  0.00  0.00     0.000 HD
ATOM     78   C  NAG B   5      23.301   9.000   4.0690  0.00  0.00     0.000 C
ATOM     79   C  NAG B   5      23.908   9.787   5.1990  0.00  0.00     0.000 C
ATOM     80   O  NAG B   5      22.743   9.546   3.0510  0.00  0.00     0.000 OA
ENDBRANCH 66 78
BRANCH 65 81
ATOM     81  O4  BDP B   6      25.264   6.274   2.9390  0.00  0.00     0.000 O
BRANCH 81 85
ATOM     82  C1  BDP B   6      29.492   5.614   3.1720  0.00  0.00     0.000 C
ATOM     83  C2  BDP B   6      28.722   4.877   2.0800  0.00  0.00     0.000 C
ATOM     84  C3  BDP B   6      27.338   5.477   1.8200  0.00  0.00     0.000 C
ATOM     85  C4  BDP B   6      26.530   5.633   3.1100  0.00  0.00     0.000 C
ATOM     86  C5  BDP B   6      27.424   6.357   4.1460  0.00  0.00     0.000 C
ATOM     87  O5  BDP B   6      28.697   5.664   4.3480  0.00  0.00     0.000 O
ATOM     88   O  BDP B   6      29.521   4.996   0.9060  0.00  0.00     0.000 O
ATOM     90  HD  BDP B   6      29.441   5.149   0.0570  0.00  0.00     0.000 HD
ATOM     90   O  BDP B   6      26.636   4.670   0.8710  0.00  0.00     0.000 O
ATOM     92  HD  BDP B   6      26.556   4.822   0.0220  0.00  0.00     0.000 HD
BRANCH 86 92
ATOM     92   C  BDP B   6      26.779   6.333   5.5100  0.00  0.00     0.000 C
ATOM     93   O  BDP B   6      26.113   7.338   5.9040  0.00  0.00     0.000 OA
ATOM     94   O  BDP B   6      26.918   5.279   6.2050  0.00  0.00     0.000 OA
ENDBRANCH 86 92
BRANCH 82 95
ATOM     95  O3  NAG B   7      30.682   4.860   3.4750  0.00  0.00     0.000 O
BRANCH 95 98
ATOM     96  C1  NAG B   7      34.288   5.443   3.4970  0.00  0.00     0.000 C
ATOM     97  C2  NAG B   7      33.004   4.668   3.2340  0.00  0.00     0.000 C
ATOM     98  C3  NAG B   7      31.889   5.558   3.7790  0.00  0.00     0.000 C
ATOM     99  C4  NAG B   7      32.100   5.800   5.2710  0.00  0.00     0.000 C
ATOM    100  C5  NAG B   7      33.500   6.353   5.5420  0.00  0.00     0.000 C
ATOM    101  O5  NAG B   7      34.456   5.510   4.9180  0.00  0.00     0.000 O
BRANCH 97 104
ATOM    102   N  NAG B   7      32.618   4.445   1.8340  0.00  0.00     0.000 N
ATOM    104  HD  NAG B   7      32.172   4.434   1.0920  0.00  0.00     0.000 HD
ATOM    104   O  NAG B   7      32.108   3.244  -0.0170  0.00  0.00     0.000 OA
ATOM    105   C  NAG B   7      32.507   3.282   1.1630  0.00  0.00     0.000 C
ATOM    106   C  NAG B   7      32.857   2.010   1.8560  0.00  0.00     0.000 C
ENDBRANCH 97 104
ATOM    107   O  NAG B   7      34.894   7.239   7.2080  0.00  0.00     0.000 O
ATOM    109  HD  NAG B   7      34.657   7.299   6.3780  0.00  0.00     0.000 HD
ATOM    109   O  NAG B   7      34.894   7.239   7.2080  0.00  0.00     0.000 O
ATOM    111  HD  NAG B   7      34.657   7.299   6.3780  0.00  0.00     0.000 HD
ENDBRANCH 95 98
ENDBRANCH 82 95
ENDBRANCH 81 85
ENDBRANCH 65 81
ENDBRANCH 64 67
ENDBRANCH 51 64
ENDBRANCH 50 54
ENDBRANCH 34 50
ENDBRANCH 33 36
ENDBRANCH 20 33
ENDBRANCH 19 23
ENDBRANCH 1 19
TORSDOF 19
ENDMDL
MODEL 66
REMARK VINA RESULT:      -5.5      7.011     11.168
ROOT
ATOM      1  C1  NAG B   1       2.191   8.968  19.0080  0.00  0.00     0.000 C
ATOM      2  C2  NAG B   1       1.751   7.538  18.7080  0.00  0.00     0.000 C
ATOM      3  C3  NAG B   1       1.534   7.313  17.2250  0.00  0.00     0.000 C
ATOM      4  C4  NAG B   1       0.490   8.343  16.8050  0.00  0.00     0.000 C
ATOM      5  C5  NAG B   1       1.060   9.752  17.0150  0.00  0.00     0.000 C
ATOM      6  O5  NAG B   1       1.375   9.984  18.4050  0.00  0.00     0.000 O
ATOM      7   O  NAG B   1       1.079   5.971  16.9370  0.00  0.00     0.000 O
ATOM      9  HD  NAG B   1       1.613   5.848  17.6080  0.00  0.00     0.000 HD
ATOM      9   O  NAG B   1       0.147   8.162  15.4420  0.00  0.00     0.000 O
ATOM     11  HD  NAG B   1       0.681   8.039  16.1120  0.00  0.00     0.000 HD
ATOM     11   C  NAG B   1       0.081  10.800  16.4720  0.00  0.00     0.000 C
ATOM     12   O  NAG B   1       0.198  12.033  17.1780  0.00  0.00     0.000 O
ATOM     14  HD  NAG B   1       0.732  11.910  17.8480  0.00  0.00     0.000 HD
ENDROOT
BRANCH 2 16
ATOM     14   N  NAG B   1       2.680   6.506  19.2020  0.00  0.00     0.000 N
ATOM     16  HD  NAG B   1       3.278   6.351  19.8080  0.00  0.00     0.000 HD
ATOM     16   C  NAG B   1       2.420   5.734  20.2710  0.00  0.00     0.000 C
ATOM     17   C  NAG B   1       1.139   5.922  21.0400  0.00  0.00     0.000 C
ATOM     18   O  NAG B   1       3.199   4.848  20.6240  0.00  0.00     0.000 OA
ENDBRANCH 2 16
BRANCH 1 19
ATOM     19  O4  BDP B   2       1.986   9.082  20.4100  0.00  0.00     0.000 O
BRANCH 19 23
ATOM     20  C1  BDP B   2       4.815  12.004  21.0440  0.00  0.00     0.000 C
ATOM     21  C2  BDP B   2       5.316  10.574  21.0250  0.00  0.00     0.000 C
ATOM     22  C3  BDP B   2       4.308   9.649  20.3820  0.00  0.00     0.000 C
ATOM     23  C4  BDP B   2       2.966   9.833  21.0850  0.00  0.00     0.000 C
ATOM     24  C5  BDP B   2       2.564  11.294  21.0300  0.00  0.00     0.000 C
ATOM     25  O5  BDP B   2       3.546  12.080  21.6780  0.00  0.00     0.000 O
ATOM     26   O  BDP B   2       6.544  10.495  20.3330  0.00  0.00     0.000 O
ATOM     28  HD  BDP B   2       6.465  11.354  20.4160  0.00  0.00     0.000 HD
ATOM     28   O  BDP B   2       4.783   8.296  20.4710  0.00  0.00     0.000 O
ATOM     30  HD  BDP B   2       4.705   9.155  20.5540  0.00  0.00     0.000 HD
BRANCH 24 30
ATOM     30   C  BDP B   2       1.266  11.545  21.7100  0.00  0.00     0.000 C
ATOM     31   O  BDP B   2       1.150  11.146  22.8920  0.00  0.00     0.000 OA
ATOM     32   O  BDP B   2       0.354  12.135  21.0640  0.00  0.00     0.000 OA
ENDBRANCH 24 30
BRANCH 20 33
ATOM     33  O3  NAG B   3       5.764  12.687  21.8260  0.00  0.00     0.000 O
BRANCH 33 36
ATOM     34  C1  NAG B   3       6.855  16.193  21.0100  0.00  0.00     0.000 C
ATOM     35  C2  NAG B   3       6.850  14.677  20.9750  0.00  0.00     0.000 C
ATOM     36  C3  NAG B   3       5.626  14.105  21.7070  0.00  0.00     0.000 C
ATOM     37  C4  NAG B   3       5.544  14.712  23.1060  0.00  0.00     0.000 C
ATOM     38  C5  NAG B   3       5.644  16.233  23.0280  0.00  0.00     0.000 C
ATOM     39  O5  NAG B   3       6.842  16.606  22.3690  0.00  0.00     0.000 O
ATOM     40   O  NAG B   3       4.303  14.346  23.7280  0.00  0.00     0.000 O
ATOM     42  HD  NAG B   3       4.239  15.204  23.8210  0.00  0.00     0.000 HD
ATOM     42   C  NAG B   3       5.701  16.918  24.3920  0.00  0.00     0.000 C
ATOM     43   O  NAG B   3       6.916  16.554  25.0600  0.00  0.00     0.000 O
ATOM     45  HD  NAG B   3       6.851  17.412  25.1520  0.00  0.00     0.000 HD
BRANCH 35 47
ATOM     45   N  NAG B   3       7.911  13.914  20.3310  0.00  0.00     0.000 N
ATOM     47  HD  NAG B   3       7.920  13.835  21.1940  0.00  0.00     0.000 HD
ATOM     47   C  NAG B   3       7.746  13.279  19.1880  0.00  0.00     0.000 C
ATOM     48   C  NAG B   3       8.936  12.524  18.6730  0.00  0.00     0.000 C
ATOM     49   O  NAG B   3       6.672  13.282  18.5910  0.00  0.00     0.000 OA
ENDBRANCH 35 47
BRANCH 34 50
ATOM     50  O4  BDP B   4       8.082  16.537  20.4030  0.00  0.00     0.000 O
BRANCH 50 54
ATOM     51  C1  BDP B   4       9.668  19.245  17.8130  0.00  0.00     0.000 C
ATOM     52  C2  BDP B   4      10.035  19.478  19.2740  0.00  0.00     0.000 C
ATOM     53  C3  BDP B   4       9.717  18.238  20.0520  0.00  0.00     0.000 C
ATOM     54  C4  BDP B   4       8.226  17.850  19.8340  0.00  0.00     0.000 C
ATOM     55  C5  BDP B   4       7.844  17.822  18.3610  0.00  0.00     0.000 C
ATOM     56  O5  BDP B   4       8.274  19.016  17.7120  0.00  0.00     0.000 O
ATOM     57   O  BDP B   4      11.412  19.764  19.3940  0.00  0.00     0.000 O
ATOM     59  HD  BDP B   4      11.447  20.621  19.5140  0.00  0.00     0.000 HD
ATOM     59   O  BDP B   4       9.893  18.561  21.4470  0.00  0.00     0.000 O
ATOM     61  HD  BDP B   4       9.928  19.418  21.5680  0.00  0.00     0.000 HD
BRANCH 55 61
ATOM     61   C  BDP B   4       6.336  17.702  18.2360  0.00  0.00     0.000 C
ATOM     62   O  BDP B   4       5.869  16.676  17.6770  0.00  0.00     0.000 OA
ATOM     63   O  BDP B   4       5.618  18.639  18.7030  0.00  0.00     0.000 OA
ENDBRANCH 55 61
BRANCH 51 64
ATOM     64  O3  NAG B   5      10.045  20.429  17.0840  0.00  0.00     0.000 O
BRANCH 64 67
ATOM     65  C1  NAG B   5      10.788  20.208  13.4790  0.00  0.00     0.000 C
ATOM     66  C2  NAG B   5      11.003  20.079  14.9770  0.00  0.00     0.000 C
ATOM     67  C3  NAG B   5       9.700  20.358  15.7140  0.00  0.00     0.000 C
ATOM     68  C4  NAG B   5       9.091  21.695  15.2710  0.00  0.00     0.000 C
ATOM     69  C5  NAG B   5       9.001  21.768  13.7550  0.00  0.00     0.000 C
ATOM     70  O5  NAG B   5      10.284  21.489  13.1750  0.00  0.00     0.000 O
ATOM     71   O  NAG B   5       7.818  21.831  15.8660  0.00  0.00     0.000 O
ATOM     73  HD  NAG B   5       8.094  22.644  15.9840  0.00  0.00     0.000 HD
ATOM     73   C  NAG B   5       8.521  23.122  13.2140  0.00  0.00     0.000 C
ATOM     74   O  NAG B   5       9.480  24.145  13.5520  0.00  0.00     0.000 O
ATOM     76  HD  NAG B   5       9.756  24.958  13.6700  0.00  0.00     0.000 HD
BRANCH 66 78
ATOM     76   N  NAG B   5      11.650  18.754  15.0390  0.00  0.00     0.000 N
ATOM     78  HD  NAG B   5      11.783  19.544  15.3680  0.00  0.00     0.000 HD
ATOM     78   C  NAG B   5      12.625  18.390  15.8870  0.00  0.00     0.000 C
ATOM     79   C  NAG B   5      13.066  16.962  15.7160  0.00  0.00     0.000 C
ATOM     80   O  NAG B   5      13.138  19.186  16.7510  0.00  0.00     0.000 OA
ENDBRANCH 66 78
BRANCH 65 81
ATOM     81  O4  BDP B   6      12.022  19.993  12.7830  0.00  0.00     0.000 O
BRANCH 81 85
ATOM     82  C1  BDP B   6      13.476  18.740   8.9520  0.00  0.00     0.000 C
ATOM     83  C2  BDP B   6      12.560  19.960   8.9940  0.00  0.00     0.000 C
ATOM     84  C3  BDP B   6      12.434  20.561  10.3970  0.00  0.00     0.000 C
ATOM     85  C4  BDP B   6      12.063  19.505  11.4400  0.00  0.00     0.000 C
ATOM     86  C5  BDP B   6      13.034  18.311  11.2750  0.00  0.00     0.000 C
ATOM     87  O5  BDP B   6      13.029  17.789   9.9080  0.00  0.00     0.000 O
ATOM     88   O  BDP B   6      13.156  20.913   8.1190  0.00  0.00     0.000 O
ATOM     90  HD  BDP B   6      13.326  21.761   8.0720  0.00  0.00     0.000 HD
ATOM     90   O  BDP B   6      11.476  21.622  10.3790  0.00  0.00     0.000 O
ATOM     92  HD  BDP B   6      11.646  22.470  10.3320  0.00  0.00     0.000 HD
BRANCH 86 92
ATOM     92   C  BDP B   6      12.578  17.139  12.1100  0.00  0.00     0.000 C
ATOM     93   O  BDP B   6      11.393  17.115  12.5590  0.00  0.00     0.000 OA
ATOM     94   O  BDP B   6      13.413  16.202  12.3080  0.00  0.00     0.000 OA
ENDBRANCH 86 92
BRANCH 82 95
ATOM     95  O3  NAG B   7      13.370  18.138   7.6470  0.00  0.00     0.000 O
BRANCH 95 98
ATOM     96  C1  NAG B   7      15.587  15.757   5.9860  0.00  0.00     0.000 C
ATOM     97  C2  NAG B   7      14.880  17.089   6.1960  0.00  0.00     0.000 C
ATOM     98  C3  NAG B   7      13.984  16.871   7.4130  0.00  0.00     0.000 C
ATOM     99  C4  NAG B   7      12.988  15.749   7.1310  0.00  0.00     0.000 C
ATOM    100  C5  NAG B   7      13.711  14.479   6.6790  0.00  0.00     0.000 C
ATOM    101  O5  NAG B   7      14.586  14.804   5.6100  0.00  0.00     0.000 O
BRANCH 97 104
ATOM    102   N  NAG B   7      15.639  18.279   6.6050  0.00  0.00     0.000 N
ATOM    104  HD  NAG B   7      15.881  19.005   7.0110  0.00  0.00     0.000 HD
ATOM    104   O  NAG B   7      16.607  20.312   6.3680  0.00  0.00     0.000 OA
ATOM    105   C  NAG B   7      16.012  19.340   5.8640  0.00  0.00     0.000 C
ATOM    106   C  NAG B   7      15.691  19.355   4.4090  0.00  0.00     0.000 C
ENDBRANCH 97 104
ATOM    107   O  NAG B   7      13.406  12.210   6.1650  0.00  0.00     0.000 O
ATOM    109  HD  NAG B   7      13.930  12.787   6.5430  0.00  0.00     0.000 HD
ATOM    109   O  NAG B   7      13.406  12.210   6.1650  0.00  0.00     0.000 O
ATOM    111  HD  NAG B   7      13.930  12.787   6.5430  0.00  0.00     0.000 HD
ENDBRANCH 95 98
ENDBRANCH 82 95
ENDBRANCH 81 85
ENDBRANCH 65 81
ENDBRANCH 64 67
ENDBRANCH 51 64
ENDBRANCH 50 54
ENDBRANCH 34 50
ENDBRANCH 33 36
ENDBRANCH 20 33
ENDBRANCH 19 23
ENDBRANCH 1 19
TORSDOF 19
ENDMDL
MODEL 67
REMARK VINA RESULT:      -5.5      5.188     11.536
ROOT
ATOM      1  C1  NAG B   1      11.183   4.394  27.2870  0.00  0.00     0.000 C
ATOM      2  C2  NAG B   1      11.121   4.679  28.7850  0.00  0.00     0.000 C
ATOM      3  C3  NAG B   1      12.247   5.588  29.2330  0.00  0.00     0.000 C
ATOM      4  C4  NAG B   1      13.533   4.874  28.8300  0.00  0.00     0.000 C
ATOM      5  C5  NAG B   1      13.579   4.745  27.3020  0.00  0.00     0.000 C
ATOM      6  O5  NAG B   1      12.468   3.963  26.8120  0.00  0.00     0.000 O
ATOM      7   O  NAG B   1      12.217   5.832  30.6580  0.00  0.00     0.000 O
ATOM      9  HD  NAG B   1      11.376   5.781  30.4590  0.00  0.00     0.000 HD
ATOM      9   O  NAG B   1      14.660   5.605  29.2840  0.00  0.00     0.000 O
ATOM     11  HD  NAG B   1      13.818   5.555  29.0850  0.00  0.00     0.000 HD
ATOM     11   C  NAG B   1      14.925   4.153  26.8660  0.00  0.00     0.000 C
ATOM     12   O  NAG B   1      14.800   3.425  25.6460  0.00  0.00     0.000 O
ATOM     14  HD  NAG B   1      13.959   3.375  25.4480  0.00  0.00     0.000 HD
ENDROOT
BRANCH 2 16
ATOM     14   N  NAG B   1       9.817   5.244  29.1780  0.00  0.00     0.000 N
ATOM     16  HD  NAG B   1       8.974   5.235  28.9800  0.00  0.00     0.000 HD
ATOM     16   C  NAG B   1       8.923   4.575  29.9260  0.00  0.00     0.000 C
ATOM     17   C  NAG B   1       9.222   3.171  30.3790  0.00  0.00     0.000 C
ATOM     18   O  NAG B   1       7.865   5.099  30.2760  0.00  0.00     0.000 OA
ENDBRANCH 2 16
BRANCH 1 19
ATOM     19  O4  BDP B   2      10.315   3.278  27.1340  0.00  0.00     0.000 O
BRANCH 19 23
ATOM     20  C1  BDP B   2       9.641   3.779  23.1040  0.00  0.00     0.000 C
ATOM     21  C2  BDP B   2       8.768   4.590  24.0390  0.00  0.00     0.000 C
ATOM     22  C3  BDP B   2       9.363   4.655  25.4270  0.00  0.00     0.000 C
ATOM     23  C4  BDP B   2       9.635   3.230  25.9020  0.00  0.00     0.000 C
ATOM     24  C5  BDP B   2      10.524   2.524  24.8980  0.00  0.00     0.000 C
ATOM     25  O5  BDP B   2       9.879   2.485  23.6390  0.00  0.00     0.000 O
ATOM     26   O  BDP B   2       8.593   5.897  23.5350  0.00  0.00     0.000 O
ATOM     28  HD  BDP B   2       8.949   5.509  22.8470  0.00  0.00     0.000 HD
ATOM     28   O  BDP B   2       8.457   5.351  26.2980  0.00  0.00     0.000 O
ATOM     30  HD  BDP B   2       8.813   4.963  25.6100  0.00  0.00     0.000 HD
BRANCH 24 30
ATOM     30   C  BDP B   2      10.820   1.123  25.2960  0.00  0.00     0.000 C
ATOM     31   O  BDP B   2      10.066   0.228  24.8500  0.00  0.00     0.000 OA
ATOM     32   O  BDP B   2      11.802   0.911  26.0630  0.00  0.00     0.000 OA
ENDBRANCH 24 30
BRANCH 20 33
ATOM     33  O3  NAG B   3       8.870   3.661  21.9340  0.00  0.00     0.000 O
BRANCH 33 36
ATOM     34  C1  NAG B   3      10.514   3.275  18.5730  0.00  0.00     0.000 C
ATOM     35  C2  NAG B   3       9.946   3.981  19.7890  0.00  0.00     0.000 C
ATOM     36  C3  NAG B   3       9.582   2.981  20.8970  0.00  0.00     0.000 C
ATOM     37  C4  NAG B   3       8.687   1.888  20.3170  0.00  0.00     0.000 C
ATOM     38  C5  NAG B   3       9.314   1.307  19.0520  0.00  0.00     0.000 C
ATOM     39  O5  NAG B   3       9.549   2.340  18.1110  0.00  0.00     0.000 O
ATOM     40   O  NAG B   3       8.502   0.842  21.2830  0.00  0.00     0.000 O
ATOM     42  HD  NAG B   3       8.789   0.355  20.6270  0.00  0.00     0.000 HD
ATOM     42   C  NAG B   3       8.425   0.297  18.3320  0.00  0.00     0.000 C
ATOM     43   O  NAG B   3       7.256   0.957  17.8320  0.00  0.00     0.000 O
ATOM     45  HD  NAG B   3       7.542   0.470  17.1760  0.00  0.00     0.000 HD
BRANCH 35 47
ATOM     45   N  NAG B   3       9.705   5.411  19.9330  0.00  0.00     0.000 N
ATOM     47  HD  NAG B   3       8.981   4.941  20.0080  0.00  0.00     0.000 HD
ATOM     47   C  NAG B   3      10.539   6.220  20.5550  0.00  0.00     0.000 C
ATOM     48   C  NAG B   3      10.129   7.661  20.6320  0.00  0.00     0.000 C
ATOM     49   O  NAG B   3      11.581   5.814  21.0660  0.00  0.00     0.000 OA
ENDBRANCH 35 47
BRANCH 34 50
ATOM     50  O4  BDP B   4      10.683   4.314  17.6310  0.00  0.00     0.000 O
BRANCH 50 54
ATOM     51  C1  BDP B   4      12.545   5.383  14.1760  0.00  0.00     0.000 C
ATOM     52  C2  BDP B   4      11.368   4.432  13.9910  0.00  0.00     0.000 C
ATOM     53  C3  BDP B   4      10.560   4.419  15.2520  0.00  0.00     0.000 C
ATOM     54  C4  BDP B   4      11.474   4.059  16.4580  0.00  0.00     0.000 C
ATOM     55  C5  BDP B   4      12.743   4.900  16.4950  0.00  0.00     0.000 C
ATOM     56  O5  BDP B   4      13.375   4.903  15.2180  0.00  0.00     0.000 O
ATOM     57   O  BDP B   4      10.556   4.860  12.9190  0.00  0.00     0.000 O
ATOM     59  HD  BDP B   4      10.758   4.328  12.2660  0.00  0.00     0.000 HD
ATOM     59   O  BDP B   4       9.577   3.373  15.1100  0.00  0.00     0.000 O
ATOM     61  HD  BDP B   4       9.779   2.840  14.4570  0.00  0.00     0.000 HD
BRANCH 55 61
ATOM     61   C  BDP B   4      13.698   4.320  17.5230  0.00  0.00     0.000 C
ATOM     62   O  BDP B   4      14.277   3.237  17.2470  0.00  0.00     0.000 OA
ATOM     63   O  BDP B   4      13.868   4.954  18.6090  0.00  0.00     0.000 OA
ENDBRANCH 55 61
BRANCH 51 64
ATOM     64  O3  NAG B   5      13.263   5.421  12.9270  0.00  0.00     0.000 O
BRANCH 64 67
ATOM     65  C1  NAG B   5      14.377   8.486  11.2070  0.00  0.00     0.000 C
ATOM     66  C2  NAG B   5      13.468   7.330  11.5890  0.00  0.00     0.000 C
ATOM     67  C3  NAG B   5      14.048   6.589  12.7870  0.00  0.00     0.000 C
ATOM     68  C4  NAG B   5      15.510   6.195  12.5360  0.00  0.00     0.000 C
ATOM     69  C5  NAG B   5      16.318   7.396  12.0700  0.00  0.00     0.000 C
ATOM     70  O5  NAG B   5      15.676   8.009  10.9420  0.00  0.00     0.000 O
ATOM     71   O  NAG B   5      16.042   5.652  13.7250  0.00  0.00     0.000 O
ATOM     73  HD  NAG B   5      16.386   5.084  13.1690  0.00  0.00     0.000 HD
ATOM     73   C  NAG B   5      17.764   7.069  11.6720  0.00  0.00     0.000 C
ATOM     74   O  NAG B   5      17.765   6.189  10.5290  0.00  0.00     0.000 O
ATOM     76  HD  NAG B   5      18.109   5.622   9.9730  0.00  0.00     0.000 HD
BRANCH 66 78
ATOM     76   N  NAG B   5      12.139   7.901  11.8810  0.00  0.00     0.000 N
ATOM     78  HD  NAG B   5      12.490   7.373  11.2910  0.00  0.00     0.000 HD
ATOM     78   C  NAG B   5      10.979   7.528  11.3180  0.00  0.00     0.000 C
ATOM     79   C  NAG B   5       9.788   8.286  11.8380  0.00  0.00     0.000 C
ATOM     80   O  NAG B   5      10.895   6.619  10.4160  0.00  0.00     0.000 OA
ENDBRANCH 66 78
BRANCH 65 81
ATOM     81  O4  BDP B   6      13.860   9.159  10.0510  0.00  0.00     0.000 O
BRANCH 81 85
ATOM     82  C1  BDP B   6      13.845  13.029   8.2120  0.00  0.00     0.000 C
ATOM     83  C2  BDP B   6      15.184  12.304   8.3180  0.00  0.00     0.000 C
ATOM     84  C3  BDP B   6      15.028  10.807   8.6000  0.00  0.00     0.000 C
ATOM     85  C4  BDP B   6      14.115  10.542   9.7990  0.00  0.00     0.000 C
ATOM     86  C5  BDP B   6      12.814  11.354   9.5940  0.00  0.00     0.000 C
ATOM     87  O5  BDP B   6      13.086  12.778   9.3860  0.00  0.00     0.000 O
ATOM     88   O  BDP B   6      15.817  12.487   7.0550  0.00  0.00     0.000 O
ATOM     90  HD  BDP B   6      16.280  12.047   6.4700  0.00  0.00     0.000 HD
ATOM     90   O  BDP B   6      16.317  10.220   8.7990  0.00  0.00     0.000 O
ATOM     92  HD  BDP B   6      16.780   9.780   8.2140  0.00  0.00     0.000 HD
BRANCH 86 92
ATOM     92   C  BDP B   6      11.970  11.329  10.8450  0.00  0.00     0.000 C
ATOM     93   O  BDP B   6      12.532  11.203  11.9750  0.00  0.00     0.000 OA
ATOM     94   O  BDP B   6      10.714  11.458  10.7080  0.00  0.00     0.000 OA
ENDBRANCH 86 92
BRANCH 82 95
ATOM     95  O3  NAG B   7      14.102  14.446   8.1460  0.00  0.00     0.000 O
BRANCH 95 98
ATOM     96  C1  NAG B   7      13.342  17.189   5.8580  0.00  0.00     0.000 C
ATOM     97  C2  NAG B   7      14.206  16.355   6.7940  0.00  0.00     0.000 C
ATOM     98  C3  NAG B   7      13.275  15.264   7.3190  0.00  0.00     0.000 C
ATOM     99  C4  NAG B   7      12.100  15.897   8.0590  0.00  0.00     0.000 C
ATOM    100  C5  NAG B   7      11.388  16.923   7.1770  0.00  0.00     0.000 C
ATOM    101  O5  NAG B   7      12.349  17.833   6.6630  0.00  0.00     0.000 O
BRANCH 97 104
ATOM    102   N  NAG B   7      15.321  15.589   6.2200  0.00  0.00     0.000 N
ATOM    104  HD  NAG B   7      15.857  14.942   6.0110  0.00  0.00     0.000 HD
ATOM    104   O  NAG B   7      17.480  14.993   5.8810  0.00  0.00     0.000 OA
ATOM    105   C  NAG B   7      16.645  15.766   6.3910  0.00  0.00     0.000 C
ATOM    106   C  NAG B   7      17.121  16.908   7.2220  0.00  0.00     0.000 C
ENDBRANCH 97 104
ATOM    107   O  NAG B   7       9.514  18.328   7.0450  0.00  0.00     0.000 O
ATOM    109  HD  NAG B   7      10.032  17.796   6.6010  0.00  0.00     0.000 HD
ATOM    109   O  NAG B   7       9.514  18.328   7.0450  0.00  0.00     0.000 O
ATOM    111  HD  NAG B   7      10.032  17.796   6.6010  0.00  0.00     0.000 HD
ENDBRANCH 95 98
ENDBRANCH 82 95
ENDBRANCH 81 85
ENDBRANCH 65 81
ENDBRANCH 64 67
ENDBRANCH 51 64
ENDBRANCH 50 54
ENDBRANCH 34 50
ENDBRANCH 33 36
ENDBRANCH 20 33
ENDBRANCH 19 23
ENDBRANCH 1 19
TORSDOF 19
ENDMDL
MODEL 68
REMARK VINA RESULT:      -5.4      5.775      9.302
ROOT
ATOM      1  C1  NAG B   1       9.789   8.303  14.9990  0.00  0.00     0.000 C
ATOM      2  C2  NAG B   1      10.287   7.241  14.0220  0.00  0.00     0.000 C
ATOM      3  C3  NAG B   1       9.794   7.496  12.6130  0.00  0.00     0.000 C
ATOM      4  C4  NAG B   1       8.272   7.526  12.7120  0.00  0.00     0.000 C
ATOM      5  C5  NAG B   1       7.850   8.701  13.6040  0.00  0.00     0.000 C
ATOM      6  O5  NAG B   1       8.376   8.554  14.9410  0.00  0.00     0.000 O
ATOM      7   O  NAG B   1      10.230   6.473  11.6890  0.00  0.00     0.000 O
ATOM      9  HD  NAG B   1      10.902   6.532  12.2320  0.00  0.00     0.000 HD
ATOM      9   O  NAG B   1       7.702   7.674  11.4220  0.00  0.00     0.000 O
ATOM     11  HD  NAG B   1       8.374   7.734  11.9660  0.00  0.00     0.000 HD
ATOM     11   C  NAG B   1       6.322   8.833  13.6070  0.00  0.00     0.000 C
ATOM     12   O  NAG B   1       5.853   9.398  14.8300  0.00  0.00     0.000 O
ATOM     14  HD  NAG B   1       6.525   9.457  15.3740  0.00  0.00     0.000 HD
ENDROOT
BRANCH 2 16
ATOM     14   N  NAG B   1      11.757   7.153  14.0910  0.00  0.00     0.000 N
ATOM     16  HD  NAG B   1      12.426   7.210  14.6370  0.00  0.00     0.000 HD
ATOM     16   C  NAG B   1      12.408   6.061  14.5270  0.00  0.00     0.000 C
ATOM     17   C  NAG B   1      11.630   4.862  15.0020  0.00  0.00     0.000 C
ATOM     18   O  NAG B   1      13.637   6.006  14.5230  0.00  0.00     0.000 OA
ENDBRANCH 2 16
BRANCH 1 19
ATOM     19  O4  BDP B   2      10.029   7.712  16.2690  0.00  0.00     0.000 O
BRANCH 19 23
ATOM     20  C1  BDP B   2      10.084  11.305  18.2760  0.00  0.00     0.000 C
ATOM     21  C2  BDP B   2      11.430  10.735  17.8790  0.00  0.00     0.000 C
ATOM     22  C3  BDP B   2      11.283   9.673  16.8130  0.00  0.00     0.000 C
ATOM     23  C4  BDP B   2      10.282   8.632  17.3050  0.00  0.00     0.000 C
ATOM     24  C5  BDP B   2       8.976   9.315  17.6590  0.00  0.00     0.000 C
ATOM     25  O5  BDP B   2       9.201  10.268  18.6800  0.00  0.00     0.000 O
ATOM     26   O  BDP B   2      12.278  11.763  17.4130  0.00  0.00     0.000 O
ATOM     28  HD  BDP B   2      11.636  12.232  17.7550  0.00  0.00     0.000 HD
ATOM     28   O  BDP B   2      12.569   9.098  16.5380  0.00  0.00     0.000 O
ATOM     30  HD  BDP B   2      11.927   9.567  16.8800  0.00  0.00     0.000 HD
BRANCH 24 30
ATOM     30   C  BDP B   2       7.956   8.355  18.1570  0.00  0.00     0.000 C
ATOM     31   O  BDP B   2       8.289   7.602  19.1020  0.00  0.00     0.000 OA
ATOM     32   O  BDP B   2       6.820   8.341  17.6020  0.00  0.00     0.000 OA
ENDBRANCH 24 30
BRANCH 20 33
ATOM     33  O3  NAG B   3      10.373  12.123  19.3830  0.00  0.00     0.000 O
BRANCH 33 36
ATOM     34  C1  NAG B   3       8.749  15.483  19.8550  0.00  0.00     0.000 C
ATOM     35  C2  NAG B   3       9.768  14.468  19.3750  0.00  0.00     0.000 C
ATOM     36  C3  NAG B   3       9.306  13.031  19.6640  0.00  0.00     0.000 C
ATOM     37  C4  NAG B   3       8.927  12.910  21.1380  0.00  0.00     0.000 C
ATOM     38  C5  NAG B   3       7.967  14.029  21.5330  0.00  0.00     0.000 C
ATOM     39  O5  NAG B   3       8.550  15.289  21.2480  0.00  0.00     0.000 O
ATOM     40   O  NAG B   3       8.306  11.638  21.3820  0.00  0.00     0.000 O
ATOM     42  HD  NAG B   3       7.684  12.145  21.7100  0.00  0.00     0.000 HD
ATOM     42   C  NAG B   3       7.637  14.062  23.0230  0.00  0.00     0.000 C
ATOM     43   O  NAG B   3       8.819  14.380  23.7680  0.00  0.00     0.000 O
ATOM     45  HD  NAG B   3       8.197  14.887  24.0960  0.00  0.00     0.000 HD
BRANCH 35 47
ATOM     45   N  NAG B   3      11.016  14.877  18.7420  0.00  0.00     0.000 N
ATOM     47  HD  NAG B   3      11.136  14.544  19.5330  0.00  0.00     0.000 HD
ATOM     47   C  NAG B   3      11.252  14.721  17.4550  0.00  0.00     0.000 C
ATOM     48   C  NAG B   3      12.596  15.177  16.9700  0.00  0.00     0.000 C
ATOM     49   O  NAG B   3      10.430  14.207  16.6990  0.00  0.00     0.000 OA
ENDBRANCH 35 47
BRANCH 34 50
ATOM     50  O4  BDP B   4       9.377  16.725  19.6160  0.00  0.00     0.000 O
BRANCH 50 54
ATOM     51  C1  BDP B   4       8.579  20.291  17.8270  0.00  0.00     0.000 C
ATOM     52  C2  BDP B   4       8.710  20.361  19.3440  0.00  0.00     0.000 C
ATOM     53  C3  BDP B   4       9.360  19.101  19.8280  0.00  0.00     0.000 C
ATOM     54  C4  BDP B   4       8.556  17.868  19.3230  0.00  0.00     0.000 C
ATOM     55  C5  BDP B   4       8.271  17.934  17.8290  0.00  0.00     0.000 C
ATOM     56  O5  BDP B   4       7.736  19.208  17.4790  0.00  0.00     0.000 O
ATOM     57   O  BDP B   4       9.502  21.469  19.7170  0.00  0.00     0.000 O
ATOM     59  HD  BDP B   4       8.933  22.059  19.9950  0.00  0.00     0.000 HD
ATOM     59   O  BDP B   4       9.290  19.119  21.2680  0.00  0.00     0.000 O
ATOM     61  HD  BDP B   4       8.721  19.710  21.5460  0.00  0.00     0.000 HD
BRANCH 55 61
ATOM     61   C  BDP B   4       7.269  16.854  17.4620  0.00  0.00     0.000 C
ATOM     62   O  BDP B   4       6.090  16.974  17.8860  0.00  0.00     0.000 OA
ATOM     63   O  BDP B   4       7.666  15.885  16.7450  0.00  0.00     0.000 OA
ENDBRANCH 55 61
BRANCH 51 64
ATOM     64  O3  NAG B   5       8.012  21.541  17.3890  0.00  0.00     0.000 O
BRANCH 64 67
ATOM     65  C1  NAG B   5       9.031  22.112  13.8920  0.00  0.00     0.000 C
ATOM     66  C2  NAG B   5       9.173  21.823  15.3770  0.00  0.00     0.000 C
ATOM     67  C3  NAG B   5       7.800  21.583  15.9910  0.00  0.00     0.000 C
ATOM     68  C4  NAG B   5       6.837  22.729  15.6540  0.00  0.00     0.000 C
ATOM     69  C5  NAG B   5       6.833  23.006  14.1590  0.00  0.00     0.000 C
ATOM     70  O5  NAG B   5       8.175  23.215  13.6970  0.00  0.00     0.000 O
ATOM     71   O  NAG B   5       5.548  22.386  16.1150  0.00  0.00     0.000 O
ATOM     73  HD  NAG B   5       5.548  23.215  16.3640  0.00  0.00     0.000 HD
ATOM     73   C  NAG B   5       5.993  24.222  13.7440  0.00  0.00     0.000 C
ATOM     74   O  NAG B   5       6.561  25.419  14.3140  0.00  0.00     0.000 O
ATOM     76  HD  NAG B   5       6.562  26.249  14.5630  0.00  0.00     0.000 HD
BRANCH 66 78
ATOM     76   N  NAG B   5      10.136  20.705  15.4010  0.00  0.00     0.000 N
ATOM     78  HD  NAG B   5      10.065  21.492  15.7550  0.00  0.00     0.000 HD
ATOM     78   C  NAG B   5      11.174  20.575  16.2420  0.00  0.00     0.000 C
ATOM     79   C  NAG B   5      11.964  19.312  16.0300  0.00  0.00     0.000 C
ATOM     80   O  NAG B   5      11.469  21.448  17.1340  0.00  0.00     0.000 OA
ENDBRANCH 66 78
BRANCH 65 81
ATOM     81  O4  BDP B   6      10.316  22.385  13.3180  0.00  0.00     0.000 O
BRANCH 81 85
ATOM     82  C1  BDP B   6      12.362  21.327   9.7050  0.00  0.00     0.000 C
ATOM     83  C2  BDP B   6      11.925  22.780   9.8680  0.00  0.00     0.000 C
ATOM     84  C3  BDP B   6      11.586  23.140  11.3170  0.00  0.00     0.000 C
ATOM     85  C4  BDP B   6      10.597  22.150  11.9360  0.00  0.00     0.000 C
ATOM     86  C5  BDP B   6      11.129  20.721  11.6770  0.00  0.00     0.000 C
ATOM     87  O5  BDP B   6      11.365  20.476  10.2530  0.00  0.00     0.000 O
ATOM     88   O  BDP B   6      13.032  23.562   9.4280  0.00  0.00     0.000 O
ATOM     90  HD  BDP B   6      13.474  24.274   9.6460  0.00  0.00     0.000 HD
ATOM     90   O  BDP B   6      11.077  24.475  11.3730  0.00  0.00     0.000 O
ATOM     92  HD  BDP B   6      11.519  25.187  11.5900  0.00  0.00     0.000 HD
BRANCH 86 92
ATOM     92   C  BDP B   6      10.089  19.692  12.0510  0.00  0.00     0.000 C
ATOM     93   O  BDP B   6      10.333  18.869  12.9830  0.00  0.00     0.000 OA
ATOM     94   O  BDP B   6       8.989  19.714  11.4160  0.00  0.00     0.000 OA
ENDBRANCH 86 92
BRANCH 82 95
ATOM     95  O3  NAG B   7      12.463  21.039   8.2960  0.00  0.00     0.000 O
BRANCH 95 98
ATOM     96  C1  NAG B   7      14.913  19.379   6.1560  0.00  0.00     0.000 C
ATOM     97  C2  NAG B   7      13.961  20.488   6.5820  0.00  0.00     0.000 C
ATOM     98  C3  NAG B   7      13.308  19.973   7.8630  0.00  0.00     0.000 C
ATOM     99  C4  NAG B   7      12.560  18.673   7.5790  0.00  0.00     0.000 C
ATOM    100  C5  NAG B   7      13.481  17.647   6.9170  0.00  0.00     0.000 C
ATOM    101  O5  NAG B   7      14.110  18.249   5.7960  0.00  0.00     0.000 O
BRANCH 97 104
ATOM    102   N  NAG B   7      14.536  21.776   6.9930  0.00  0.00     0.000 N
ATOM    104  HD  NAG B   7      14.730  22.486   7.4490  0.00  0.00     0.000 HD
ATOM    104   O  NAG B   7      14.931  24.004   6.8960  0.00  0.00     0.000 OA
ATOM    105   C  NAG B   7      14.432  22.977   6.3940  0.00  0.00     0.000 C
ATOM    106   C  NAG B   7      13.690  23.083   5.1060  0.00  0.00     0.000 C
ENDBRANCH 97 104
ATOM    107   O  NAG B   7      13.625  15.416   6.2060  0.00  0.00     0.000 O
ATOM    109  HD  NAG B   7      14.053  16.069   6.5810  0.00  0.00     0.000 HD
ATOM    109   O  NAG B   7      13.625  15.416   6.2060  0.00  0.00     0.000 O
ATOM    111  HD  NAG B   7      14.053  16.069   6.5810  0.00  0.00     0.000 HD
ENDBRANCH 95 98
ENDBRANCH 82 95
ENDBRANCH 81 85
ENDBRANCH 65 81
ENDBRANCH 64 67
ENDBRANCH 51 64
ENDBRANCH 50 54
ENDBRANCH 34 50
ENDBRANCH 33 36
ENDBRANCH 20 33
ENDBRANCH 19 23
ENDBRANCH 1 19
TORSDOF 19
ENDMDL
MODEL 69
REMARK VINA RESULT:      -5.4      7.359     15.014
ROOT
ATOM      1  C1  NAG B   1      27.459   4.859   7.6990  0.00  0.00     0.000 C
ATOM      2  C2  NAG B   1      28.813   4.355   8.1920  0.00  0.00     0.000 C
ATOM      3  C3  NAG B   1      29.508   5.373   9.0720  0.00  0.00     0.000 C
ATOM      4  C4  NAG B   1      29.632   6.632   8.2190  0.00  0.00     0.000 C
ATOM      5  C5  NAG B   1      28.229   7.148   7.8770  0.00  0.00     0.000 C
ATOM      6  O5  NAG B   1      27.486   6.172   7.1170  0.00  0.00     0.000 O
ATOM      7   O  NAG B   1      30.808   4.918   9.5110  0.00  0.00     0.000 O
ATOM      9  HD  NAG B   1      30.349   4.184   9.4940  0.00  0.00     0.000 HD
ATOM      9   O  NAG B   1      30.353   7.629   8.9230  0.00  0.00     0.000 O
ATOM     11  HD  NAG B   1      29.894   6.895   8.9060  0.00  0.00     0.000 HD
ATOM     11   C  NAG B   1      28.330   8.488   7.1370  0.00  0.00     0.000 C
ATOM     12   O  NAG B   1      27.223   8.678   6.2570  0.00  0.00     0.000 O
ATOM     14  HD  NAG B   1      26.763   7.944   6.2400  0.00  0.00     0.000 HD
ENDROOT
BRANCH 2 16
ATOM     14   N  NAG B   1      29.154   3.026   7.6540  0.00  0.00     0.000 N
ATOM     16  HD  NAG B   1      29.797   2.448   7.6000  0.00  0.00     0.000 HD
ATOM     16   C  NAG B   1      29.166   1.910   8.4040  0.00  0.00     0.000 C
ATOM     17   C  NAG B   1      28.848   1.989   9.8730  0.00  0.00     0.000 C
ATOM     18   O  NAG B   1      29.408   0.810   7.9080  0.00  0.00     0.000 OA
ENDBRANCH 2 16
BRANCH 1 19
ATOM     19  O4  BDP B   2      27.148   3.966   6.6380  0.00  0.00     0.000 O
BRANCH 19 23
ATOM     20  C1  BDP B   2      23.072   4.498   6.8530  0.00  0.00     0.000 C
ATOM     21  C2  BDP B   2      23.657   3.411   7.7310  0.00  0.00     0.000 C
ATOM     22  C3  BDP B   2      25.150   3.580   7.8920  0.00  0.00     0.000 C
ATOM     23  C4  BDP B   2      25.779   3.670   6.5040  0.00  0.00     0.000 C
ATOM     24  C5  BDP B   2      25.125   4.795   5.7260  0.00  0.00     0.000 C
ATOM     25  O5  BDP B   2      23.739   4.540   5.5990  0.00  0.00     0.000 O
ATOM     26   O  BDP B   2      23.037   3.420   8.9990  0.00  0.00     0.000 O
ATOM     28  HD  BDP B   2      22.510   3.950   8.5620  0.00  0.00     0.000 HD
ATOM     28   O  BDP B   2      25.673   2.479   8.6510  0.00  0.00     0.000 O
ATOM     30  HD  BDP B   2      25.145   3.009   8.2150  0.00  0.00     0.000 HD
BRANCH 24 30
ATOM     30   C  BDP B   2      25.685   4.930   4.3560  0.00  0.00     0.000 C
ATOM     31   O  BDP B   2      25.540   3.958   3.5780  0.00  0.00     0.000 OA
ATOM     32   O  BDP B   2      26.280   6.003   4.0520  0.00  0.00     0.000 OA
ENDBRANCH 24 30
BRANCH 20 33
ATOM     33  O3  NAG B   3      21.739   4.095   6.6540  0.00  0.00     0.000 O
BRANCH 33 36
ATOM     34  C1  NAG B   3      18.880   6.539   6.6050  0.00  0.00     0.000 C
ATOM     35  C2  NAG B   3      19.888   5.564   7.1830  0.00  0.00     0.000 C
ATOM     36  C3  NAG B   3      20.937   5.159   6.1350  0.00  0.00     0.000 C
ATOM     37  C4  NAG B   3      20.229   4.673   4.8730  0.00  0.00     0.000 C
ATOM     38  C5  NAG B   3      19.180   5.690   4.4300  0.00  0.00     0.000 C
ATOM     39  O5  NAG B   3      18.261   5.926   5.4830  0.00  0.00     0.000 O
ATOM     40   O  NAG B   3      21.184   4.482   3.8170  0.00  0.00     0.000 O
ATOM     42  HD  NAG B   3      20.641   5.011   3.3980  0.00  0.00     0.000 HD
ATOM     42   C  NAG B   3      18.332   5.227   3.2480  0.00  0.00     0.000 C
ATOM     43   O  NAG B   3      17.537   4.101   3.6410  0.00  0.00     0.000 O
ATOM     45  HD  NAG B   3      16.995   4.630   3.2220  0.00  0.00     0.000 HD
BRANCH 35 47
ATOM     45   N  NAG B   3      19.808   5.090   8.5590  0.00  0.00     0.000 N
ATOM     47  HD  NAG B   3      19.628   4.470   7.9810  0.00  0.00     0.000 HD
ATOM     47   C  NAG B   3      20.641   5.482   9.5020  0.00  0.00     0.000 C
ATOM     48   C  NAG B   3      20.431   4.882  10.8600  0.00  0.00     0.000 C
ATOM     49   O  NAG B   3      21.554   6.273   9.2760  0.00  0.00     0.000 OA
ENDBRANCH 35 47
BRANCH 34 50
ATOM     50  O4  BDP B   4      17.945   6.710   7.6500  0.00  0.00     0.000 O
BRANCH 50 54
ATOM     51  C1  BDP B   4      15.256   9.338   9.2040  0.00  0.00     0.000 C
ATOM     52  C2  BDP B   4      15.256   9.260   7.6810  0.00  0.00     0.000 C
ATOM     53  C3  BDP B   4      15.993   8.025   7.2640  0.00  0.00     0.000 C
ATOM     54  C4  BDP B   4      17.416   8.024   7.8930  0.00  0.00     0.000 C
ATOM     55  C5  BDP B   4      17.388   8.305   9.3890  0.00  0.00     0.000 C
ATOM     56  O5  BDP B   4      16.589   9.451   9.6660  0.00  0.00     0.000 O
ATOM     57   O  BDP B   4      13.933   9.203   7.1930  0.00  0.00     0.000 O
ATOM     59  HD  BDP B   4      13.774  10.001   6.8970  0.00  0.00     0.000 HD
ATOM     59   O  BDP B   4      16.140   8.087   5.8310  0.00  0.00     0.000 O
ATOM     61  HD  BDP B   4      15.981   8.885   5.5350  0.00  0.00     0.000 HD
BRANCH 55 61
ATOM     61   C  BDP B   4      18.804   8.553   9.8780  0.00  0.00     0.000 C
ATOM     62   O  BDP B   4      19.626   9.065   9.0740  0.00  0.00     0.000 OA
ATOM     63   O  BDP B   4      19.092   8.235  11.0730  0.00  0.00     0.000 OA
ENDBRANCH 55 61
BRANCH 51 64
ATOM     64  O3  NAG B   5      14.487  10.499   9.5720  0.00  0.00     0.000 O
BRANCH 64 67
ATOM     65  C1  NAG B   5      12.431  10.350  12.6290  0.00  0.00     0.000 C
ATOM     66  C2  NAG B   5      12.850  10.084  11.1930  0.00  0.00     0.000 C
ATOM     67  C3  NAG B   5      14.270  10.588  10.9670  0.00  0.00     0.000 C
ATOM     68  C4  NAG B   5      14.414  12.050  11.4140  0.00  0.00     0.000 C
ATOM     69  C5  NAG B   5      13.883  12.234  12.8270  0.00  0.00     0.000 C
ATOM     70  O5  NAG B   5      12.545  11.724  12.9170  0.00  0.00     0.000 O
ATOM     71   O  NAG B   5      15.774  12.417  11.3260  0.00  0.00     0.000 O
ATOM     73  HD  NAG B   5      15.432  13.143  11.0010  0.00  0.00     0.000 HD
ATOM     73   C  NAG B   5      13.870  13.691  13.3120  0.00  0.00     0.000 C
ATOM     74   O  NAG B   5      12.961  14.462  12.4990  0.00  0.00     0.000 O
ATOM     76  HD  NAG B   5      12.619  15.188  12.1740  0.00  0.00     0.000 HD
BRANCH 66 78
ATOM     76   N  NAG B   5      12.491   8.657  11.0890  0.00  0.00     0.000 N
ATOM     78  HD  NAG B   5      12.399   9.373  10.6120  0.00  0.00     0.000 HD
ATOM     78   C  NAG B   5      12.037   8.035   9.9900  0.00  0.00     0.000 C
ATOM     79   C  NAG B   5      11.777   6.568  10.1940  0.00  0.00     0.000 C
ATOM     80   O  NAG B   5      11.835   8.637   8.8750  0.00  0.00     0.000 OA
ENDBRANCH 66 78
BRANCH 65 81
ATOM     81  O4  BDP B   6      11.079   9.919  12.8350  0.00  0.00     0.000 O
BRANCH 81 85
ATOM     82  C1  BDP B   6       8.822   8.177  16.0340  0.00  0.00     0.000 C
ATOM     83  C2  BDP B   6       8.559   9.643  15.7020  0.00  0.00     0.000 C
ATOM     84  C3  BDP B   6       9.090  10.046  14.3230  0.00  0.00     0.000 C
ATOM     85  C4  BDP B   6      10.557   9.651  14.1380  0.00  0.00     0.000 C
ATOM     86  C5  BDP B   6      10.702   8.163  14.5370  0.00  0.00     0.000 C
ATOM     87  O5  BDP B   6      10.210   7.910  15.8920  0.00  0.00     0.000 O
ATOM     88   O  BDP B   6       7.141   9.790  15.7280  0.00  0.00     0.000 O
ATOM     90  HD  BDP B   6       6.502  10.174  15.2870  0.00  0.00     0.000 HD
ATOM     90   O  BDP B   6       8.910  11.451  14.1310  0.00  0.00     0.000 O
ATOM     92  HD  BDP B   6       8.271  11.834  13.6910  0.00  0.00     0.000 HD
BRANCH 86 92
ATOM     92   C  BDP B   6      12.159   7.773  14.6060  0.00  0.00     0.000 C
ATOM     93   O  BDP B   6      12.885   8.231  15.5400  0.00  0.00     0.000 OA
ATOM     94   O  BDP B   6      12.594   6.971  13.7210  0.00  0.00     0.000 OA
ENDBRANCH 86 92
BRANCH 82 95
ATOM     95  O3  NAG B   7       8.467   7.954  17.4130  0.00  0.00     0.000 O
BRANCH 95 98
ATOM     96  C1  NAG B   7       6.528   5.423  19.1950  0.00  0.00     0.000 C
ATOM     97  C2  NAG B   7       6.945   6.832  18.7950  0.00  0.00     0.000 C
ATOM     98  C3  NAG B   7       8.118   6.637  17.8370  0.00  0.00     0.000 C
ATOM     99  C4  NAG B   7       9.251   5.899  18.5460  0.00  0.00     0.000 C
ATOM    100  C5  NAG B   7       8.750   4.592  19.1610  0.00  0.00     0.000 C
ATOM    101  O5  NAG B   7       7.606   4.865  19.9550  0.00  0.00     0.000 O
BRANCH 97 104
ATOM    102   N  NAG B   7       6.048   7.671  17.9880  0.00  0.00     0.000 N
ATOM    104  HD  NAG B   7       5.744   8.211  17.3830  0.00  0.00     0.000 HD
ATOM    104   O  NAG B   7       4.620   9.376  17.5590  0.00  0.00     0.000 OA
ATOM    105   C  NAG B   7       5.294   8.717  18.3760  0.00  0.00     0.000 C
ATOM    106   C  NAG B   7       5.276   9.103  19.8150  0.00  0.00     0.000 C
ENDBRANCH 97 104
ATOM    107   O  NAG B   7       9.435   2.630  20.2500  0.00  0.00     0.000 O
ATOM    109  HD  NAG B   7       8.894   2.961  19.6610  0.00  0.00     0.000 HD
ATOM    109   O  NAG B   7       9.435   2.630  20.2500  0.00  0.00     0.000 O
ATOM    111  HD  NAG B   7       8.894   2.961  19.6610  0.00  0.00     0.000 HD
ENDBRANCH 95 98
ENDBRANCH 82 95
ENDBRANCH 81 85
ENDBRANCH 65 81
ENDBRANCH 64 67
ENDBRANCH 51 64
ENDBRANCH 50 54
ENDBRANCH 34 50
ENDBRANCH 33 36
ENDBRANCH 20 33
ENDBRANCH 19 23
ENDBRANCH 1 19
TORSDOF 19
ENDMDL
MODEL 70
REMARK VINA RESULT:      -5.4      5.870     11.384
ROOT
ATOM      1  C1  NAG B   1      15.765   3.541  27.3790  0.00  0.00     0.000 C
ATOM      2  C2  NAG B   1      16.275   4.782  28.1060  0.00  0.00     0.000 C
ATOM      3  C3  NAG B   1      15.971   4.733  29.5890  0.00  0.00     0.000 C
ATOM      4  C4  NAG B   1      14.457   4.581  29.6900  0.00  0.00     0.000 C
ATOM      5  C5  NAG B   1      14.041   3.248  29.0550  0.00  0.00     0.000 C
ATOM      6  O5  NAG B   1      14.396   3.206  27.6560  0.00  0.00     0.000 O
ATOM      7   O  NAG B   1      16.417   5.923  30.2780  0.00  0.00     0.000 O
ATOM      9  HD  NAG B   1      17.025   5.820  29.6700  0.00  0.00     0.000 HD
ATOM      9   O  NAG B   1      14.053   4.611  31.0490  0.00  0.00     0.000 O
ATOM     11  HD  NAG B   1      14.661   4.509  30.4410  0.00  0.00     0.000 HD
ATOM     11   C  NAG B   1      12.541   3.013  29.2670  0.00  0.00     0.000 C
ATOM     12   O  NAG B   1      11.987   2.221  28.2170  0.00  0.00     0.000 O
ATOM     14  HD  NAG B   1      12.595   2.118  27.6090  0.00  0.00     0.000 HD
ENDROOT
BRANCH 2 16
ATOM     14   N  NAG B   1      17.687   4.892  27.6960  0.00  0.00     0.000 N
ATOM     16  HD  NAG B   1      18.209   4.861  27.0060  0.00  0.00     0.000 HD
ATOM     16   C  NAG B   1      18.211   6.006  27.1560  0.00  0.00     0.000 C
ATOM     17   C  NAG B   1      17.337   7.209  26.9190  0.00  0.00     0.000 C
ATOM     18   O  NAG B   1      19.407   6.076  26.8730  0.00  0.00     0.000 OA
ENDBRANCH 2 16
BRANCH 1 19
ATOM     19  O4  BDP B   2      15.805   3.927  26.0120  0.00  0.00     0.000 O
BRANCH 19 23
ATOM     20  C1  BDP B   2      13.067   4.281  22.9590  0.00  0.00     0.000 C
ATOM     21  C2  BDP B   2      12.910   5.243  24.1180  0.00  0.00     0.000 C
ATOM     22  C3  BDP B   2      14.172   5.312  24.9480  0.00  0.00     0.000 C
ATOM     23  C4  BDP B   2      14.559   3.894  25.3580  0.00  0.00     0.000 C
ATOM     24  C5  BDP B   2      14.698   3.031  24.1190  0.00  0.00     0.000 C
ATOM     25  O5  BDP B   2      13.467   3.000  23.4230  0.00  0.00     0.000 O
ATOM     26   O  BDP B   2      12.581   6.531  23.6450  0.00  0.00     0.000 O
ATOM     28  HD  BDP B   2      12.472   6.066  22.9230  0.00  0.00     0.000 HD
ATOM     28   O  BDP B   2      13.946   6.160  26.0850  0.00  0.00     0.000 O
ATOM     30  HD  BDP B   2      13.837   5.695  25.3630  0.00  0.00     0.000 HD
BRANCH 24 30
ATOM     30   C  BDP B   2      15.064   1.628  24.4500  0.00  0.00     0.000 C
ATOM     31   O  BDP B   2      16.129   1.183  23.9640  0.00  0.00     0.000 OA
ATOM     32   O  BDP B   2      14.284   0.962  25.1890  0.00  0.00     0.000 OA
ENDBRANCH 24 30
BRANCH 20 33
ATOM     33  O3  NAG B   3      11.774   4.193  22.4120  0.00  0.00     0.000 O
BRANCH 33 36
ATOM     34  C1  NAG B   3      11.401   3.623  18.7130  0.00  0.00     0.000 C
ATOM     35  C2  NAG B   3      11.631   4.387  20.0030  0.00  0.00     0.000 C
ATOM     36  C3  NAG B   3      11.762   3.433  21.2010  0.00  0.00     0.000 C
ATOM     37  C4  NAG B   3      10.567   2.484  21.2250  0.00  0.00     0.000 C
ATOM     38  C5  NAG B   3      10.378   1.837  19.8550  0.00  0.00     0.000 C
ATOM     39  O5  NAG B   3      10.227   2.839  18.8640  0.00  0.00     0.000 O
ATOM     40   O  NAG B   3      10.772   1.461  22.2120  0.00  0.00     0.000 O
ATOM     42  HD  NAG B   3      10.618   0.947  21.5320  0.00  0.00     0.000 HD
ATOM     42   C  NAG B   3       9.126   0.969  19.7500  0.00  0.00     0.000 C
ATOM     43   O  NAG B   3       7.961   1.793  19.8750  0.00  0.00     0.000 O
ATOM     45  HD  NAG B   3       7.807   1.279  19.1960  0.00  0.00     0.000 HD
BRANCH 35 47
ATOM     45   N  NAG B   3      11.685   5.841  20.0690  0.00  0.00     0.000 N
ATOM     47  HD  NAG B   3      10.991   5.515  20.4700  0.00  0.00     0.000 HD
ATOM     47   C  NAG B   3      12.810   6.511  20.2230  0.00  0.00     0.000 C
ATOM     48   C  NAG B   3      12.686   8.004  20.2910  0.00  0.00     0.000 C
ATOM     49   O  NAG B   3      13.895   5.945  20.3330  0.00  0.00     0.000 OA
ENDBRANCH 35 47
BRANCH 34 50
ATOM     50  O4  BDP B   4      11.193   4.640  17.7550  0.00  0.00     0.000 O
BRANCH 50 54
ATOM     51  C1  BDP B   4      12.051   5.829  13.9600  0.00  0.00     0.000 C
ATOM     52  C2  BDP B   4      10.948   4.781  14.0600  0.00  0.00     0.000 C
ATOM     53  C3  BDP B   4      10.479   4.713  15.4810  0.00  0.00     0.000 C
ATOM     54  C4  BDP B   4      11.689   4.441  16.4210  0.00  0.00     0.000 C
ATOM     55  C5  BDP B   4      12.854   5.385  16.1530  0.00  0.00     0.000 C
ATOM     56  O5  BDP B   4      13.149   5.429  14.7600  0.00  0.00     0.000 O
ATOM     57   O  BDP B   4       9.864   5.131  13.2260  0.00  0.00     0.000 O
ATOM     59  HD  BDP B   4       9.942   4.611  12.5370  0.00  0.00     0.000 HD
ATOM     59   O  BDP B   4       9.583   3.587  15.5730  0.00  0.00     0.000 O
ATOM     61  HD  BDP B   4       9.661   3.067  14.8850  0.00  0.00     0.000 HD
BRANCH 55 61
ATOM     61   C  BDP B   4      14.077   4.897  16.9080  0.00  0.00     0.000 C
ATOM     62   O  BDP B   4      14.869   5.760  17.3700  0.00  0.00     0.000 OA
ATOM     63   O  BDP B   4      14.243   3.646  17.0380  0.00  0.00     0.000 OA
ENDBRANCH 55 61
BRANCH 51 64
ATOM     64  O3  NAG B   5      12.434   5.916  12.5740  0.00  0.00     0.000 O
BRANCH 64 67
ATOM     65  C1  NAG B   5      13.290   9.049  10.8310  0.00  0.00     0.000 C
ATOM     66  C2  NAG B   5      12.426   7.922  11.3680  0.00  0.00     0.000 C
ATOM     67  C3  NAG B   5      13.245   7.041  12.3030  0.00  0.00     0.000 C
ATOM     68  C4  NAG B   5      14.546   6.583  11.6280  0.00  0.00     0.000 C
ATOM     69  C5  NAG B   5      15.294   7.769  11.0410  0.00  0.00     0.000 C
ATOM     70  O5  NAG B   5      14.423   8.520  10.1820  0.00  0.00     0.000 O
ATOM     71   O  NAG B   5      15.333   5.902  12.5820  0.00  0.00     0.000 O
ATOM     73  HD  NAG B   5      15.465   5.367  11.9130  0.00  0.00     0.000 HD
ATOM     73   C  NAG B   5      16.545   7.391  10.2350  0.00  0.00     0.000 C
ATOM     74   O  NAG B   5      16.160   6.620   9.0780  0.00  0.00     0.000 O
ATOM     76  HD  NAG B   5      16.291   6.085   8.4100  0.00  0.00     0.000 HD
BRANCH 66 78
ATOM     76   N  NAG B   5      11.275   8.622  11.9700  0.00  0.00     0.000 N
ATOM     78  HD  NAG B   5      11.407   8.017  11.3650  0.00  0.00     0.000 HD
ATOM     78   C  NAG B   5       9.982   8.295  11.8140  0.00  0.00     0.000 C
ATOM     79   C  NAG B   5       9.041   9.191  12.5720  0.00  0.00     0.000 C
ATOM     80   O  NAG B   5       9.588   7.318  11.0830  0.00  0.00     0.000 OA
ENDBRANCH 66 78
BRANCH 65 81
ATOM     81  O4  BDP B   6      12.536   9.854   9.9150  0.00  0.00     0.000 O
BRANCH 81 85
ATOM     82  C1  BDP B   6      12.647  13.874   8.4350  0.00  0.00     0.000 C
ATOM     83  C2  BDP B   6      13.165  12.771   7.5170  0.00  0.00     0.000 C
ATOM     84  C3  BDP B   6      12.714  11.374   7.9530  0.00  0.00     0.000 C
ATOM     85  C4  BDP B   6      13.019  11.109   9.4290  0.00  0.00     0.000 C
ATOM     86  C5  BDP B   6      12.480  12.306  10.2490  0.00  0.00     0.000 C
ATOM     87  O5  BDP B   6      13.021  13.580   9.7730  0.00  0.00     0.000 O
ATOM     88   O  BDP B   6      12.629  13.064   6.2300  0.00  0.00     0.000 O
ATOM     90  HD  BDP B   6      12.269  12.666   5.5500  0.00  0.00     0.000 HD
ATOM     90   O  BDP B   6      13.328  10.389   7.1180  0.00  0.00     0.000 O
ATOM     92  HD  BDP B   6      12.968   9.991   6.4390  0.00  0.00     0.000 HD
BRANCH 86 92
ATOM     92   C  BDP B   6      12.955  12.225  11.6790  0.00  0.00     0.000 C
ATOM     93   O  BDP B   6      12.222  11.664  12.5490  0.00  0.00     0.000 OA
ATOM     94   O  BDP B   6      14.098  12.711  11.9460  0.00  0.00     0.000 OA
ENDBRANCH 86 92
BRANCH 82 95
ATOM     95  O3  NAG B   7      13.283  15.112   8.0600  0.00  0.00     0.000 O
BRANCH 95 98
ATOM     96  C1  NAG B   7      12.488  18.601   7.3290  0.00  0.00     0.000 C
ATOM     97  C2  NAG B   7      13.310  17.320   7.2800  0.00  0.00     0.000 C
ATOM     98  C3  NAG B   7      12.547  16.330   8.1570  0.00  0.00     0.000 C
ATOM     99  C4  NAG B   7      12.441  16.872   9.5810  0.00  0.00     0.000 C
ATOM    100  C5  NAG B   7      11.834  18.276   9.5870  0.00  0.00     0.000 C
ATOM    101  O5  NAG B   7      12.551  19.091   8.6730  0.00  0.00     0.000 O
BRANCH 97 104
ATOM    102   N  NAG B   7      13.532  16.433   6.1300  0.00  0.00     0.000 N
ATOM    104  HD  NAG B   7      13.746  15.748   5.6440  0.00  0.00     0.000 HD
ATOM    104   O  NAG B   7      14.457  15.748   4.1790  0.00  0.00     0.000 OA
ATOM    105   C  NAG B   7      14.321  16.624   5.0550  0.00  0.00     0.000 C
ATOM    106   C  NAG B   7      15.061  17.911   4.9200  0.00  0.00     0.000 C
ENDBRANCH 97 104
ATOM    107   O  NAG B   7      11.035  19.985  10.9810  0.00  0.00     0.000 O
ATOM    109  HD  NAG B   7      10.907  19.559  10.2380  0.00  0.00     0.000 HD
ATOM    109   O  NAG B   7      11.035  19.985  10.9810  0.00  0.00     0.000 O
ATOM    111  HD  NAG B   7      10.907  19.559  10.2380  0.00  0.00     0.000 HD
ENDBRANCH 95 98
ENDBRANCH 82 95
ENDBRANCH 81 85
ENDBRANCH 65 81
ENDBRANCH 64 67
ENDBRANCH 51 64
ENDBRANCH 50 54
ENDBRANCH 34 50
ENDBRANCH 33 36
ENDBRANCH 20 33
ENDBRANCH 19 23
ENDBRANCH 1 19
TORSDOF 19
ENDMDL
MODEL 71
REMARK VINA RESULT:      -5.4      6.777      8.410
ROOT
ATOM      1  C1  NAG B   1      18.711   5.264   5.9920  0.00  0.00     0.000 C
ATOM      2  C2  NAG B   1      18.655   3.885   5.3410  0.00  0.00     0.000 C
ATOM      3  C3  NAG B   1      18.566   2.778   6.3720  0.00  0.00     0.000 C
ATOM      4  C4  NAG B   1      19.793   2.951   7.2630  0.00  0.00     0.000 C
ATOM      5  C5  NAG B   1      19.706   4.304   7.9800  0.00  0.00     0.000 C
ATOM      6  O5  NAG B   1      19.691   5.394   7.0340  0.00  0.00     0.000 O
ATOM      7   O  NAG B   1      18.552   1.466   5.7640  0.00  0.00     0.000 O
ATOM      9  HD  NAG B   1      18.114   1.943   5.1890  0.00  0.00     0.000 HD
ATOM      9   O  NAG B   1      19.854   1.904   8.2170  0.00  0.00     0.000 O
ATOM     11  HD  NAG B   1      19.416   2.381   7.6420  0.00  0.00     0.000 HD
ATOM     11   C  NAG B   1      20.858   4.439   8.9840  0.00  0.00     0.000 C
ATOM     12   O  NAG B   1      21.223   5.805   9.1730  0.00  0.00     0.000 O
ATOM     14  HD  NAG B   1      20.785   6.282   8.5980  0.00  0.00     0.000 HD
ENDROOT
BRANCH 2 16
ATOM     14   N  NAG B   1      18.782   3.795   3.8760  0.00  0.00     0.000 N
ATOM     16  HD  NAG B   1      18.775   3.234   3.2160  0.00  0.00     0.000 HD
ATOM     16   C  NAG B   1      17.726   3.686   3.0520  0.00  0.00     0.000 C
ATOM     17   C  NAG B   1      16.333   3.622   3.6200  0.00  0.00     0.000 C
ATOM     18   O  NAG B   1      17.869   3.664   1.8300  0.00  0.00     0.000 OA
ENDBRANCH 2 16
BRANCH 1 19
ATOM     19  O4  BDP B   2      19.152   6.104   4.9330  0.00  0.00     0.000 O
BRANCH 19 23
ATOM     20  C1  BDP B   2      17.993   9.799   6.3280  0.00  0.00     0.000 C
ATOM     21  C2  BDP B   2      16.881   8.828   5.9880  0.00  0.00     0.000 C
ATOM     22  C3  BDP B   2      17.399   7.411   5.8980  0.00  0.00     0.000 C
ATOM     23  C4  BDP B   2      18.572   7.386   4.9230  0.00  0.00     0.000 C
ATOM     24  C5  BDP B   2      19.622   8.384   5.3710  0.00  0.00     0.000 C
ATOM     25  O5  BDP B   2      19.060   9.682   5.3980  0.00  0.00     0.000 O
ATOM     26   O  BDP B   2      15.856   8.900   6.9550  0.00  0.00     0.000 O
ATOM     28  HD  BDP B   2      16.321   9.599   7.1670  0.00  0.00     0.000 HD
ATOM     28   O  BDP B   2      16.332   6.543   5.4820  0.00  0.00     0.000 O
ATOM     30  HD  BDP B   2      16.798   7.242   5.6940  0.00  0.00     0.000 HD
BRANCH 24 30
ATOM     30   C  BDP B   2      20.792   8.418   4.4540  0.00  0.00     0.000 C
ATOM     31   O  BDP B   2      20.565   8.640   3.2420  0.00  0.00     0.000 OA
ATOM     32   O  BDP B   2      21.941   8.216   4.9390  0.00  0.00     0.000 OA
ENDBRANCH 24 30
BRANCH 20 33
ATOM     33  O3  NAG B   3      17.395  11.064   6.1900  0.00  0.00     0.000 O
BRANCH 33 36
ATOM     34  C1  NAG B   3      17.037  14.063   8.4330  0.00  0.00     0.000 C
ATOM     35  C2  NAG B   3      16.633  13.000   7.4290  0.00  0.00     0.000 C
ATOM     36  C3  NAG B   3      17.723  11.927   7.2820  0.00  0.00     0.000 C
ATOM     37  C4  NAG B   3      19.062  12.601   6.9950  0.00  0.00     0.000 C
ATOM     38  C5  NAG B   3      19.326  13.708   8.0130  0.00  0.00     0.000 C
ATOM     39  O5  NAG B   3      18.260  14.641   8.0000  0.00  0.00     0.000 O
ATOM     40   O  NAG B   3      20.121  11.634   7.0540  0.00  0.00     0.000 O
ATOM     42  HD  NAG B   3      20.445  12.206   7.6190  0.00  0.00     0.000 HD
ATOM     42   C  NAG B   3      20.583  14.524   7.7240  0.00  0.00     0.000 C
ATOM     43   O  NAG B   3      20.412  15.252   6.5020  0.00  0.00     0.000 O
ATOM     45  HD  NAG B   3      20.736  15.823   7.0660  0.00  0.00     0.000 HD
BRANCH 35 47
ATOM     45   N  NAG B   3      15.333  13.115   6.7800  0.00  0.00     0.000 N
ATOM     47  HD  NAG B   3      15.987  13.348   6.2610  0.00  0.00     0.000 HD
ATOM     47   C  NAG B   3      14.358  12.249   6.9700  0.00  0.00     0.000 C
ATOM     48   C  NAG B   3      13.090  12.504   6.2090  0.00  0.00     0.000 C
ATOM     49   O  NAG B   3      14.486  11.274   7.7070  0.00  0.00     0.000 OA
ENDBRANCH 35 47
BRANCH 34 50
ATOM     50  O4  BDP B   4      15.991  15.009   8.3570  0.00  0.00     0.000 O
BRANCH 50 54
ATOM     51  C1  BDP B   4      14.082  18.013  10.3280  0.00  0.00     0.000 C
ATOM     52  C2  BDP B   4      15.499  18.352   9.8780  0.00  0.00     0.000 C
ATOM     53  C3  BDP B   4      15.936  17.338   8.8670  0.00  0.00     0.000 C
ATOM     54  C4  BDP B   4      15.793  15.907   9.4610  0.00  0.00     0.000 C
ATOM     55  C5  BDP B   4      14.423  15.673  10.0830  0.00  0.00     0.000 C
ATOM     56  O5  BDP B   4      14.083  16.745  10.9580  0.00  0.00     0.000 O
ATOM     57   O  BDP B   4      15.533  19.638   9.2960  0.00  0.00     0.000 O
ATOM     59  HD  BDP B   4      15.880  20.145   9.9070  0.00  0.00     0.000 HD
ATOM     59   O  BDP B   4      17.336  17.575   8.6120  0.00  0.00     0.000 O
ATOM     61  HD  BDP B   4      17.683  18.082   9.2230  0.00  0.00     0.000 HD
BRANCH 55 61
ATOM     61   C  BDP B   4      14.445  14.374  10.8680  0.00  0.00     0.000 C
ATOM     62   O  BDP B   4      14.992  14.379  12.0020  0.00  0.00     0.000 OA
ATOM     63   O  BDP B   4      13.910  13.348  10.3480  0.00  0.00     0.000 OA
ENDBRANCH 55 61
BRANCH 51 64
ATOM     64  O3  NAG B   5      13.669  19.041  11.2490  0.00  0.00     0.000 O
BRANCH 64 67
ATOM     65  C1  NAG B   5      10.139  20.087  11.0510  0.00  0.00     0.000 C
ATOM     66  C2  NAG B   5      11.591  19.926  10.6350  0.00  0.00     0.000 C
ATOM     67  C3  NAG B   5      12.295  18.957  11.5760  0.00  0.00     0.000 C
ATOM     68  C4  NAG B   5      12.094  19.368  13.0410  0.00  0.00     0.000 C
ATOM     69  C5  NAG B   5      10.620  19.596  13.3380  0.00  0.00     0.000 C
ATOM     70  O5  NAG B   5      10.068  20.521  12.3900  0.00  0.00     0.000 O
ATOM     71   O  NAG B   5      12.633  18.361  13.8710  0.00  0.00     0.000 O
ATOM     73  HD  NAG B   5      12.925  19.048  14.3100  0.00  0.00     0.000 HD
ATOM     73   C  NAG B   5      10.334  20.133  14.7470  0.00  0.00     0.000 C
ATOM     74   O  NAG B   5      10.921  21.443  14.8930  0.00  0.00     0.000 O
ATOM     76  HD  NAG B   5      11.213  22.130  15.3320  0.00  0.00     0.000 HD
BRANCH 66 78
ATOM     76   N  NAG B   5      12.046  20.597   9.4020  0.00  0.00     0.000 N
ATOM     78  HD  NAG B   5      11.929  19.785   9.6790  0.00  0.00     0.000 HD
ATOM     78   C  NAG B   5      12.234  20.012   8.2080  0.00  0.00     0.000 C
ATOM     79   C  NAG B   5      12.686  20.967   7.1370  0.00  0.00     0.000 C
ATOM     80   O  NAG B   5      12.055  18.759   8.0030  0.00  0.00     0.000 OA
ENDBRANCH 66 78
BRANCH 65 81
ATOM     81  O4  BDP B   6       9.483  21.033  10.1960  0.00  0.00     0.000 O
BRANCH 81 85
ATOM     82  C1  BDP B   6       5.709  21.676   8.2700  0.00  0.00     0.000 C
ATOM     83  C2  BDP B   6       5.761  21.826   9.7880  0.00  0.00     0.000 C
ATOM     84  C3  BDP B   6       7.188  21.983  10.3220  0.00  0.00     0.000 C
ATOM     85  C4  BDP B   6       8.117  20.883   9.8040  0.00  0.00     0.000 C
ATOM     86  C5  BDP B   6       7.950  20.804   8.2680  0.00  0.00     0.000 C
ATOM     87  O5  BDP B   6       6.553  20.601   7.8800  0.00  0.00     0.000 O
ATOM     88   O  BDP B   6       5.011  23.002  10.0800  0.00  0.00     0.000 O
ATOM     90  HD  BDP B   6       5.040  23.703  10.5870  0.00  0.00     0.000 HD
ATOM     90   O  BDP B   6       7.165  22.003  11.7520  0.00  0.00     0.000 O
ATOM     92  HD  BDP B   6       7.194  22.704  12.2590  0.00  0.00     0.000 HD
BRANCH 86 92
ATOM     92   C  BDP B   6       8.655  19.587   7.7200  0.00  0.00     0.000 C
ATOM     93   O  BDP B   6       9.213  19.648   6.5830  0.00  0.00     0.000 OA
ATOM     94   O  BDP B   6       8.677  18.546   8.4470  0.00  0.00     0.000 OA
ENDBRANCH 86 92
BRANCH 82 95
ATOM     95  O3  NAG B   7       4.360  21.338   7.8940  0.00  0.00     0.000 O
BRANCH 95 98
ATOM     96  C1  NAG B   7       1.605  22.534   5.8160  0.00  0.00     0.000 C
ATOM     97  C2  NAG B   7       2.258  21.755   6.9500  0.00  0.00     0.000 C
ATOM     98  C3  NAG B   7       3.755  22.017   6.7950  0.00  0.00     0.000 C
ATOM     99  C4  NAG B   7       4.230  21.523   5.4300  0.00  0.00     0.000 C
ATOM    100  C5  NAG B   7       3.391  22.133   4.3060  0.00  0.00     0.000 C
ATOM    101  O5  NAG B   7       2.017  21.920   4.5900  0.00  0.00     0.000 O
BRANCH 97 104
ATOM    102   N  NAG B   7       2.055  22.139   8.3530  0.00  0.00     0.000 N
ATOM    104  HD  NAG B   7       2.194  22.311   9.1910  0.00  0.00     0.000 HD
ATOM    104   O  NAG B   7       1.216  21.986  10.4520  0.00  0.00     0.000 OA
ATOM    105   C  NAG B   7       1.239  21.587   9.2710  0.00  0.00     0.000 C
ATOM    106   C  NAG B   7       0.350  20.461   8.8650  0.00  0.00     0.000 C
ENDBRANCH 97 104
ATOM    107   O  NAG B   7       3.210  22.332   1.9760  0.00  0.00     0.000 O
ATOM    109  HD  NAG B   7       3.126  22.748   2.7310  0.00  0.00     0.000 HD
ATOM    109   O  NAG B   7       3.210  22.332   1.9760  0.00  0.00     0.000 O
ATOM    111  HD  NAG B   7       3.126  22.748   2.7310  0.00  0.00     0.000 HD
ENDBRANCH 95 98
ENDBRANCH 82 95
ENDBRANCH 81 85
ENDBRANCH 65 81
ENDBRANCH 64 67
ENDBRANCH 51 64
ENDBRANCH 50 54
ENDBRANCH 34 50
ENDBRANCH 33 36
ENDBRANCH 20 33
ENDBRANCH 19 23
ENDBRANCH 1 19
TORSDOF 19
ENDMDL
MODEL 72
REMARK VINA RESULT:      -5.4      7.391     11.263
ROOT
ATOM      1  C1  NAG B   1       6.857  11.984  22.3410  0.00  0.00     0.000 C
ATOM      2  C2  NAG B   1       6.871  13.302  23.1110  0.00  0.00     0.000 C
ATOM      3  C3  NAG B   1       5.505  13.643  23.6700  0.00  0.00     0.000 C
ATOM      4  C4  NAG B   1       4.570  13.683  22.4660  0.00  0.00     0.000 C
ATOM      5  C5  NAG B   1       4.510  12.289  21.8290  0.00  0.00     0.000 C
ATOM      6  O5  NAG B   1       5.811  11.873  21.3630  0.00  0.00     0.000 O
ATOM      7   O  NAG B   1       5.503  14.910  24.3670  0.00  0.00     0.000 O
ATOM      9  HD  NAG B   1       6.291  14.600  24.5470  0.00  0.00     0.000 HD
ATOM      9   O  NAG B   1       3.271  14.083  22.8710  0.00  0.00     0.000 O
ATOM     11  HD  NAG B   1       4.059  13.772  23.0510  0.00  0.00     0.000 HD
ATOM     11   C  NAG B   1       3.470  12.273  20.7020  0.00  0.00     0.000 C
ATOM     12   O  NAG B   1       3.808  11.315  19.7000  0.00  0.00     0.000 O
ATOM     14  HD  NAG B   1       4.597  11.005  19.8800  0.00  0.00     0.000 HD
ENDROOT
BRANCH 2 16
ATOM     14   N  NAG B   1       7.946  13.204  24.1150  0.00  0.00     0.000 N
ATOM     16  HD  NAG B   1       8.755  12.920  24.2330  0.00  0.00     0.000 HD
ATOM     16   C  NAG B   1       8.992  14.047  24.1550  0.00  0.00     0.000 C
ATOM     17   C  NAG B   1       9.119  15.137  23.1250  0.00  0.00     0.000 C
ATOM     18   O  NAG B   1       9.844  13.964  25.0400  0.00  0.00     0.000 OA
ENDBRANCH 2 16
BRANCH 1 19
ATOM     19  O4  BDP B   2       8.075  12.023  21.6090  0.00  0.00     0.000 O
BRANCH 19 23
ATOM     20  C1  BDP B   2       9.142  11.791  17.6410  0.00  0.00     0.000 C
ATOM     21  C2  BDP B   2       8.467  13.073  18.0820  0.00  0.00     0.000 C
ATOM     22  C3  BDP B   2       8.505  13.222  19.5860  0.00  0.00     0.000 C
ATOM     23  C4  BDP B   2       7.920  11.959  20.2120  0.00  0.00     0.000 C
ATOM     24  C5  BDP B   2       8.680  10.748  19.7070  0.00  0.00     0.000 C
ATOM     25  O5  BDP B   2       8.567  10.671  18.2990  0.00  0.00     0.000 O
ATOM     26   O  BDP B   2       9.089  14.186  17.4780  0.00  0.00     0.000 O
ATOM     28  HD  BDP B   2       9.444  13.541  17.0220  0.00  0.00     0.000 HD
ATOM     28   O  BDP B   2       7.773  14.399  19.9630  0.00  0.00     0.000 O
ATOM     30  HD  BDP B   2       8.129  13.754  19.5080  0.00  0.00     0.000 HD
BRANCH 24 30
ATOM     30   C  BDP B   2       8.152   9.478  20.2710  0.00  0.00     0.000 C
ATOM     31   O  BDP B   2       6.998   9.133  19.9280  0.00  0.00     0.000 OA
ATOM     32   O  BDP B   2       8.885   8.822  21.0660  0.00  0.00     0.000 OA
ENDBRANCH 24 30
BRANCH 20 33
ATOM     33  O3  NAG B   3       8.860  11.713  16.2650  0.00  0.00     0.000 O
BRANCH 33 36
ATOM     34  C1  NAG B   3      11.010   9.615  14.0010  0.00  0.00     0.000 C
ATOM     35  C2  NAG B   3      10.572  10.828  14.8000  0.00  0.00     0.000 C
ATOM     36  C3  NAG B   3       9.362  10.505  15.6890  0.00  0.00     0.000 C
ATOM     37  C4  NAG B   3       8.264   9.870  14.8380  0.00  0.00     0.000 C
ATOM     38  C5  NAG B   3       8.833   8.718  14.0140  0.00  0.00     0.000 C
ATOM     39  O5  NAG B   3       9.909   9.180  13.2150  0.00  0.00     0.000 O
ATOM     40   O  NAG B   3       7.211   9.380  15.6810  0.00  0.00     0.000 O
ATOM     42  HD  NAG B   3       7.372   8.648  15.2480  0.00  0.00     0.000 HD
ATOM     42   C  NAG B   3       7.834   8.107  13.0350  0.00  0.00     0.000 C
ATOM     43   O  NAG B   3       7.492   9.074  12.0340  0.00  0.00     0.000 O
ATOM     45  HD  NAG B   3       7.654   8.342  11.6000  0.00  0.00     0.000 HD
BRANCH 35 47
ATOM     45   N  NAG B   3      11.165  12.158  14.7290  0.00  0.00     0.000 N
ATOM     47  HD  NAG B   3      10.334  12.149  14.4830  0.00  0.00     0.000 HD
ATOM     47   C  NAG B   3      12.026  12.608  15.6190  0.00  0.00     0.000 C
ATOM     48   C  NAG B   3      12.524  14.007  15.4090  0.00  0.00     0.000 C
ATOM     49   O  NAG B   3      12.381  11.931  16.5820  0.00  0.00     0.000 OA
ENDBRANCH 35 47
BRANCH 34 50
ATOM     50  O4  BDP B   4      12.039  10.114  13.1720  0.00  0.00     0.000 O
BRANCH 50 54
ATOM     51  C1  BDP B   4      15.349   8.983  11.0960  0.00  0.00     0.000 C
ATOM     52  C2  BDP B   4      14.204   7.978  11.0540  0.00  0.00     0.000 C
ATOM     53  C3  BDP B   4      12.953   8.658  11.5190  0.00  0.00     0.000 C
ATOM     54  C4  BDP B   4      13.187   9.285  12.9240  0.00  0.00     0.000 C
ATOM     55  C5  BDP B   4      14.456  10.125  12.9790  0.00  0.00     0.000 C
ATOM     56  O5  BDP B   4      15.555   9.403  12.4320  0.00  0.00     0.000 O
ATOM     57   O  BDP B   4      14.016   7.503   9.7380  0.00  0.00     0.000 O
ATOM     59  HD  BDP B   4      14.370   6.712   9.7390  0.00  0.00     0.000 HD
ATOM     59   O  BDP B   4      11.943   7.636  11.6510  0.00  0.00     0.000 O
ATOM     61  HD  BDP B   4      12.297   6.846  11.6520  0.00  0.00     0.000 HD
BRANCH 55 61
ATOM     61   C  BDP B   4      14.759  10.479  14.4240  0.00  0.00     0.000 C
ATOM     62   O  BDP B   4      14.510   9.618  15.3080  0.00  0.00     0.000 OA
ATOM     63   O  BDP B   4      15.252  11.622  14.6720  0.00  0.00     0.000 OA
ENDBRANCH 55 61
BRANCH 51 64
ATOM     64  O3  NAG B   5      16.520   8.317  10.5830  0.00  0.00     0.000 O
BRANCH 64 67
ATOM     65  C1  NAG B   5      18.508  10.244   8.1480  0.00  0.00     0.000 C
ATOM     66  C2  NAG B   5      17.332   9.464   8.7110  0.00  0.00     0.000 C
ATOM     67  C3  NAG B   5      17.537   9.222  10.2010  0.00  0.00     0.000 C
ATOM     68  C4  NAG B   5      18.910   8.592  10.4740  0.00  0.00     0.000 C
ATOM     69  C5  NAG B   5      20.012   9.390   9.7940  0.00  0.00     0.000 C
ATOM     70  O5  NAG B   5      19.709   9.552   8.4010  0.00  0.00     0.000 O
ATOM     71   O  NAG B   5      19.110   8.531  11.8700  0.00  0.00     0.000 O
ATOM     73  HD  NAG B   5      19.421   7.749  11.6690  0.00  0.00     0.000 HD
ATOM     73   C  NAG B   5      21.408   8.762   9.9060  0.00  0.00     0.000 C
ATOM     74   O  NAG B   5      21.425   7.494   9.2170  0.00  0.00     0.000 O
ATOM     76  HD  NAG B   5      21.737   6.712   9.0170  0.00  0.00     0.000 HD
BRANCH 66 78
ATOM     76   N  NAG B   5      16.132  10.266   8.4040  0.00  0.00     0.000 N
ATOM     78  HD  NAG B   5      16.445   9.484   8.2030  0.00  0.00     0.000 HD
ATOM     78   C  NAG B   5      15.018   9.821   7.8020  0.00  0.00     0.000 C
ATOM     79   C  NAG B   5      13.958  10.877   7.6450  0.00  0.00     0.000 C
ATOM     80   O  NAG B   5      14.875   8.614   7.3930  0.00  0.00     0.000 OA
ENDBRANCH 66 78
BRANCH 65 81
ATOM     81  O4  BDP B   6      18.343  10.434   6.7370  0.00  0.00     0.000 O
BRANCH 81 85
ATOM     82  C1  BDP B   6      19.000  13.624   3.9520  0.00  0.00     0.000 C
ATOM     83  C2  BDP B   6      19.937  12.421   3.8810  0.00  0.00     0.000 C
ATOM     84  C3  BDP B   6      19.385  11.193   4.6100  0.00  0.00     0.000 C
ATOM     85  C4  BDP B   6      18.952  11.523   6.0400  0.00  0.00     0.000 C
ATOM     86  C5  BDP B   6      18.040  12.772   5.9840  0.00  0.00     0.000 C
ATOM     87  O5  BDP B   6      18.695  13.896   5.3120  0.00  0.00     0.000 O
ATOM     88   O  BDP B   6      20.076  12.129   2.4930  0.00  0.00     0.000 O
ATOM     90  HD  BDP B   6      20.103  11.452   1.9530  0.00  0.00     0.000 HD
ATOM     90   O  BDP B   6      20.362  10.149   4.5980  0.00  0.00     0.000 O
ATOM     92  HD  BDP B   6      20.389   9.472   4.0580  0.00  0.00     0.000 HD
BRANCH 86 92
ATOM     92   C  BDP B   6      17.771  13.293   7.3750  0.00  0.00     0.000 C
ATOM     93   O  BDP B   6      16.600  13.210   7.8570  0.00  0.00     0.000 OA
ATOM     94   O  BDP B   6      18.752  13.779   8.0190  0.00  0.00     0.000 OA
ENDBRANCH 86 92
BRANCH 82 95
ATOM     95  O3  NAG B   7      19.691  14.769   3.4150  0.00  0.00     0.000 O
BRANCH 95 98
ATOM     96  C1  NAG B   7      19.349  17.277   0.7830  0.00  0.00     0.000 C
ATOM     97  C2  NAG B   7      20.092  16.382   1.7660  0.00  0.00     0.000 C
ATOM     98  C3  NAG B   7      18.994  15.654   2.5390  0.00  0.00     0.000 C
ATOM     99  C4  NAG B   7      18.110  16.666   3.2630  0.00  0.00     0.000 C
ATOM    100  C5  NAG B   7      17.568  17.712   2.2890  0.00  0.00     0.000 C
ATOM    101  O5  NAG B   7      18.651  18.261   1.5540  0.00  0.00     0.000 O
BRANCH 97 104
ATOM    102   N  NAG B   7      20.900  15.248   1.2980  0.00  0.00     0.000 N
ATOM    104  HD  NAG B   7      21.261  14.464   1.2300  0.00  0.00     0.000 HD
ATOM    104   O  NAG B   7      22.793  14.103   0.8130  0.00  0.00     0.000 OA
ATOM    105   C  NAG B   7      22.238  15.160   1.1690  0.00  0.00     0.000 C
ATOM    106   C  NAG B   7      23.075  16.356   1.4740  0.00  0.00     0.000 C
ENDBRANCH 97 104
ATOM    107   O  NAG B   7      16.093  19.526   2.0890  0.00  0.00     0.000 O
ATOM    109  HD  NAG B   7      16.406  18.821   1.6950  0.00  0.00     0.000 HD
ATOM    109   O  NAG B   7      16.093  19.526   2.0890  0.00  0.00     0.000 O
ATOM    111  HD  NAG B   7      16.406  18.821   1.6950  0.00  0.00     0.000 HD
ENDBRANCH 95 98
ENDBRANCH 82 95
ENDBRANCH 81 85
ENDBRANCH 65 81
ENDBRANCH 64 67
ENDBRANCH 51 64
ENDBRANCH 50 54
ENDBRANCH 34 50
ENDBRANCH 33 36
ENDBRANCH 20 33
ENDBRANCH 19 23
ENDBRANCH 1 19
TORSDOF 19
ENDMDL
MODEL 73
REMARK VINA RESULT:      -5.4      6.634     19.158
ROOT
ATOM      1  C1  NAG B   1      13.658  12.520   8.0540  0.00  0.00     0.000 C
ATOM      2  C2  NAG B   1      14.015  13.993   7.8720  0.00  0.00     0.000 C
ATOM      3  C3  NAG B   1      15.167  14.179   6.9060  0.00  0.00     0.000 C
ATOM      4  C4  NAG B   1      16.322  13.369   7.4870  0.00  0.00     0.000 C
ATOM      5  C5  NAG B   1      15.932  11.885   7.5140  0.00  0.00     0.000 C
ATOM      6  O5  NAG B   1      14.774  11.666   8.3480  0.00  0.00     0.000 O
ATOM      7   O  NAG B   1      15.536  15.569   6.7580  0.00  0.00     0.000 O
ATOM      9  HD  NAG B   1      14.678  15.614   6.8630  0.00  0.00     0.000 HD
ATOM      9   O  NAG B   1      17.487  13.545   6.7000  0.00  0.00     0.000 O
ATOM     11  HD  NAG B   1      16.629  13.590   6.8040  0.00  0.00     0.000 HD
ATOM     11   C  NAG B   1      17.127  11.038   7.9660  0.00  0.00     0.000 C
ATOM     12   O  NAG B   1      16.698   9.846   8.6220  0.00  0.00     0.000 O
ATOM     14  HD  NAG B   1      15.840   9.890   8.7260  0.00  0.00     0.000 HD
ENDROOT
BRANCH 2 16
ATOM     14   N  NAG B   1      12.810  14.739   7.4670  0.00  0.00     0.000 N
ATOM     16  HD  NAG B   1      11.954  14.783   7.5860  0.00  0.00     0.000 HD
ATOM     16   C  NAG B   1      12.250  15.697   8.2250  0.00  0.00     0.000 C
ATOM     17   C  NAG B   1      12.839  16.032   9.5690  0.00  0.00     0.000 C
ATOM     18   O  NAG B   1      11.273  16.333   7.8300  0.00  0.00     0.000 OA
ENDBRANCH 2 16
BRANCH 1 19
ATOM     19  O4  BDP B   2      12.850  12.525   9.2230  0.00  0.00     0.000 O
BRANCH 19 23
ATOM     20  C1  BDP B   2      12.410  10.028  12.4650  0.00  0.00     0.000 C
ATOM     21  C2  BDP B   2      13.517  11.059  12.5550  0.00  0.00     0.000 C
ATOM     22  C3  BDP B   2      13.323  12.160  11.5380  0.00  0.00     0.000 C
ATOM     23  C4  BDP B   2      13.169  11.524  10.1590  0.00  0.00     0.000 C
ATOM     24  C5  BDP B   2      12.030  10.524  10.1890  0.00  0.00     0.000 C
ATOM     25  O5  BDP B   2      12.308   9.517  11.1440  0.00  0.00     0.000 O
ATOM     26   O  BDP B   2      13.567  11.612  13.8520  0.00  0.00     0.000 O
ATOM     28  HD  BDP B   2      13.032  10.944  13.9860  0.00  0.00     0.000 HD
ATOM     28   O  BDP B   2      14.441  13.060  11.5960  0.00  0.00     0.000 O
ATOM     30  HD  BDP B   2      13.906  12.392  11.7300  0.00  0.00     0.000 HD
BRANCH 24 30
ATOM     30   C  BDP B   2      11.833   9.857   8.8760  0.00  0.00     0.000 C
ATOM     31   O  BDP B   2      12.549   8.860   8.6250  0.00  0.00     0.000 OA
ATOM     32   O  BDP B   2      10.969  10.330   8.0840  0.00  0.00     0.000 OA
ENDBRANCH 24 30
BRANCH 20 33
ATOM     33  O3  NAG B   3      12.832   9.000  13.3270  0.00  0.00     0.000 O
BRANCH 33 36
ATOM     34  C1  NAG B   3      10.453   6.669  15.0760  0.00  0.00     0.000 C
ATOM     35  C2  NAG B   3      11.330   7.889  14.8670  0.00  0.00     0.000 C
ATOM     36  C3  NAG B   3      11.858   7.958  13.4260  0.00  0.00     0.000 C
ATOM     37  C4  NAG B   3      12.516   6.629  13.0640  0.00  0.00     0.000 C
ATOM     38  C5  NAG B   3      11.581   5.469  13.3940  0.00  0.00     0.000 C
ATOM     39  O5  NAG B   3      11.218   5.514  14.7630  0.00  0.00     0.000 O
ATOM     40   O  NAG B   3      12.834   6.604  11.6640  0.00  0.00     0.000 O
ATOM     42  HD  NAG B   3      12.372   5.872  11.6990  0.00  0.00     0.000 HD
ATOM     42   C  NAG B   3      12.207   4.093  13.1850  0.00  0.00     0.000 C
ATOM     43   O  NAG B   3      13.281   3.909  14.1160  0.00  0.00     0.000 O
ATOM     45  HD  NAG B   3      12.819   3.177  14.1510  0.00  0.00     0.000 HD
BRANCH 35 47
ATOM     45   N  NAG B   3      11.650   8.846  15.9190  0.00  0.00     0.000 N
ATOM     47  HD  NAG B   3      12.343   8.401  15.6510  0.00  0.00     0.000 HD
ATOM     47   C  NAG B   3      11.092  10.038  15.9980  0.00  0.00     0.000 C
ATOM     48   C  NAG B   3      11.549  10.907  17.1320  0.00  0.00     0.000 C
ATOM     49   O  NAG B   3      10.266  10.426  15.1750  0.00  0.00     0.000 OA
ENDBRANCH 35 47
BRANCH 34 50
ATOM     50  O4  BDP B   4      10.156   6.703  16.4560  0.00  0.00     0.000 O
BRANCH 50 54
ATOM     51  C1  BDP B   4       7.366   5.710  19.2460  0.00  0.00     0.000 C
ATOM     52  C2  BDP B   4       7.733   4.581  18.2890  0.00  0.00     0.000 C
ATOM     53  C3  BDP B   4       9.002   4.946  17.5820  0.00  0.00     0.000 C
ATOM     54  C4  BDP B   4       8.837   6.328  16.8870  0.00  0.00     0.000 C
ATOM     55  C5  BDP B   4       8.277   7.386  17.8280  0.00  0.00     0.000 C
ATOM     56  O5  BDP B   4       7.125   6.892  18.5040  0.00  0.00     0.000 O
ATOM     57   O  BDP B   4       7.924   3.378  19.0020  0.00  0.00     0.000 O
ATOM     59  HD  BDP B   4       7.203   2.921  18.8570  0.00  0.00     0.000 HD
ATOM     59   O  BDP B   4       9.210   3.954  16.5550  0.00  0.00     0.000 O
ATOM     61  HD  BDP B   4       8.488   3.498  16.4100  0.00  0.00     0.000 HD
BRANCH 55 61
ATOM     61   C  BDP B   4       7.896   8.618  17.0260  0.00  0.00     0.000 C
ATOM     62   O  BDP B   4       7.983   9.740  17.5900  0.00  0.00     0.000 OA
ATOM     63   O  BDP B   4       7.509   8.459  15.8280  0.00  0.00     0.000 OA
ENDBRANCH 55 61
BRANCH 51 64
ATOM     64  O3  NAG B   5       6.181   5.301  19.9560  0.00  0.00     0.000 O
BRANCH 64 67
ATOM     65  C1  NAG B   5       5.692   5.758  23.5810  0.00  0.00     0.000 C
ATOM     66  C2  NAG B   5       6.135   5.098  22.2870  0.00  0.00     0.000 C
ATOM     67  C3  NAG B   5       5.955   6.065  21.1240  0.00  0.00     0.000 C
ATOM     68  C4  NAG B   5       4.529   6.633  21.0940  0.00  0.00     0.000 C
ATOM     69  C5  NAG B   5       4.143   7.187  22.4570  0.00  0.00     0.000 C
ATOM     70  O5  NAG B   5       4.355   6.190  23.4670  0.00  0.00     0.000 O
ATOM     71   O  NAG B   5       4.461   7.631  20.0990  0.00  0.00     0.000 O
ATOM     73  HD  NAG B   5       3.703   7.246  19.9350  0.00  0.00     0.000 HD
ATOM     73   C  NAG B   5       2.687   7.662  22.5570  0.00  0.00     0.000 C
ATOM     74   O  NAG B   5       1.799   6.539  22.3770  0.00  0.00     0.000 O
ATOM     76  HD  NAG B   5       1.041   6.154  22.2140  0.00  0.00     0.000 HD
BRANCH 66 78
ATOM     76   N  NAG B   5       7.537   4.691  22.4980  0.00  0.00     0.000 N
ATOM     78  HD  NAG B   5       6.778   4.304  22.3410  0.00  0.00     0.000 HD
ATOM     78   C  NAG B   5       8.045   3.467  22.2820  0.00  0.00     0.000 C
ATOM     79   C  NAG B   5       9.518   3.368  22.5720  0.00  0.00     0.000 C
ATOM     80   O  NAG B   5       7.340   2.475  21.8750  0.00  0.00     0.000 OA
ENDBRANCH 66 78
BRANCH 65 81
ATOM     81  O4  BDP B   6       5.815   4.837  24.6720  0.00  0.00     0.000 O
BRANCH 81 85
ATOM     82  C1  BDP B   6       6.410   4.810  28.9160  0.00  0.00     0.000 C
ATOM     83  C2  BDP B   6       5.218   5.596  28.3750  0.00  0.00     0.000 C
ATOM     84  C3  BDP B   6       4.858   5.216  26.9360  0.00  0.00     0.000 C
ATOM     85  C4  BDP B   6       6.074   5.271  26.0090  0.00  0.00     0.000 C
ATOM     86  C5  BDP B   6       7.219   4.473  26.6780  0.00  0.00     0.000 C
ATOM     87  O5  BDP B   6       7.508   4.961  28.0270  0.00  0.00     0.000 O
ATOM     88   O  BDP B   6       4.130   5.278  29.2390  0.00  0.00     0.000 O
ATOM     90  HD  BDP B   6       3.285   5.091  29.2060  0.00  0.00     0.000 HD
ATOM     90   O  BDP B   6       3.813   6.069  26.4620  0.00  0.00     0.000 O
ATOM     92  HD  BDP B   6       2.968   5.882  26.4300  0.00  0.00     0.000 HD
BRANCH 86 92
ATOM     92   C  BDP B   6       8.516   4.684  25.9340  0.00  0.00     0.000 C
ATOM     93   O  BDP B   6       9.392   3.768  25.9370  0.00  0.00     0.000 OA
ATOM     94   O  BDP B   6       8.662   5.781  25.3110  0.00  0.00     0.000 OA
ENDBRANCH 86 92
BRANCH 82 95
ATOM     95  O3  NAG B   7       6.787   5.376  30.1860  0.00  0.00     0.000 O
BRANCH 95 98
ATOM     96  C1  NAG B   7       7.003   4.408  33.7020  0.00  0.00     0.000 C
ATOM     97  C2  NAG B   7       6.792   5.356  32.5280  0.00  0.00     0.000 C
ATOM     98  C3  NAG B   7       7.047   4.504  31.2860  0.00  0.00     0.000 C
ATOM     99  C4  NAG B   7       8.472   3.958  31.3140  0.00  0.00     0.000 C
ATOM    100  C5  NAG B   7       8.745   3.213  32.6220  0.00  0.00     0.000 C
ATOM    101  O5  NAG B   7       8.389   4.051  33.7110  0.00  0.00     0.000 O
BRANCH 97 104
ATOM    102   N  NAG B   7       5.444   5.888  32.2890  0.00  0.00     0.000 N
ATOM    104  HD  NAG B   7       4.698   6.107  31.9070  0.00  0.00     0.000 HD
ATOM    104   O  NAG B   7       3.832   7.470  32.1160  0.00  0.00     0.000 OA
ATOM    105   C  NAG B   7       5.000   7.153  32.4130  0.00  0.00     0.000 C
ATOM    106   C  NAG B   7       5.937   8.204  32.9050  0.00  0.00     0.000 C
ENDBRANCH 97 104
ATOM    107   O  NAG B   7      10.311   1.876  33.7450  0.00  0.00     0.000 O
ATOM    109  HD  NAG B   7       9.468   2.003  33.5930  0.00  0.00     0.000 HD
ATOM    109   O  NAG B   7      10.311   1.876  33.7450  0.00  0.00     0.000 O
ATOM    111  HD  NAG B   7       9.468   2.003  33.5930  0.00  0.00     0.000 HD
ENDBRANCH 95 98
ENDBRANCH 82 95
ENDBRANCH 81 85
ENDBRANCH 65 81
ENDBRANCH 64 67
ENDBRANCH 51 64
ENDBRANCH 50 54
ENDBRANCH 34 50
ENDBRANCH 33 36
ENDBRANCH 20 33
ENDBRANCH 19 23
ENDBRANCH 1 19
TORSDOF 19
ENDMDL
MODEL 74
REMARK VINA RESULT:      -5.3      5.203     16.625
ROOT
ATOM      1  C1  NAG B   1      17.129  18.614   3.7310  0.00  0.00     0.000 C
ATOM      2  C2  NAG B   1      18.400  19.458   3.7440  0.00  0.00     0.000 C
ATOM      3  C3  NAG B   1      18.502  20.343   2.5180  0.00  0.00     0.000 C
ATOM      4  C4  NAG B   1      18.445  19.396   1.3250  0.00  0.00     0.000 C
ATOM      5  C5  NAG B   1      17.086  18.684   1.3110  0.00  0.00     0.000 C
ATOM      6  O5  NAG B   1      16.898  17.899   2.5070  0.00  0.00     0.000 O
ATOM      7   O  NAG B   1      19.722  21.118   2.5040  0.00  0.00     0.000 O
ATOM      9  HD  NAG B   1      19.531  21.086   3.3480  0.00  0.00     0.000 HD
ATOM      9   O  NAG B   1      18.621  20.119   0.1180  0.00  0.00     0.000 O
ATOM     11  HD  NAG B   1      18.429  20.087   0.9620  0.00  0.00     0.000 HD
ATOM     11   C  NAG B   1      16.955  17.830   0.0440  0.00  0.00     0.000 C
ATOM     12   O  NAG B   1      16.104  16.706   0.2630  0.00  0.00     0.000 O
ATOM     14  HD  NAG B   1      15.913  16.674   1.1070  0.00  0.00     0.000 HD
ENDROOT
BRANCH 2 16
ATOM     14   N  NAG B   1      19.453  19.355   4.7690  0.00  0.00     0.000 N
ATOM     16  HD  NAG B   1      20.155  19.757   5.0800  0.00  0.00     0.000 HD
ATOM     16   C  NAG B   1      19.422  20.038   5.9270  0.00  0.00     0.000 C
ATOM     17   C  NAG B   1      18.285  20.984   6.2100  0.00  0.00     0.000 C
ATOM     18   O  NAG B   1      20.295  19.888   6.7810  0.00  0.00     0.000 OA
ENDBRANCH 2 16
BRANCH 1 19
ATOM     19  O4  BDP B   2      17.387  17.625   4.7190  0.00  0.00     0.000 O
BRANCH 19 23
ATOM     20  C1  BDP B   2      14.797  16.095   7.5280  0.00  0.00     0.000 C
ATOM     21  C2  BDP B   2      14.186  16.975   6.4580  0.00  0.00     0.000 C
ATOM     22  C3  BDP B   2      15.117  17.127   5.2760  0.00  0.00     0.000 C
ATOM     23  C4  BDP B   2      16.471  17.611   5.7870  0.00  0.00     0.000 C
ATOM     24  C5  BDP B   2      16.986  16.650   6.8400  0.00  0.00     0.000 C
ATOM     25  O5  BDP B   2      16.070  16.592   7.9170  0.00  0.00     0.000 O
ATOM     26   O  BDP B   2      12.954  16.438   6.0270  0.00  0.00     0.000 O
ATOM     28  HD  BDP B   2      13.100  15.953   6.7300  0.00  0.00     0.000 HD
ATOM     28   O  BDP B   2      14.537  18.042   4.3320  0.00  0.00     0.000 O
ATOM     30  HD  BDP B   2      14.683  17.557   5.0350  0.00  0.00     0.000 HD
BRANCH 24 30
ATOM     30   C  BDP B   2      18.301  17.070   7.3900  0.00  0.00     0.000 C
ATOM     31   O  BDP B   2      18.292  17.794   8.4110  0.00  0.00     0.000 OA
ATOM     32   O  BDP B   2      19.351  16.685   6.7990  0.00  0.00     0.000 OA
ENDBRANCH 24 30
BRANCH 20 33
ATOM     33  O3  NAG B   3      13.907  16.208   8.6110  0.00  0.00     0.000 O
BRANCH 33 36
ATOM     34  C1  NAG B   3      13.667  13.238  10.9080  0.00  0.00     0.000 C
ATOM     35  C2  NAG B   3      13.453  14.073   9.6600  0.00  0.00     0.000 C
ATOM     36  C3  NAG B   3      14.288  15.362   9.7000  0.00  0.00     0.000 C
ATOM     37  C4  NAG B   3      14.022  16.096  11.0120  0.00  0.00     0.000 C
ATOM     38  C5  NAG B   3      14.182  15.142  12.1930  0.00  0.00     0.000 C
ATOM     39  O5  NAG B   3      13.319  14.029  12.0360  0.00  0.00     0.000 O
ATOM     40   O  NAG B   3      14.938  17.192  11.1560  0.00  0.00     0.000 O
ATOM     42  HD  NAG B   3      15.099  16.798  11.9090  0.00  0.00     0.000 HD
ATOM     42   C  NAG B   3      13.808  15.759  13.5390  0.00  0.00     0.000 C
ATOM     43   O  NAG B   3      12.406  16.054  13.5570  0.00  0.00     0.000 O
ATOM     45  HD  NAG B   3      12.567  15.659  14.3110  0.00  0.00     0.000 HD
BRANCH 35 47
ATOM     45   N  NAG B   3      13.692  13.193   8.5230  0.00  0.00     0.000 N
ATOM     47  HD  NAG B   3      13.824  12.799   9.2830  0.00  0.00     0.000 HD
ATOM     47   C  NAG B   3      12.956  13.218   7.4300  0.00  0.00     0.000 C
ATOM     48   C  NAG B   3      13.325  12.231   6.3620  0.00  0.00     0.000 C
ATOM     49   O  NAG B   3      12.005  13.986   7.3020  0.00  0.00     0.000 OA
ENDBRANCH 35 47
BRANCH 34 50
ATOM     50  O4  BDP B   4      12.755  12.170  10.7560  0.00  0.00     0.000 O
BRANCH 50 54
ATOM     51  C1  BDP B   4      12.495   8.820  13.0500  0.00  0.00     0.000 C
ATOM     52  C2  BDP B   4      13.764   9.637  13.2670  0.00  0.00     0.000 C
ATOM     53  C3  BDP B   4      13.568  10.995  12.6660  0.00  0.00     0.000 C
ATOM     54  C4  BDP B   4      13.159  10.855  11.1710  0.00  0.00     0.000 C
ATOM     55  C5  BDP B   4      12.013   9.873  10.9740  0.00  0.00     0.000 C
ATOM     56  O5  BDP B   4      12.278   8.653  11.6610  0.00  0.00     0.000 O
ATOM     57   O  BDP B   4      14.031   9.770  14.6460  0.00  0.00     0.000 O
ATOM     59  HD  BDP B   4      14.673   9.209  14.7990  0.00  0.00     0.000 HD
ATOM     59   O  BDP B   4      14.844  11.665  12.7180  0.00  0.00     0.000 O
ATOM     61  HD  BDP B   4      15.486  11.104  12.8700  0.00  0.00     0.000 HD
BRANCH 55 61
ATOM     61   C  BDP B   4      11.849   9.586   9.4920  0.00  0.00     0.000 C
ATOM     62   O  BDP B   4      11.082  10.330   8.8270  0.00  0.00     0.000 OA
ATOM     63   O  BDP B   4      12.493   8.612   8.9940  0.00  0.00     0.000 OA
ENDBRANCH 55 61
BRANCH 51 64
ATOM     64  O3  NAG B   5      12.692   7.546  13.6940  0.00  0.00     0.000 O
BRANCH 64 67
ATOM     65  C1  NAG B   5       9.955   6.232  15.7860  0.00  0.00     0.000 C
ATOM     66  C2  NAG B   5      11.123   7.113  15.3750  0.00  0.00     0.000 C
ATOM     67  C3  NAG B   5      11.478   6.856  13.9170  0.00  0.00     0.000 C
ATOM     68  C4  NAG B   5      11.687   5.358  13.6570  0.00  0.00     0.000 C
ATOM     69  C5  NAG B   5      10.511   4.551  14.1840  0.00  0.00     0.000 C
ATOM     70  O5  NAG B   5      10.273   4.878  15.5610  0.00  0.00     0.000 O
ATOM     71   O  NAG B   5      11.862   5.160  12.2700  0.00  0.00     0.000 O
ATOM     73  HD  NAG B   5      12.480   4.620  12.5470  0.00  0.00     0.000 HD
ATOM     73   C  NAG B   5      10.691   3.030  14.0820  0.00  0.00     0.000 C
ATOM     74   O  NAG B   5      11.794   2.616  14.9150  0.00  0.00     0.000 O
ATOM     76  HD  NAG B   5      12.411   2.076  15.1920  0.00  0.00     0.000 HD
BRANCH 66 78
ATOM     76   N  NAG B   5      11.570   8.089  16.3880  0.00  0.00     0.000 N
ATOM     78  HD  NAG B   5      11.248   8.107  15.5840  0.00  0.00     0.000 HD
ATOM     78   C  NAG B   5      11.378   9.417  16.3440  0.00  0.00     0.000 C
ATOM     79   C  NAG B   5      11.936  10.143  17.5370  0.00  0.00     0.000 C
ATOM     80   O  NAG B   5      10.785  10.009  15.3730  0.00  0.00     0.000 OA
ENDBRANCH 66 78
BRANCH 65 81
ATOM     81  O4  BDP B   6       9.647   6.437  17.1710  0.00  0.00     0.000 O
BRANCH 81 85
ATOM     82  C1  BDP B   6       6.275   6.645  19.8070  0.00  0.00     0.000 C
ATOM     83  C2  BDP B   6       6.586   5.296  19.1650  0.00  0.00     0.000 C
ATOM     84  C3  BDP B   6       8.003   5.223  18.5900  0.00  0.00     0.000 C
ATOM     85  C4  BDP B   6       8.306   6.404  17.6640  0.00  0.00     0.000 C
ATOM     86  C5  BDP B   6       7.918   7.704  18.4090  0.00  0.00     0.000 C
ATOM     87  O5  BDP B   6       6.528   7.677  18.8650  0.00  0.00     0.000 O
ATOM     88   O  BDP B   6       6.446   4.336  20.2100  0.00  0.00     0.000 O
ATOM     90  HD  BDP B   6       6.835   3.628  20.5220  0.00  0.00     0.000 HD
ATOM     90   O  BDP B   6       8.181   3.979  17.9090  0.00  0.00     0.000 O
ATOM     92  HD  BDP B   6       8.570   3.270  18.2200  0.00  0.00     0.000 HD
BRANCH 86 92
ATOM     92   C  BDP B   6       7.967   8.886  17.4710  0.00  0.00     0.000 C
ATOM     93   O  BDP B   6       8.400  10.000  17.8940  0.00  0.00     0.000 OA
ATOM     94   O  BDP B   6       7.586   8.700  16.2740  0.00  0.00     0.000 OA
ENDBRANCH 86 92
BRANCH 82 95
ATOM     95  O3  NAG B   7       4.872   6.678  20.1340  0.00  0.00     0.000 O
BRANCH 95 98
ATOM     96  C1  NAG B   7       2.745   7.543  22.9750  0.00  0.00     0.000 C
ATOM     97  C2  NAG B   7       3.173   6.755  21.7450  0.00  0.00     0.000 C
ATOM     98  C3  NAG B   7       4.436   7.455  21.2490  0.00  0.00     0.000 C
ATOM     99  C4  NAG B   7       4.121   8.908  20.9000  0.00  0.00     0.000 C
ATOM    100  C5  NAG B   7       3.459   9.621  22.0790  0.00  0.00     0.000 C
ATOM    101  O5  NAG B   7       2.357   8.846  22.5260  0.00  0.00     0.000 O
BRANCH 97 104
ATOM    102   N  NAG B   7       3.654   5.370  21.8530  0.00  0.00     0.000 N
ATOM    104  HD  NAG B   7       4.110   4.643  21.7390  0.00  0.00     0.000 HD
ATOM    104   O  NAG B   7       3.554   3.114  21.6840  0.00  0.00     0.000 OA
ATOM    105   C  NAG B   7       2.992   4.224  21.6040  0.00  0.00     0.000 C
ATOM    106   C  NAG B   7       1.556   4.288  21.2110  0.00  0.00     0.000 C
ENDBRANCH 97 104
ATOM    107   O  NAG B   7       2.717  11.708  22.8520  0.00  0.00     0.000 O
ATOM    109  HD  NAG B   7       3.108  10.969  23.0760  0.00  0.00     0.000 HD
ATOM    109   O  NAG B   7       2.717  11.708  22.8520  0.00  0.00     0.000 O
ATOM    111  HD  NAG B   7       3.108  10.969  23.0760  0.00  0.00     0.000 HD
ENDBRANCH 95 98
ENDBRANCH 82 95
ENDBRANCH 81 85
ENDBRANCH 65 81
ENDBRANCH 64 67
ENDBRANCH 51 64
ENDBRANCH 50 54
ENDBRANCH 34 50
ENDBRANCH 33 36
ENDBRANCH 20 33
ENDBRANCH 19 23
ENDBRANCH 1 19
TORSDOF 19
ENDMDL
MODEL 75
REMARK VINA RESULT:      -5.3      7.996     14.950
ROOT
ATOM      1  C1  NAG B   1      24.903   6.601  11.8660  0.00  0.00     0.000 C
ATOM      2  C2  NAG B   1      25.453   5.392  12.6160  0.00  0.00     0.000 C
ATOM      3  C3  NAG B   1      26.667   4.804  11.9260  0.00  0.00     0.000 C
ATOM      4  C4  NAG B   1      26.205   4.452  10.5160  0.00  0.00     0.000 C
ATOM      5  C5  NAG B   1      25.793   5.736   9.7860  0.00  0.00     0.000 C
ATOM      6  O5  NAG B   1      24.696   6.390  10.4600  0.00  0.00     0.000 O
ATOM      7   O  NAG B   1      27.171   3.635  12.6110  0.00  0.00     0.000 O
ATOM      9  HD  NAG B   1      26.890   4.128  13.2650  0.00  0.00     0.000 HD
ATOM      9   O  NAG B   1      27.250   3.809   9.8060  0.00  0.00     0.000 O
ATOM     11  HD  NAG B   1      26.969   4.302  10.4600  0.00  0.00     0.000 HD
ATOM     11   C  NAG B   1      25.455   5.422   8.3240  0.00  0.00     0.000 C
ATOM     12   O  NAG B   1      24.493   6.340   7.8060  0.00  0.00     0.000 O
ATOM     14  HD  NAG B   1      24.213   6.833   8.4600  0.00  0.00     0.000 HD
ENDROOT
BRANCH 2 16
ATOM     14   N  NAG B   1      24.687   4.964  13.8000  0.00  0.00     0.000 N
ATOM     16  HD  NAG B   1      24.660   4.363  14.4230  0.00  0.00     0.000 HD
ATOM     16   C  NAG B   1      25.070   5.233  15.0600  0.00  0.00     0.000 C
ATOM     17   C  NAG B   1      26.352   5.983  15.3120  0.00  0.00     0.000 C
ATOM     18   O  NAG B   1      24.378   4.902  16.0230  0.00  0.00     0.000 OA
ENDBRANCH 2 16
BRANCH 1 19
ATOM     19  O4  BDP B   2      23.609   6.771  12.4300  0.00  0.00     0.000 O
BRANCH 19 23
ATOM     20  C1  BDP B   2      19.831   7.502  10.9710  0.00  0.00     0.000 C
ATOM     21  C2  BDP B   2      20.365   6.097  10.7810  0.00  0.00     0.000 C
ATOM     22  C3  BDP B   2      21.538   5.829  11.6970  0.00  0.00     0.000 C
ATOM     23  C4  BDP B   2      22.576   6.928  11.4870  0.00  0.00     0.000 C
ATOM     24  C5  BDP B   2      21.931   8.281  11.7150  0.00  0.00     0.000 C
ATOM     25  O5  BDP B   2      20.867   8.458  10.7990  0.00  0.00     0.000 O
ATOM     26   O  BDP B   2      19.348   5.150  11.0210  0.00  0.00     0.000 O
ATOM     28  HD  BDP B   2      18.881   5.878  10.9940  0.00  0.00     0.000 HD
ATOM     28   O  BDP B   2      22.069   4.525  11.4170  0.00  0.00     0.000 O
ATOM     30  HD  BDP B   2      21.602   5.253  11.3890  0.00  0.00     0.000 HD
BRANCH 24 30
ATOM     30   C  BDP B   2      22.888   9.401  11.5140  0.00  0.00     0.000 C
ATOM     31   O  BDP B   2      23.289   9.612  10.3470  0.00  0.00     0.000 OA
ATOM     32   O  BDP B   2      23.250  10.070  12.5240  0.00  0.00     0.000 OA
ENDBRANCH 24 30
BRANCH 20 33
ATOM     33  O3  NAG B   3      18.889   7.650   9.9360  0.00  0.00     0.000 O
BRANCH 33 36
ATOM     34  C1  NAG B   3      15.886   9.865  10.4140  0.00  0.00     0.000 C
ATOM     35  C2  NAG B   3      16.738   8.612  10.4930  0.00  0.00     0.000 C
ATOM     36  C3  NAG B   3      18.180   8.887  10.0390  0.00  0.00     0.000 C
ATOM     37  C4  NAG B   3      18.159   9.560   8.6690  0.00  0.00     0.000 C
ATOM     38  C5  NAG B   3      17.208  10.754   8.6810  0.00  0.00     0.000 C
ATOM     39  O5  NAG B   3      15.912  10.336   9.0750  0.00  0.00     0.000 O
ATOM     40   O  NAG B   3      19.479  10.005   8.3210  0.00  0.00     0.000 O
ATOM     42  HD  NAG B   3      19.064  10.758   8.2180  0.00  0.00     0.000 HD
ATOM     42   C  NAG B   3      17.025  11.410   7.3150  0.00  0.00     0.000 C
ATOM     43   O  NAG B   3      16.373  10.494   6.4270  0.00  0.00     0.000 O
ATOM     45  HD  NAG B   3      15.958  11.247   6.3240  0.00  0.00     0.000 HD
BRANCH 35 47
ATOM     45   N  NAG B   3      16.593   8.085  11.8440  0.00  0.00     0.000 N
ATOM     47  HD  NAG B   3      16.164   8.829  11.7290  0.00  0.00     0.000 HD
ATOM     47   C  NAG B   3      16.476   6.798  12.1030  0.00  0.00     0.000 C
ATOM     48   C  NAG B   3      16.314   6.426  13.5470  0.00  0.00     0.000 C
ATOM     49   O  NAG B   3      16.474   5.952  11.2120  0.00  0.00     0.000 OA
ENDBRANCH 35 47
BRANCH 34 50
ATOM     50  O4  BDP B   4      14.592   9.411  10.7520  0.00  0.00     0.000 O
BRANCH 50 54
ATOM     51  C1  BDP B   4      11.345  10.468  12.9630  0.00  0.00     0.000 C
ATOM     52  C2  BDP B   4      11.181  10.675  11.4620  0.00  0.00     0.000 C
ATOM     53  C3  BDP B   4      12.261   9.918  10.7530  0.00  0.00     0.000 C
ATOM     54  C4  BDP B   4      13.653  10.352  11.2980  0.00  0.00     0.000 C
ATOM     55  C5  BDP B   4      13.713  10.322  12.8190  0.00  0.00     0.000 C
ATOM     56  O5  BDP B   4      12.591  11.000  13.3760  0.00  0.00     0.000 O
ATOM     57   O  BDP B   4       9.921  10.202  11.0360  0.00  0.00     0.000 O
ATOM     59  HD  BDP B   4       9.445  10.917  10.9280  0.00  0.00     0.000 HD
ATOM     59   O  BDP B   4      12.193  10.292   9.3610  0.00  0.00     0.000 O
ATOM     61  HD  BDP B   4      11.717  11.007   9.2530  0.00  0.00     0.000 HD
BRANCH 55 61
ATOM     61   C  BDP B   4      14.988  11.003  13.2830  0.00  0.00     0.000 C
ATOM     62   O  BDP B   4      15.849  10.303  13.8780  0.00  0.00     0.000 OA
ATOM     63   O  BDP B   4      15.127  12.242  13.0480  0.00  0.00     0.000 OA
ENDBRANCH 55 61
BRANCH 51 64
ATOM     64  O3  NAG B   5      10.256  11.154  13.6100  0.00  0.00     0.000 O
BRANCH 64 67
ATOM     65  C1  NAG B   5       8.711   9.603  16.5770  0.00  0.00     0.000 C
ATOM     66  C2  NAG B   5       9.047   9.828  15.1130  0.00  0.00     0.000 C
ATOM     67  C3  NAG B   5      10.166  10.853  14.9890  0.00  0.00     0.000 C
ATOM     68  C4  NAG B   5       9.831  12.132  15.7700  0.00  0.00     0.000 C
ATOM     69  C5  NAG B   5       9.418  11.798  17.1950  0.00  0.00     0.000 C
ATOM     70  O5  NAG B   5       8.362  10.827  17.1830  0.00  0.00     0.000 O
ATOM     71   O  NAG B   5      10.957  12.982  15.7500  0.00  0.00     0.000 O
ATOM     73  HD  NAG B   5      10.350  13.584  15.6130  0.00  0.00     0.000 HD
ATOM     73   C  NAG B   5       8.941  13.006  18.0140  0.00  0.00     0.000 C
ATOM     74   O  NAG B   5       7.741  13.547  17.4250  0.00  0.00     0.000 O
ATOM     76  HD  NAG B   5       7.133  14.149  17.2890  0.00  0.00     0.000 HD
BRANCH 66 78
ATOM     76   N  NAG B   5       9.421   8.513  14.5570  0.00  0.00     0.000 N
ATOM     78  HD  NAG B   5       8.792   9.097  14.4430  0.00  0.00     0.000 HD
ATOM     78   C  NAG B   5       8.889   7.936  13.4680  0.00  0.00     0.000 C
ATOM     79   C  NAG B   5       9.494   6.597  13.1420  0.00  0.00     0.000 C
ATOM     80   O  NAG B   5       7.949   8.470  12.7770  0.00  0.00     0.000 OA
ENDBRANCH 66 78
BRANCH 65 81
ATOM     81  O4  BDP B   6       7.626   8.673  16.6970  0.00  0.00     0.000 O
BRANCH 81 85
ATOM     82  C1  BDP B   6       6.503   5.521  19.3730  0.00  0.00     0.000 C
ATOM     83  C2  BDP B   6       5.724   6.831  19.4600  0.00  0.00     0.000 C
ATOM     84  C3  BDP B   6       5.913   7.718  18.2260  0.00  0.00     0.000 C
ATOM     85  C4  BDP B   6       7.392   7.928  17.8940  0.00  0.00     0.000 C
ATOM     86  C5  BDP B   6       8.076   6.541  17.8690  0.00  0.00     0.000 C
ATOM     87  O5  BDP B   6       7.870   5.809  19.1200  0.00  0.00     0.000 O
ATOM     88   O  BDP B   6       4.355   6.453  19.5700  0.00  0.00     0.000 O
ATOM     90  HD  BDP B   6       3.574   6.678  19.2710  0.00  0.00     0.000 HD
ATOM     90   O  BDP B   6       5.251   8.969  18.4290  0.00  0.00     0.000 O
ATOM     92  HD  BDP B   6       4.470   9.194  18.1290  0.00  0.00     0.000 HD
BRANCH 86 92
ATOM     92   C  BDP B   6       9.575   6.691  17.7830  0.00  0.00     0.000 C
ATOM     93   O  BDP B   6      10.219   7.117  18.7890  0.00  0.00     0.000 OA
ATOM     94   O  BDP B   6      10.136   6.356  16.6930  0.00  0.00     0.000 OA
ENDBRANCH 86 92
BRANCH 82 95
ATOM     95  O3  NAG B   7       6.419   4.858  20.6500  0.00  0.00     0.000 O
BRANCH 95 98
ATOM     96  C1  NAG B   7       5.815   1.422  21.7300  0.00  0.00     0.000 C
ATOM     97  C2  NAG B   7       5.610   2.931  21.7050  0.00  0.00     0.000 C
ATOM     98  C3  NAG B   7       6.654   3.453  20.7210  0.00  0.00     0.000 C
ATOM     99  C4  NAG B   7       8.054   3.088  21.2070  0.00  0.00     0.000 C
ATOM    100  C5  NAG B   7       8.168   1.585  21.4660  0.00  0.00     0.000 C
ATOM    101  O5  NAG B   7       7.102   1.181  22.3120  0.00  0.00     0.000 O
BRANCH 97 104
ATOM    102   N  NAG B   7       4.328   3.414  21.1740  0.00  0.00     0.000 N
ATOM    104  HD  NAG B   7       3.734   3.817  20.6890  0.00  0.00     0.000 HD
ATOM    104   O  NAG B   7       2.363   4.540  21.1870  0.00  0.00     0.000 OA
ATOM    105   C  NAG B   7       3.382   4.150  21.7890  0.00  0.00     0.000 C
ATOM    106   C  NAG B   7       3.569   4.518  23.2210  0.00  0.00     0.000 C
ENDBRANCH 97 104
ATOM    107   O  NAG B   7       9.672  -0.134  22.0050  0.00  0.00     0.000 O
ATOM    109  HD  NAG B   7       8.983   0.080  21.5250  0.00  0.00     0.000 HD
ATOM    109   O  NAG B   7       9.672  -0.134  22.0050  0.00  0.00     0.000 O
ATOM    111  HD  NAG B   7       8.983   0.080  21.5250  0.00  0.00     0.000 HD
ENDBRANCH 95 98
ENDBRANCH 82 95
ENDBRANCH 81 85
ENDBRANCH 65 81
ENDBRANCH 64 67
ENDBRANCH 51 64
ENDBRANCH 50 54
ENDBRANCH 34 50
ENDBRANCH 33 36
ENDBRANCH 20 33
ENDBRANCH 19 23
ENDBRANCH 1 19
TORSDOF 19
ENDMDL
MODEL 76
REMARK VINA RESULT:      -5.3      9.994     16.057
ROOT
ATOM      1  C1  NAG B   1      10.586   9.573  11.8350  0.00  0.00     0.000 C
ATOM      2  C2  NAG B   1      10.514   8.066  12.0670  0.00  0.00     0.000 C
ATOM      3  C3  NAG B   1       9.208   7.657  12.7180  0.00  0.00     0.000 C
ATOM      4  C4  NAG B   1       9.134   8.450  14.0190  0.00  0.00     0.000 C
ATOM      5  C5  NAG B   1       9.078   9.948  13.6920  0.00  0.00     0.000 C
ATOM      6  O5  NAG B   1      10.262  10.372  12.9840  0.00  0.00     0.000 O
ATOM      7   O  NAG B   1       9.149   6.236  12.9760  0.00  0.00     0.000 O
ATOM      9  HD  NAG B   1       9.597   6.273  12.2360  0.00  0.00     0.000 HD
ATOM      9   O  NAG B   1       7.982   8.075  14.7550  0.00  0.00     0.000 O
ATOM     11  HD  NAG B   1       8.431   8.112  14.0150  0.00  0.00     0.000 HD
ATOM     11   C  NAG B   1       8.866  10.756  14.9780  0.00  0.00     0.000 C
ATOM     12   O  NAG B   1       9.438  12.059  14.8720  0.00  0.00     0.000 O
ATOM     14  HD  NAG B   1       9.887  12.095  14.1320  0.00  0.00     0.000 HD
ENDROOT
BRANCH 2 16
ATOM     14   N  NAG B   1      10.703   7.274  10.8380  0.00  0.00     0.000 N
ATOM     16  HD  NAG B   1      11.084   7.289  10.0610  0.00  0.00     0.000 HD
ATOM     16   C  NAG B   1      11.819   6.569  10.5830  0.00  0.00     0.000 C
ATOM     17   C  NAG B   1      12.960   6.588  11.5650  0.00  0.00     0.000 C
ATOM     18   O  NAG B   1      11.920   5.880   9.5690  0.00  0.00     0.000 OA
ENDBRANCH 2 16
BRANCH 1 19
ATOM     19  O4  BDP B   2      11.966   9.795  11.5800  0.00  0.00     0.000 O
BRANCH 19 23
ATOM     20  C1  BDP B   2      14.216  12.819   9.9260  0.00  0.00     0.000 C
ATOM     21  C2  BDP B   2      13.564  13.118  11.2610  0.00  0.00     0.000 C
ATOM     22  C3  BDP B   2      13.134  11.847  11.9570  0.00  0.00     0.000 C
ATOM     23  C4  BDP B   2      12.260  11.043  10.9980  0.00  0.00     0.000 C
ATOM     24  C5  BDP B   2      13.019  10.797   9.7090  0.00  0.00     0.000 C
ATOM     25  O5  BDP B   2      13.355  12.035   9.1130  0.00  0.00     0.000 O
ATOM     26   O  BDP B   2      14.452  13.837  12.0890  0.00  0.00     0.000 O
ATOM     28  HD  BDP B   2      14.869  13.886  11.3320  0.00  0.00     0.000 HD
ATOM     28   O  BDP B   2      12.439  12.182  13.1680  0.00  0.00     0.000 O
ATOM     30  HD  BDP B   2      12.857  12.231  12.4110  0.00  0.00     0.000 HD
BRANCH 24 30
ATOM     30   C  BDP B   2      12.217  10.025   8.7230  0.00  0.00     0.000 C
ATOM     31   O  BDP B   2      11.059  10.434   8.4800  0.00  0.00     0.000 OA
ATOM     32   O  BDP B   2      12.738   9.003   8.1930  0.00  0.00     0.000 OA
ENDBRANCH 24 30
BRANCH 20 33
ATOM     33  O3  NAG B   3      14.382  14.086   9.3370  0.00  0.00     0.000 O
BRANCH 33 36
ATOM     34  C1  NAG B   3      16.722  14.296   6.4000  0.00  0.00     0.000 C
ATOM     35  C2  NAG B   3      16.289  14.183   7.8490  0.00  0.00     0.000 C
ATOM     36  C3  NAG B   3      14.770  13.985   7.9650  0.00  0.00     0.000 C
ATOM     37  C4  NAG B   3      14.056  15.073   7.1680  0.00  0.00     0.000 C
ATOM     38  C5  NAG B   3      14.628  15.156   5.7550  0.00  0.00     0.000 C
ATOM     39  O5  NAG B   3      16.025  15.385   5.8120  0.00  0.00     0.000 O
ATOM     40   O  NAG B   3      12.650  14.789   7.0990  0.00  0.00     0.000 O
ATOM     42  HD  NAG B   3      12.802  14.870   6.2500  0.00  0.00     0.000 HD
ATOM     42   C  NAG B   3      14.062  16.306   4.9260  0.00  0.00     0.000 C
ATOM     43   O  NAG B   3      14.462  17.555   5.5040  0.00  0.00     0.000 O
ATOM     45  HD  NAG B   3      14.613  17.635   4.6550  0.00  0.00     0.000 HD
BRANCH 35 47
ATOM     45   N  NAG B   3      17.146  14.290   9.0240  0.00  0.00     0.000 N
ATOM     47  HD  NAG B   3      16.530  14.899   9.0030  0.00  0.00     0.000 HD
ATOM     47   C  NAG B   3      17.609  13.240   9.6720  0.00  0.00     0.000 C
ATOM     48   C  NAG B   3      18.460  13.528  10.8730  0.00  0.00     0.000 C
ATOM     49   O  NAG B   3      17.337  12.091   9.3300  0.00  0.00     0.000 OA
ENDBRANCH 35 47
BRANCH 34 50
ATOM     50  O4  BDP B   4      18.102  14.583   6.4850  0.00  0.00     0.000 O
BRANCH 50 54
ATOM     51  C1  BDP B   4      21.702  14.155   4.6370  0.00  0.00     0.000 C
ATOM     52  C2  BDP B   4      20.691  14.995   3.8650  0.00  0.00     0.000 C
ATOM     53  C3  BDP B   4      19.581  15.382   4.7920  0.00  0.00     0.000 C
ATOM     54  C4  BDP B   4      18.971  14.107   5.4420  0.00  0.00     0.000 C
ATOM     55  C5  BDP B   4      20.035  13.191   6.0310  0.00  0.00     0.000 C
ATOM     56  O5  BDP B   4      21.077  12.966   5.0860  0.00  0.00     0.000 O
ATOM     57   O  BDP B   4      21.306  16.161   3.3590  0.00  0.00     0.000 O
ATOM     59  HD  BDP B   4      21.428  15.996   2.5180  0.00  0.00     0.000 HD
ATOM     59   O  BDP B   4      18.558  16.003   3.9870  0.00  0.00     0.000 O
ATOM     61  HD  BDP B   4      18.679  15.839   3.1450  0.00  0.00     0.000 HD
BRANCH 55 61
ATOM     61   C  BDP B   4      19.403  11.862   6.4020  0.00  0.00     0.000 C
ATOM     62   O  BDP B   4      18.509  11.401   5.6450  0.00  0.00     0.000 OA
ATOM     63   O  BDP B   4      19.804  11.279   7.4550  0.00  0.00     0.000 OA
ENDBRANCH 55 61
BRANCH 51 64
ATOM     64  O3  NAG B   5      22.785  13.855   3.7360  0.00  0.00     0.000 O
BRANCH 64 67
ATOM     65  C1  NAG B   5      26.289  13.709   4.8750  0.00  0.00     0.000 C
ATOM     66  C2  NAG B   5      24.982  14.319   4.3990  0.00  0.00     0.000 C
ATOM     67  C3  NAG B   5      23.888  13.259   4.3910  0.00  0.00     0.000 C
ATOM     68  C4  NAG B   5      24.333  12.014   3.6110  0.00  0.00     0.000 C
ATOM     69  C5  NAG B   5      25.691  11.533   4.0960  0.00  0.00     0.000 C
ATOM     70  O5  NAG B   5      26.634  12.614   4.0580  0.00  0.00     0.000 O
ATOM     71   O  NAG B   5      23.351  11.011   3.7630  0.00  0.00     0.000 O
ATOM     73  HD  NAG B   5      23.507  10.900   2.9180  0.00  0.00     0.000 HD
ATOM     73   C  NAG B   5      26.275  10.367   3.2860  0.00  0.00     0.000 C
ATOM     74   O  NAG B   5      26.525  10.795   1.9310  0.00  0.00     0.000 O
ATOM     76  HD  NAG B   5      26.681  10.684   1.0870  0.00  0.00     0.000 HD
BRANCH 66 78
ATOM     76   N  NAG B   5      24.844  15.480   5.2990  0.00  0.00     0.000 N
ATOM     78  HD  NAG B   5      24.824  15.329   4.4460  0.00  0.00     0.000 HD
ATOM     78   C  NAG B   5      24.417  16.704   4.9490  0.00  0.00     0.000 C
ATOM     79   C  NAG B   5      24.368  17.673   6.0980  0.00  0.00     0.000 C
ATOM     80   O  NAG B   5      24.090  17.018   3.7490  0.00  0.00     0.000 OA
ENDBRANCH 66 78
BRANCH 65 81
ATOM     81  O4  BDP B   6      27.332  14.692   4.8400  0.00  0.00     0.000 O
BRANCH 81 85
ATOM     82  C1  BDP B   6      31.167  15.434   6.6030  0.00  0.00     0.000 C
ATOM     83  C2  BDP B   6      31.122  14.552   5.3590  0.00  0.00     0.000 C
ATOM     84  C3  BDP B   6      29.807  14.681   4.5850  0.00  0.00     0.000 C
ATOM     85  C4  BDP B   6      28.589  14.490   5.4920  0.00  0.00     0.000 C
ATOM     86  C5  BDP B   6      28.766  15.405   6.7270  0.00  0.00     0.000 C
ATOM     87  O5  BDP B   6      30.034  15.154   7.4140  0.00  0.00     0.000 O
ATOM     88   O  BDP B   6      32.202  14.993   4.5410  0.00  0.00     0.000 O
ATOM     90  HD  BDP B   6      32.385  15.160   3.7110  0.00  0.00     0.000 HD
ATOM     90   O  BDP B   6      29.792  13.746   3.5040  0.00  0.00     0.000 O
ATOM     92  HD  BDP B   6      29.976  13.912   2.6750  0.00  0.00     0.000 HD
BRANCH 86 92
ATOM     92   C  BDP B   6      27.723  15.093   7.7720  0.00  0.00     0.000 C
ATOM     93   O  BDP B   6      26.696  15.830   7.8680  0.00  0.00     0.000 OA
ATOM     94   O  BDP B   6      27.915  14.074   8.5060  0.00  0.00     0.000 OA
ENDBRANCH 86 92
BRANCH 82 95
ATOM     95  O3  NAG B   7      32.346  15.094   7.3580  0.00  0.00     0.000 O
BRANCH 95 98
ATOM     96  C1  NAG B   7      35.246  16.863   8.7010  0.00  0.00     0.000 C
ATOM     97  C2  NAG B   7      34.507  15.735   7.9930  0.00  0.00     0.000 C
ATOM     98  C3  NAG B   7      33.031  16.119   8.0770  0.00  0.00     0.000 C
ATOM     99  C4  NAG B   7      32.607  16.233   9.5390  0.00  0.00     0.000 C
ATOM    100  C5  NAG B   7      33.524  17.192  10.3000  0.00  0.00     0.000 C
ATOM    101  O5  NAG B   7      34.873  16.809  10.0820  0.00  0.00     0.000 O
BRANCH 97 104
ATOM    102   N  NAG B   7      34.748  15.570   6.5530  0.00  0.00     0.000 N
ATOM    104  HD  NAG B   7      34.629  15.505   5.6970  0.00  0.00     0.000 HD
ATOM    104   O  NAG B   7      35.379  14.502   4.6580  0.00  0.00     0.000 OA
ATOM    105   C  NAG B   7      35.292  14.524   5.9010  0.00  0.00     0.000 C
ATOM    106   C  NAG B   7      35.788  13.360   6.6880  0.00  0.00     0.000 C
ENDBRANCH 97 104
ATOM    107   O  NAG B   7      33.829  18.289  12.3510  0.00  0.00     0.000 O
ATOM    109  HD  NAG B   7      33.891  18.366  11.4910  0.00  0.00     0.000 HD
ATOM    109   O  NAG B   7      33.829  18.289  12.3510  0.00  0.00     0.000 O
ATOM    111  HD  NAG B   7      33.891  18.366  11.4910  0.00  0.00     0.000 HD
ENDBRANCH 95 98
ENDBRANCH 82 95
ENDBRANCH 81 85
ENDBRANCH 65 81
ENDBRANCH 64 67
ENDBRANCH 51 64
ENDBRANCH 50 54
ENDBRANCH 34 50
ENDBRANCH 33 36
ENDBRANCH 20 33
ENDBRANCH 19 23
ENDBRANCH 1 19
TORSDOF 19
ENDMDL
MODEL 77
REMARK VINA RESULT:      -5.3      7.039     13.816
ROOT
ATOM      1  C1  NAG B   1      16.092  11.528   8.7030  0.00  0.00     0.000 C
ATOM      2  C2  NAG B   1      16.814  12.446   7.7200  0.00  0.00     0.000 C
ATOM      3  C3  NAG B   1      15.972  13.650   7.3500  0.00  0.00     0.000 C
ATOM      4  C4  NAG B   1      14.680  13.082   6.7720  0.00  0.00     0.000 C
ATOM      5  C5  NAG B   1      13.951  12.284   7.8610  0.00  0.00     0.000 C
ATOM      6  O5  NAG B   1      14.754  11.175   8.3190  0.00  0.00     0.000 O
ATOM      7   O  NAG B   1      16.634  14.504   6.3890  0.00  0.00     0.000 O
ATOM      9  HD  NAG B   1      17.295  14.215   6.8680  0.00  0.00     0.000 HD
ATOM      9   O  NAG B   1      13.848  14.134   6.3100  0.00  0.00     0.000 O
ATOM     11  HD  NAG B   1      14.509  13.844   6.7890  0.00  0.00     0.000 HD
ATOM     11   C  NAG B   1      12.584  11.820   7.3420  0.00  0.00     0.000 C
ATOM     12   O  NAG B   1      12.175  10.608   7.9740  0.00  0.00     0.000 O
ATOM     14  HD  NAG B   1      12.836  10.318   8.4530  0.00  0.00     0.000 HD
ENDROOT
BRANCH 2 16
ATOM     14   N  NAG B   1      18.130  11.964   7.2660  0.00  0.00     0.000 N
ATOM     16  HD  NAG B   1      18.784  12.148   6.7290  0.00  0.00     0.000 HD
ATOM     16   C  NAG B   1      19.293  12.468   7.7140  0.00  0.00     0.000 C
ATOM     17   C  NAG B   1      19.288  13.599   8.7080  0.00  0.00     0.000 C
ATOM     18   O  NAG B   1      20.373  12.005   7.3480  0.00  0.00     0.000 OA
ENDBRANCH 2 16
BRANCH 1 19
ATOM     19  O4  BDP B   2      16.847  10.327   8.6380  0.00  0.00     0.000 O
BRANCH 19 23
ATOM     20  C1  BDP B   2      15.465   8.729  12.1710  0.00  0.00     0.000 C
ATOM     21  C2  BDP B   2      16.623   9.700  12.2780  0.00  0.00     0.000 C
ATOM     22  C3  BDP B   2      16.766  10.524  11.0190  0.00  0.00     0.000 C
ATOM     23  C4  BDP B   2      16.853   9.574   9.8280  0.00  0.00     0.000 C
ATOM     24  C5  BDP B   2      15.641   8.664   9.8180  0.00  0.00     0.000 C
ATOM     25  O5  BDP B   2      15.603   7.913  11.0160  0.00  0.00     0.000 O
ATOM     26   O  BDP B   2      16.444  10.553  13.3880  0.00  0.00     0.000 O
ATOM     28  HD  BDP B   2      15.829   9.964  13.5420  0.00  0.00     0.000 HD
ATOM     28   O  BDP B   2      17.929  11.359  11.1300  0.00  0.00     0.000 O
ATOM     30  HD  BDP B   2      17.313  10.770  11.2840  0.00  0.00     0.000 HD
BRANCH 24 30
ATOM     30   C  BDP B   2      15.669   7.703   8.6840  0.00  0.00     0.000 C
ATOM     31   O  BDP B   2      15.213   8.096   7.5860  0.00  0.00     0.000 OA
ATOM     32   O  BDP B   2      16.140   6.547   8.8880  0.00  0.00     0.000 OA
ENDBRANCH 24 30
BRANCH 20 33
ATOM     33  O3  NAG B   3      15.584   7.927  13.3200  0.00  0.00     0.000 O
BRANCH 33 36
ATOM     34  C1  NAG B   3      12.421   6.594  14.8580  0.00  0.00     0.000 C
ATOM     35  C2  NAG B   3      13.505   7.598  14.5150  0.00  0.00     0.000 C
ATOM     36  C3  NAG B   3      14.474   7.038  13.4630  0.00  0.00     0.000 C
ATOM     37  C4  NAG B   3      14.987   5.676  13.9230  0.00  0.00     0.000 C
ATOM     38  C5  NAG B   3      13.820   4.778  14.3220  0.00  0.00     0.000 C
ATOM     39  O5  NAG B   3      13.046   5.409  15.3290  0.00  0.00     0.000 O
ATOM     40   O  NAG B   3      15.733   5.050  12.8670  0.00  0.00     0.000 O
ATOM     42  HD  NAG B   3      15.172   4.408  13.0200  0.00  0.00     0.000 HD
ATOM     42   C  NAG B   3      14.247   3.439  14.9190  0.00  0.00     0.000 C
ATOM     43   O  NAG B   3      14.917   3.662  16.1660  0.00  0.00     0.000 O
ATOM     45  HD  NAG B   3      14.356   3.020  16.3180  0.00  0.00     0.000 HD
BRANCH 35 47
ATOM     45   N  NAG B   3      13.650   8.914  15.1260  0.00  0.00     0.000 N
ATOM     47  HD  NAG B   3      14.320   8.392  15.2950  0.00  0.00     0.000 HD
ATOM     47   C  NAG B   3      13.268  10.026  14.5310  0.00  0.00     0.000 C
ATOM     48   C  NAG B   3      13.509  11.297  15.2910  0.00  0.00     0.000 C
ATOM     49   O  NAG B   3      12.767  10.026  13.4090  0.00  0.00     0.000 OA
ENDBRANCH 35 47
BRANCH 34 50
ATOM     50  O4  BDP B   4      11.703   7.219  15.9010  0.00  0.00     0.000 O
BRANCH 50 54
ATOM     51  C1  BDP B   4       7.989   7.826  17.4480  0.00  0.00     0.000 C
ATOM     52  C2  BDP B   4       8.618   6.488  17.8200  0.00  0.00     0.000 C
ATOM     53  C3  BDP B   4      10.084   6.546  17.5170  0.00  0.00     0.000 C
ATOM     54  C4  BDP B   4      10.297   6.947  16.0290  0.00  0.00     0.000 C
ATOM     55  C5  BDP B   4       9.492   8.179  15.6400  0.00  0.00     0.000 C
ATOM     56  O5  BDP B   4       8.136   8.040  16.0560  0.00  0.00     0.000 O
ATOM     57   O  BDP B   4       8.434   6.226  19.1950  0.00  0.00     0.000 O
ATOM     59  HD  BDP B   4       7.795   5.643  19.2230  0.00  0.00     0.000 HD
ATOM     59   O  BDP B   4      10.603   5.212  17.6970  0.00  0.00     0.000 O
ATOM     61  HD  BDP B   4       9.963   4.629  17.7250  0.00  0.00     0.000 HD
BRANCH 55 61
ATOM     61   C  BDP B   4       9.537   8.351  14.1320  0.00  0.00     0.000 C
ATOM     62   O  BDP B   4       9.660   9.517  13.6740  0.00  0.00     0.000 OA
ATOM     63   O  BDP B   4       9.450   7.314  13.4070  0.00  0.00     0.000 OA
ENDBRANCH 55 61
BRANCH 51 64
ATOM     64  O3  NAG B   5       6.596   7.759  17.8100  0.00  0.00     0.000 O
BRANCH 64 67
ATOM     65  C1  NAG B   5       4.920  10.821  18.9970  0.00  0.00     0.000 C
ATOM     66  C2  NAG B   5       5.821   9.599  19.0320  0.00  0.00     0.000 C
ATOM     67  C3  NAG B   5       5.930   8.994  17.6380  0.00  0.00     0.000 C
ATOM     68  C4  NAG B   5       4.540   8.745  17.0360  0.00  0.00     0.000 C
ATOM     69  C5  NAG B   5       3.681   9.996  17.1300  0.00  0.00     0.000 C
ATOM     70  O5  NAG B   5       3.655  10.471  18.4840  0.00  0.00     0.000 O
ATOM     71   O  NAG B   5       4.696   8.331  15.6950  0.00  0.00     0.000 O
ATOM     73  HD  NAG B   5       4.074   7.772  15.9220  0.00  0.00     0.000 HD
ATOM     73   C  NAG B   5       2.230   9.804  16.6670  0.00  0.00     0.000 C
ATOM     74   O  NAG B   5       1.566   8.864  17.5370  0.00  0.00     0.000 O
ATOM     76  HD  NAG B   5       0.944   8.305  17.7640  0.00  0.00     0.000 HD
BRANCH 66 78
ATOM     76   N  NAG B   5       7.030  10.142  19.6820  0.00  0.00     0.000 N
ATOM     78  HD  NAG B   5       6.501   9.464  19.7850  0.00  0.00     0.000 HD
ATOM     78   C  NAG B   5       7.785   9.512  20.5950  0.00  0.00     0.000 C
ATOM     79   C  NAG B   5       8.966  10.322  21.0570  0.00  0.00     0.000 C
ATOM     80   O  NAG B   5       7.521   8.338  21.0380  0.00  0.00     0.000 OA
ENDBRANCH 66 78
BRANCH 65 81
ATOM     81  O4  BDP B   6       4.778  11.366  20.3150  0.00  0.00     0.000 O
BRANCH 81 85
ATOM     82  C1  BDP B   6       3.911  15.118  22.1950  0.00  0.00     0.000 C
ATOM     83  C2  BDP B   6       2.731  14.221  21.8330  0.00  0.00     0.000 C
ATOM     84  C3  BDP B   6       3.146  12.774  21.5580  0.00  0.00     0.000 C
ATOM     85  C4  BDP B   6       4.287  12.690  20.5410  0.00  0.00     0.000 C
ATOM     86  C5  BDP B   6       5.401  13.663  20.9950  0.00  0.00     0.000 C
ATOM     87  O5  BDP B   6       4.896  15.025  21.1750  0.00  0.00     0.000 O
ATOM     88   O  BDP B   6       1.863  14.261  22.9630  0.00  0.00     0.000 O
ATOM     90  HD  BDP B   6       1.371  13.737  23.4460  0.00  0.00     0.000 HD
ATOM     90   O  BDP B   6       2.011  12.025  21.1170  0.00  0.00     0.000 O
ATOM     92  HD  BDP B   6       1.519  11.500  21.5990  0.00  0.00     0.000 HD
BRANCH 86 92
ATOM     92   C  BDP B   6       6.449  13.807  19.9180  0.00  0.00     0.000 C
ATOM     93   O  BDP B   6       6.208  14.531  18.9050  0.00  0.00     0.000 OA
ATOM     94   O  BDP B   6       7.553  13.204  20.0900  0.00  0.00     0.000 OA
ENDBRANCH 86 92
BRANCH 82 95
ATOM     95  O3  NAG B   7       3.448  16.482  22.2380  0.00  0.00     0.000 O
BRANCH 95 98
ATOM     96  C1  NAG B   7       3.992  19.688  23.9020  0.00  0.00     0.000 C
ATOM     97  C2  NAG B   7       3.474  18.751  22.8200  0.00  0.00     0.000 C
ATOM     98  C3  NAG B   7       3.987  17.369  23.2180  0.00  0.00     0.000 C
ATOM     99  C4  NAG B   7       5.513  17.376  23.2670  0.00  0.00     0.000 C
ATOM    100  C5  NAG B   7       6.025  18.495  24.1760  0.00  0.00     0.000 C
ATOM    101  O5  NAG B   7       5.419  19.718  23.7860  0.00  0.00     0.000 O
BRANCH 97 104
ATOM    102   N  NAG B   7       2.036  18.485  22.6770  0.00  0.00     0.000 N
ATOM    104  HD  NAG B   7       1.277  18.083  22.5620  0.00  0.00     0.000 HD
ATOM    104   O  NAG B   7      -0.021  18.617  21.7370  0.00  0.00     0.000 OA
ATOM    105   C  NAG B   7       1.170  18.983  21.7730  0.00  0.00     0.000 C
ATOM    106   C  NAG B   7       1.655  19.985  20.7810  0.00  0.00     0.000 C
ENDBRANCH 97 104
ATOM    107   O  NAG B   7       7.952  19.393  25.1670  0.00  0.00     0.000 O
ATOM    109  HD  NAG B   7       7.113  19.213  25.2850  0.00  0.00     0.000 HD
ATOM    109   O  NAG B   7       7.952  19.393  25.1670  0.00  0.00     0.000 O
ATOM    111  HD  NAG B   7       7.113  19.213  25.2850  0.00  0.00     0.000 HD
ENDBRANCH 95 98
ENDBRANCH 82 95
ENDBRANCH 81 85
ENDBRANCH 65 81
ENDBRANCH 64 67
ENDBRANCH 51 64
ENDBRANCH 50 54
ENDBRANCH 34 50
ENDBRANCH 33 36
ENDBRANCH 20 33
ENDBRANCH 19 23
ENDBRANCH 1 19
TORSDOF 19
ENDMDL
MODEL 78
REMARK VINA RESULT:      -5.3      9.878     14.933
ROOT
ATOM      1  C1  NAG B   1      10.568   9.540  11.8160  0.00  0.00     0.000 C
ATOM      2  C2  NAG B   1      10.564   8.034  12.0630  0.00  0.00     0.000 C
ATOM      3  C3  NAG B   1       9.292   7.577  12.7460  0.00  0.00     0.000 C
ATOM      4  C4  NAG B   1       9.215   8.378  14.0420  0.00  0.00     0.000 C
ATOM      5  C5  NAG B   1       9.088   9.869  13.7050  0.00  0.00     0.000 C
ATOM      6  O5  NAG B   1      10.238  10.335  12.9660  0.00  0.00     0.000 O
ATOM      7   O  NAG B   1       9.298   6.157  13.0180  0.00  0.00     0.000 O
ATOM      9  HD  NAG B   1       9.728   6.206  12.2680  0.00  0.00     0.000 HD
ATOM      9   O  NAG B   1       8.096   7.962  14.8070  0.00  0.00     0.000 O
ATOM     11  HD  NAG B   1       8.526   8.011  14.0570  0.00  0.00     0.000 HD
ATOM     11   C  NAG B   1       8.872  10.680  14.9890  0.00  0.00     0.000 C
ATOM     12   O  NAG B   1       9.387  12.004  14.8580  0.00  0.00     0.000 O
ATOM     14  HD  NAG B   1       9.817  12.052  14.1080  0.00  0.00     0.000 HD
ENDROOT
BRANCH 2 16
ATOM     14   N  NAG B   1      10.747   7.212  10.8530  0.00  0.00     0.000 N
ATOM     16  HD  NAG B   1      11.085   7.224  10.0560  0.00  0.00     0.000 HD
ATOM     16   C  NAG B   1      11.897   6.580  10.5610  0.00  0.00     0.000 C
ATOM     17   C  NAG B   1      13.084   6.717  11.4780  0.00  0.00     0.000 C
ATOM     18   O  NAG B   1      11.996   5.861   9.5670  0.00  0.00     0.000 OA
ENDBRANCH 2 16
BRANCH 1 19
ATOM     19  O4  BDP B   2      11.932   9.818  11.5280  0.00  0.00     0.000 O
BRANCH 19 23
ATOM     20  C1  BDP B   2      14.020  12.927   9.8210  0.00  0.00     0.000 C
ATOM     21  C2  BDP B   2      13.357  13.212  11.1530  0.00  0.00     0.000 C
ATOM     22  C3  BDP B   2      12.994  11.932  11.8700  0.00  0.00     0.000 C
ATOM     23  C4  BDP B   2      12.160  11.070  10.9270  0.00  0.00     0.000 C
ATOM     24  C5  BDP B   2      12.927  10.843   9.6390  0.00  0.00     0.000 C
ATOM     25  O5  BDP B   2      13.197  12.088   9.0230  0.00  0.00     0.000 O
ATOM     26   O  BDP B   2      14.208  13.989  11.9680  0.00  0.00     0.000 O
ATOM     28  HD  BDP B   2      14.621  14.047  11.2080  0.00  0.00     0.000 HD
ATOM     28   O  BDP B   2      12.286  12.250  13.0780  0.00  0.00     0.000 O
ATOM     30  HD  BDP B   2      12.699  12.308  12.3190  0.00  0.00     0.000 HD
BRANCH 24 30
ATOM     30   C  BDP B   2      12.164  10.017   8.6670  0.00  0.00     0.000 C
ATOM     31   O  BDP B   2      12.739   9.011   8.1920  0.00  0.00     0.000 OA
ATOM     32   O  BDP B   2      10.988  10.373   8.3690  0.00  0.00     0.000 OA
ENDBRANCH 24 30
BRANCH 20 33
ATOM     33  O3  NAG B   3      14.119  14.192   9.2130  0.00  0.00     0.000 O
BRANCH 33 36
ATOM     34  C1  NAG B   3      16.980  14.927   6.8840  0.00  0.00     0.000 C
ATOM     35  C2  NAG B   3      16.240  14.772   8.1990  0.00  0.00     0.000 C
ATOM     36  C3  NAG B   3      14.858  14.134   7.9900  0.00  0.00     0.000 C
ATOM     37  C4  NAG B   3      14.099  14.911   6.9170  0.00  0.00     0.000 C
ATOM     38  C5  NAG B   3      14.967  15.081   5.6730  0.00  0.00     0.000 C
ATOM     39  O5  NAG B   3      16.184  15.722   6.0170  0.00  0.00     0.000 O
ATOM     40   O  NAG B   3      12.893  14.215   6.5660  0.00  0.00     0.000 O
ATOM     42  HD  NAG B   3      13.229  14.289   5.7710  0.00  0.00     0.000 HD
ATOM     42   C  NAG B   3      14.337  15.960   4.5960  0.00  0.00     0.000 C
ATOM     43   O  NAG B   3      14.214  17.302   5.0830  0.00  0.00     0.000 O
ATOM     45  HD  NAG B   3      14.550  17.376   4.2880  0.00  0.00     0.000 HD
BRANCH 35 47
ATOM     45   N  NAG B   3      16.741  15.205   9.4970  0.00  0.00     0.000 N
ATOM     47  HD  NAG B   3      16.029  15.634   9.2550  0.00  0.00     0.000 HD
ATOM     47   C  NAG B   3      17.256  14.374  10.3810  0.00  0.00     0.000 C
ATOM     48   C  NAG B   3      17.707  14.981  11.6760  0.00  0.00     0.000 C
ATOM     49   O  NAG B   3      17.337  13.166  10.1680  0.00  0.00     0.000 OA
ENDBRANCH 35 47
BRANCH 34 50
ATOM     50  O4  BDP B   4      18.157  15.620   7.2440  0.00  0.00     0.000 O
BRANCH 50 54
ATOM     51  C1  BDP B   4      22.082  16.169   6.3240  0.00  0.00     0.000 C
ATOM     52  C2  BDP B   4      21.121  16.416   5.1660  0.00  0.00     0.000 C
ATOM     53  C3  BDP B   4      19.734  16.550   5.7150  0.00  0.00     0.000 C
ATOM     54  C4  BDP B   4      19.382  15.295   6.5660  0.00  0.00     0.000 C
ATOM     55  C5  BDP B   4      20.467  14.962   7.5810  0.00  0.00     0.000 C
ATOM     56  O5  BDP B   4      21.747  14.948   6.9570  0.00  0.00     0.000 O
ATOM     57   O  BDP B   4      21.470  17.601   4.4840  0.00  0.00     0.000 O
ATOM     59  HD  BDP B   4      21.865  17.330   3.7620  0.00  0.00     0.000 HD
ATOM     59   O  BDP B   4      18.837  16.587   4.5860  0.00  0.00     0.000 O
ATOM     61  HD  BDP B   4      19.232  16.315   3.8640  0.00  0.00     0.000 HD
BRANCH 55 61
ATOM     61   C  BDP B   4      20.188  13.595   8.1800  0.00  0.00     0.000 C
ATOM     62   O  BDP B   4      20.516  13.397   9.3800  0.00  0.00     0.000 OA
ATOM     63   O  BDP B   4      19.637  12.718   7.4470  0.00  0.00     0.000 OA
ENDBRANCH 55 61
BRANCH 51 64
ATOM     64  O3  NAG B   5      23.411  16.110   5.7700  0.00  0.00     0.000 O
BRANCH 64 67
ATOM     65  C1  NAG B   5      26.333  17.486   7.5490  0.00  0.00     0.000 C
ATOM     66  C2  NAG B   5      25.088  17.467   6.6780  0.00  0.00     0.000 C
ATOM     67  C3  NAG B   5      24.415  16.103   6.7660  0.00  0.00     0.000 C
ATOM     68  C4  NAG B   5      25.415  14.975   6.4750  0.00  0.00     0.000 C
ATOM     69  C5  NAG B   5      26.665  15.132   7.3270  0.00  0.00     0.000 C
ATOM     70  O5  NAG B   5      27.207  16.450   7.1620  0.00  0.00     0.000 O
ATOM     71   O  NAG B   5      24.782  13.737   6.7180  0.00  0.00     0.000 O
ATOM     73  HD  NAG B   5      25.193  13.521   5.9870  0.00  0.00     0.000 HD
ATOM     73   C  NAG B   5      27.775  14.120   7.0130  0.00  0.00     0.000 C
ATOM     74   O  NAG B   5      28.249  14.325   5.6650  0.00  0.00     0.000 O
ATOM     76  HD  NAG B   5      28.659  14.109   4.9340  0.00  0.00     0.000 HD
BRANCH 66 78
ATOM     76   N  NAG B   5      24.356  18.652   7.1640  0.00  0.00     0.000 N
ATOM     78  HD  NAG B   5      24.626  18.338   6.4040  0.00  0.00     0.000 HD
ATOM     78   C  NAG B   5      23.697  19.540   6.4030  0.00  0.00     0.000 C
ATOM     79   C  NAG B   5      23.033  20.632   7.1950  0.00  0.00     0.000 C
ATOM     80   O  NAG B   5      23.647  19.468   5.1230  0.00  0.00     0.000 OA
ENDBRANCH 66 78
BRANCH 65 81
ATOM     81  O4  BDP B   6      26.996  18.752   7.4330  0.00  0.00     0.000 O
BRANCH 81 85
ATOM     82  C1  BDP B   6      29.785  21.179   9.5990  0.00  0.00     0.000 C
ATOM     83  C2  BDP B   6      30.353  20.103   8.6770  0.00  0.00     0.000 C
ATOM     84  C3  BDP B   6      29.328  19.585   7.6650  0.00  0.00     0.000 C
ATOM     85  C4  BDP B   6      28.023  19.157   8.3400  0.00  0.00     0.000 C
ATOM     86  C5  BDP B   6      27.569  20.308   9.2700  0.00  0.00     0.000 C
ATOM     87  O5  BDP B   6      28.612  20.681  10.2260  0.00  0.00     0.000 O
ATOM     88   O  BDP B   6      31.432  20.726   7.9860  0.00  0.00     0.000 O
ATOM     90  HD  BDP B   6      31.779  20.773   7.1930  0.00  0.00     0.000 HD
ATOM     90   O  BDP B   6      29.895  18.507   6.9170  0.00  0.00     0.000 O
ATOM     92  HD  BDP B   6      30.241  18.553   6.1250  0.00  0.00     0.000 HD
BRANCH 86 92
ATOM     92   C  BDP B   6      26.422  19.862  10.1440  0.00  0.00     0.000 C
ATOM     93   O  BDP B   6      25.235  20.171   9.8210  0.00  0.00     0.000 OA
ATOM     94   O  BDP B   6      26.702  19.167  11.1690  0.00  0.00     0.000 OA
ENDBRANCH 86 92
BRANCH 82 95
ATOM     95  O3  NAG B   7      30.756  21.452  10.6290  0.00  0.00     0.000 O
BRANCH 95 98
ATOM     96  C1  NAG B   7      32.480  24.392  11.9410  0.00  0.00     0.000 C
ATOM     97  C2  NAG B   7      32.351  22.956  11.4510  0.00  0.00     0.000 C
ATOM     98  C3  NAG B   7      30.865  22.777  11.1470  0.00  0.00     0.000 C
ATOM     99  C4  NAG B   7      30.044  23.011  12.4130  0.00  0.00     0.000 C
ATOM    100  C5  NAG B   7      30.373  24.370  13.0330  0.00  0.00     0.000 C
ATOM    101  O5  NAG B   7      31.780  24.477  13.1870  0.00  0.00     0.000 O
BRANCH 97 104
ATOM    102   N  NAG B   7      33.013  22.610  10.1860  0.00  0.00     0.000 N
ATOM    104  HD  NAG B   7      33.157  22.336   9.3770  0.00  0.00     0.000 HD
ATOM    104   O  NAG B   7      34.439  21.501   8.8190  0.00  0.00     0.000 OA
ATOM    105   C  NAG B   7      34.015  21.737   9.9670  0.00  0.00     0.000 C
ATOM    106   C  NAG B   7      34.621  21.025  11.1280  0.00  0.00     0.000 C
ENDBRANCH 97 104
ATOM    107   O  NAG B   7      29.751  25.882  14.7150  0.00  0.00     0.000 O
ATOM    109  HD  NAG B   7      30.018  25.806  13.8950  0.00  0.00     0.000 HD
ATOM    109   O  NAG B   7      29.751  25.882  14.7150  0.00  0.00     0.000 O
ATOM    111  HD  NAG B   7      30.018  25.806  13.8950  0.00  0.00     0.000 HD
ENDBRANCH 95 98
ENDBRANCH 82 95
ENDBRANCH 81 85
ENDBRANCH 65 81
ENDBRANCH 64 67
ENDBRANCH 51 64
ENDBRANCH 50 54
ENDBRANCH 34 50
ENDBRANCH 33 36
ENDBRANCH 20 33
ENDBRANCH 19 23
ENDBRANCH 1 19
TORSDOF 19
ENDMDL
MODEL 79
REMARK VINA RESULT:      -5.3      4.246     18.151
ROOT
ATOM      1  C1  NAG B   1      13.325  16.393   6.8890  0.00  0.00     0.000 C
ATOM      2  C2  NAG B   1      13.244  17.841   7.3650  0.00  0.00     0.000 C
ATOM      3  C3  NAG B   1      14.149  18.751   6.5590  0.00  0.00     0.000 C
ATOM      4  C4  NAG B   1      15.550  18.168   6.7060  0.00  0.00     0.000 C
ATOM      5  C5  NAG B   1      15.579  16.765   6.0860  0.00  0.00     0.000 C
ATOM      6  O5  NAG B   1      14.660  15.879   6.7590  0.00  0.00     0.000 O
ATOM      7   O  NAG B   1      14.107  20.118   7.0300  0.00  0.00     0.000 O
ATOM      9  HD  NAG B   1      13.293  19.851   7.1580  0.00  0.00     0.000 HD
ATOM      9   O  NAG B   1      16.496  19.000   6.0560  0.00  0.00     0.000 O
ATOM     11  HD  NAG B   1      15.682  18.734   6.1840  0.00  0.00     0.000 HD
ATOM     11   C  NAG B   1      17.011  16.216   6.1000  0.00  0.00     0.000 C
ATOM     12   O  NAG B   1      17.018  14.791   6.1740  0.00  0.00     0.000 O
ATOM     14  HD  NAG B   1      16.204  14.524   6.3020  0.00  0.00     0.000 HD
ENDROOT
BRANCH 2 16
ATOM     14   N  NAG B   1      12.496  18.461   8.4720  0.00  0.00     0.000 N
ATOM     16  HD  NAG B   1      12.122  19.201   8.7230  0.00  0.00     0.000 HD
ATOM     16   C  NAG B   1      11.161  18.619   8.4600  0.00  0.00     0.000 C
ATOM     17   C  NAG B   1      10.363  18.177   7.2620  0.00  0.00     0.000 C
ATOM     18   O  NAG B   1      10.565  19.097   9.4250  0.00  0.00     0.000 OA
ENDBRANCH 2 16
BRANCH 1 19
ATOM     19  O4  BDP B   2      12.728  15.668   7.9550  0.00  0.00     0.000 O
BRANCH 19 23
ATOM     20  C1  BDP B   2      13.808  12.430  10.2560  0.00  0.00     0.000 C
ATOM     21  C2  BDP B   2      14.380  13.771  10.6690  0.00  0.00     0.000 C
ATOM     22  C3  BDP B   2      13.609  14.912  10.0450  0.00  0.00     0.000 C
ATOM     23  C4  BDP B   2      13.558  14.691   8.5350  0.00  0.00     0.000 C
ATOM     24  C5  BDP B   2      12.959  13.329   8.2450  0.00  0.00     0.000 C
ATOM     25  O5  BDP B   2      13.758  12.323   8.8400  0.00  0.00     0.000 O
ATOM     26   O  BDP B   2      14.363  13.898  12.0750  0.00  0.00     0.000 O
ATOM     28  HD  BDP B   2      14.181  13.056  11.9910  0.00  0.00     0.000 HD
ATOM     28   O  BDP B   2      14.243  16.154  10.3870  0.00  0.00     0.000 O
ATOM     30  HD  BDP B   2      14.061  15.312  10.3030  0.00  0.00     0.000 HD
BRANCH 24 30
ATOM     30   C  BDP B   2      12.891  13.044   6.7880  0.00  0.00     0.000 C
ATOM     31   O  BDP B   2      11.804  13.272   6.2090  0.00  0.00     0.000 OA
ATOM     32   O  BDP B   2      13.920  12.584   6.2160  0.00  0.00     0.000 OA
ENDBRANCH 24 30
BRANCH 20 33
ATOM     33  O3  NAG B   3      14.733  11.496  10.7580  0.00  0.00     0.000 O
BRANCH 33 36
ATOM     34  C1  NAG B   3      13.805   7.993  11.7680  0.00  0.00     0.000 C
ATOM     35  C2  NAG B   3      14.071   9.479  11.9220  0.00  0.00     0.000 C
ATOM     36  C3  NAG B   3      14.288  10.152  10.5580  0.00  0.00     0.000 C
ATOM     37  C4  NAG B   3      15.358   9.388   9.7810  0.00  0.00     0.000 C
ATOM     38  C5  NAG B   3      15.034   7.897   9.7620  0.00  0.00     0.000 C
ATOM     39  O5  NAG B   3      14.909   7.413  11.0880  0.00  0.00     0.000 O
ATOM     40   O  NAG B   3      15.430   9.879   8.4340  0.00  0.00     0.000 O
ATOM     42  HD  NAG B   3      15.314   9.040   8.2530  0.00  0.00     0.000 HD
ATOM     42   C  NAG B   3      16.119   7.038   9.1180  0.00  0.00     0.000 C
ATOM     43   O  NAG B   3      17.310   7.094   9.9130  0.00  0.00     0.000 O
ATOM     45  HD  NAG B   3      17.194   6.255   9.7320  0.00  0.00     0.000 HD
BRANCH 35 47
ATOM     45   N  NAG B   3      12.997   9.977  12.7710  0.00  0.00     0.000 N
ATOM     47  HD  NAG B   3      12.948   9.123  12.6380  0.00  0.00     0.000 HD
ATOM     47   C  NAG B   3      13.174  10.924  13.6700  0.00  0.00     0.000 C
ATOM     48   C  NAG B   3      11.967  11.306  14.4750  0.00  0.00     0.000 C
ATOM     49   O  NAG B   3      14.271  11.446  13.8590  0.00  0.00     0.000 OA
ENDBRANCH 35 47
BRANCH 34 50
ATOM     50  O4  BDP B   4      13.744   7.525  13.0980  0.00  0.00     0.000 O
BRANCH 50 54
ATOM     51  C1  BDP B   4      12.410   4.509  15.4810  0.00  0.00     0.000 C
ATOM     52  C2  BDP B   4      13.705   4.201  14.7360  0.00  0.00     0.000 C
ATOM     53  C3  BDP B   4      14.273   5.483  14.2120  0.00  0.00     0.000 C
ATOM     54  C4  BDP B   4      13.209   6.214  13.3440  0.00  0.00     0.000 C
ATOM     55  C5  BDP B   4      11.864   6.326  14.0490  0.00  0.00     0.000 C
ATOM     56  O5  BDP B   4      11.471   5.062  14.5770  0.00  0.00     0.000 O
ATOM     57   O  BDP B   4      14.638   3.596  15.6060  0.00  0.00     0.000 O
ATOM     59  HD  BDP B   4      14.618   2.756  15.3970  0.00  0.00     0.000 HD
ATOM     59   O  BDP B   4      15.381   5.133  13.3570  0.00  0.00     0.000 O
ATOM     61  HD  BDP B   4      15.361   4.293  13.1480  0.00  0.00     0.000 HD
BRANCH 55 61
ATOM     61   C  BDP B   4      10.816   6.800  13.0580  0.00  0.00     0.000 C
ATOM     62   O  BDP B   4      10.435   5.993  12.1700  0.00  0.00     0.000 OA
ATOM     63   O  BDP B   4      10.374   7.984  13.1710  0.00  0.00     0.000 OA
ENDBRANCH 55 61
BRANCH 51 64
ATOM     64  O3  NAG B   5      11.925   3.267  16.0260  0.00  0.00     0.000 O
BRANCH 64 67
ATOM     65  C1  NAG B   5       9.970   3.295  19.1520  0.00  0.00     0.000 C
ATOM     66  C2  NAG B   5      11.187   3.358  18.2450  0.00  0.00     0.000 C
ATOM     67  C3  NAG B   5      10.746   3.431  16.7890  0.00  0.00     0.000 C
ATOM     68  C4  NAG B   5       9.760   2.304  16.4550  0.00  0.00     0.000 C
ATOM     69  C5  NAG B   5       8.627   2.262  17.4690  0.00  0.00     0.000 C
ATOM     70  O5  NAG B   5       9.164   2.195  18.7980  0.00  0.00     0.000 O
ATOM     71   O  NAG B   5       9.268   2.507  15.1470  0.00  0.00     0.000 O
ATOM     73  HD  NAG B   5       9.385   1.650  15.1010  0.00  0.00     0.000 HD
ATOM     73   C  NAG B   5       7.660   1.084  17.2880  0.00  0.00     0.000 C
ATOM     74   O  NAG B   5       8.362  -0.157  17.5050  0.00  0.00     0.000 O
ATOM     76  HD  NAG B   5       8.479  -1.014  17.4580  0.00  0.00     0.000 HD
BRANCH 66 78
ATOM     76   N  NAG B   5      11.931   4.467  18.8740  0.00  0.00     0.000 N
ATOM     78  HD  NAG B   5      12.101   3.667  18.5870  0.00  0.00     0.000 HD
ATOM     78   C  NAG B   5      13.266   4.556  18.9900  0.00  0.00     0.000 C
ATOM     79   C  NAG B   5      13.726   5.820  19.6640  0.00  0.00     0.000 C
ATOM     80   O  NAG B   5      14.070   3.647  18.5750  0.00  0.00     0.000 OA
ENDBRANCH 66 78
BRANCH 65 81
ATOM     81  O4  BDP B   6      10.380   3.180  20.5200  0.00  0.00     0.000 O
BRANCH 81 85
ATOM     82  C1  BDP B   6       8.744   3.402  24.4750  0.00  0.00     0.000 C
ATOM     83  C2  BDP B   6       8.459   2.141  23.6630  0.00  0.00     0.000 C
ATOM     84  C3  BDP B   6       9.400   1.979  22.4660  0.00  0.00     0.000 C
ATOM     85  C4  BDP B   6       9.447   3.241  21.6020  0.00  0.00     0.000 C
ATOM     86  C5  BDP B   6       9.705   4.448  22.5350  0.00  0.00     0.000 C
ATOM     87  O5  BDP B   6       8.714   4.528  23.6090  0.00  0.00     0.000 O
ATOM     88   O  BDP B   6       8.649   1.056  24.5680  0.00  0.00     0.000 O
ATOM     90  HD  BDP B   6       8.998   0.264  24.5960  0.00  0.00     0.000 HD
ATOM     90   O  BDP B   6       9.001   0.844  21.6930  0.00  0.00     0.000 O
ATOM     92  HD  BDP B   6       9.350   0.052  21.7220  0.00  0.00     0.000 HD
BRANCH 86 92
ATOM     92   C  BDP B   6       9.528   5.746  21.7850  0.00  0.00     0.000 C
ATOM     93   O  BDP B   6      10.465   6.601  21.7880  0.00  0.00     0.000 OA
ATOM     94   O  BDP B   6       8.438   5.915  21.1550  0.00  0.00     0.000 OA
ENDBRANCH 86 92
BRANCH 82 95
ATOM     95  O3  NAG B   7       7.692   3.563  25.4470  0.00  0.00     0.000 O
BRANCH 95 98
ATOM     96  C1  NAG B   7       7.407   3.709  29.0850  0.00  0.00     0.000 C
ATOM     97  C2  NAG B   7       7.012   3.300  27.6720  0.00  0.00     0.000 C
ATOM     98  C3  NAG B   7       8.024   3.997  26.7650  0.00  0.00     0.000 C
ATOM     99  C4  NAG B   7       7.936   5.509  26.9540  0.00  0.00     0.000 C
ATOM    100  C5  NAG B   7       8.090   5.885  28.4290  0.00  0.00     0.000 C
ATOM    101  O5  NAG B   7       7.175   5.118  29.1970  0.00  0.00     0.000 O
BRANCH 97 104
ATOM    102   N  NAG B   7       7.146   1.888  27.2890  0.00  0.00     0.000 N
ATOM    104  HD  NAG B   7       7.360   1.164  26.8650  0.00  0.00     0.000 HD
ATOM    104   O  NAG B   7       6.448  -0.164  26.6320  0.00  0.00     0.000 OA
ATOM    105   C  NAG B   7       6.179   0.995  27.0030  0.00  0.00     0.000 C
ATOM    106   C  NAG B   7       4.752   1.411  27.1190  0.00  0.00     0.000 C
ENDBRANCH 97 104
ATOM    107   O  NAG B   7       8.311   7.693  29.9070  0.00  0.00     0.000 O
ATOM    109  HD  NAG B   7       8.574   6.887  29.7290  0.00  0.00     0.000 HD
ATOM    109   O  NAG B   7       8.311   7.693  29.9070  0.00  0.00     0.000 O
ATOM    111  HD  NAG B   7       8.574   6.887  29.7290  0.00  0.00     0.000 HD
ENDBRANCH 95 98
ENDBRANCH 82 95
ENDBRANCH 81 85
ENDBRANCH 65 81
ENDBRANCH 64 67
ENDBRANCH 51 64
ENDBRANCH 50 54
ENDBRANCH 34 50
ENDBRANCH 33 36
ENDBRANCH 20 33
ENDBRANCH 19 23
ENDBRANCH 1 19
TORSDOF 19
ENDMDL
MODEL 80
REMARK VINA RESULT:      -5.3      3.207      5.332
ROOT
ATOM      1  C1  NAG B   1       7.664   7.170  20.7690  0.00  0.00     0.000 C
ATOM      2  C2  NAG B   1       6.654   6.774  21.8430  0.00  0.00     0.000 C
ATOM      3  C3  NAG B   1       6.754   7.661  23.0670  0.00  0.00     0.000 C
ATOM      4  C4  NAG B   1       8.196   7.531  23.5480  0.00  0.00     0.000 C
ATOM      5  C5  NAG B   1       9.139   8.071  22.4650  0.00  0.00     0.000 C
ATOM      6  O5  NAG B   1       9.012   7.317  21.2410  0.00  0.00     0.000 O
ATOM      7   O  NAG B   1       5.827   7.267  24.1040  0.00  0.00     0.000 O
ATOM      9  HD  NAG B   1       5.383   7.096  23.3810  0.00  0.00     0.000 HD
ATOM      9   O  NAG B   1       8.377   8.260  24.7500  0.00  0.00     0.000 O
ATOM     11  HD  NAG B   1       7.932   8.088  24.0270  0.00  0.00     0.000 HD
ATOM     11   C  NAG B   1      10.582   8.076  22.9830  0.00  0.00     0.000 C
ATOM     12   O  NAG B   1      11.516   7.922  21.9150  0.00  0.00     0.000 O
ATOM     14  HD  NAG B   1      11.071   7.751  21.1920  0.00  0.00     0.000 HD
ENDROOT
BRANCH 2 16
ATOM     14   N  NAG B   1       5.852   5.587  21.4950  0.00  0.00     0.000 N
ATOM     16  HD  NAG B   1       5.267   5.033  21.8120  0.00  0.00     0.000 HD
ATOM     16   C  NAG B   1       4.556   5.652  21.1470  0.00  0.00     0.000 C
ATOM     17   C  NAG B   1       3.848   6.982  21.1290  0.00  0.00     0.000 C
ATOM     18   O  NAG B   1       3.932   4.645  20.8150  0.00  0.00     0.000 OA
ENDBRANCH 2 16
BRANCH 1 19
ATOM     19  O4  BDP B   2       7.673   6.044  19.9020  0.00  0.00     0.000 O
BRANCH 19 23
ATOM     20  C1  BDP B   2       8.975   7.831  16.4310  0.00  0.00     0.000 C
ATOM     21  C2  BDP B   2       7.578   8.194  16.8920  0.00  0.00     0.000 C
ATOM     22  C3  BDP B   2       7.369   7.832  18.3450  0.00  0.00     0.000 C
ATOM     23  C4  BDP B   2       7.728   6.360  18.5320  0.00  0.00     0.000 C
ATOM     24  C5  BDP B   2       9.145   6.122  18.0490  0.00  0.00     0.000 C
ATOM     25  O5  BDP B   2       9.242   6.458  16.6780  0.00  0.00     0.000 O
ATOM     26   O  BDP B   2       7.344   9.573  16.7070  0.00  0.00     0.000 O
ATOM     28  HD  BDP B   2       8.080   9.477  16.2600  0.00  0.00     0.000 HD
ATOM     28   O  BDP B   2       6.008   8.106  18.7100  0.00  0.00     0.000 O
ATOM     30  HD  BDP B   2       6.743   8.009  18.2630  0.00  0.00     0.000 HD
BRANCH 24 30
ATOM     30   C  BDP B   2       9.556   4.700  18.1930  0.00  0.00     0.000 C
ATOM     31   O  BDP B   2       8.957   3.855  17.4890  0.00  0.00     0.000 OA
ATOM     32   O  BDP B   2      10.474   4.420  19.0160  0.00  0.00     0.000 OA
ENDBRANCH 24 30
BRANCH 20 33
ATOM     33  O3  NAG B   3       8.943   8.053  15.0420  0.00  0.00     0.000 O
BRANCH 33 36
ATOM     34  C1  NAG B   3      11.824   9.441  13.0600  0.00  0.00     0.000 C
ATOM     35  C2  NAG B   3      10.531   9.442  13.8550  0.00  0.00     0.000 C
ATOM     36  C3  NAG B   3      10.257   8.065  14.4780  0.00  0.00     0.000 C
ATOM     37  C4  NAG B   3      10.338   6.994  13.3930  0.00  0.00     0.000 C
ATOM     38  C5  NAG B   3      11.636   7.139  12.6030  0.00  0.00     0.000 C
ATOM     39  O5  NAG B   3      11.725   8.443  12.0550  0.00  0.00     0.000 O
ATOM     40   O  NAG B   3      10.284   5.688  13.9880  0.00  0.00     0.000 O
ATOM     42  HD  NAG B   3      11.017   5.588  13.5370  0.00  0.00     0.000 HD
ATOM     42   C  NAG B   3      11.743   6.190  11.4130  0.00  0.00     0.000 C
ATOM     43   O  NAG B   3      10.743   6.523  10.4430  0.00  0.00     0.000 O
ATOM     45  HD  NAG B   3      11.475   6.423   9.9920  0.00  0.00     0.000 HD
BRANCH 35 47
ATOM     45   N  NAG B   3      10.598  10.524  14.8290  0.00  0.00     0.000 N
ATOM     47  HD  NAG B   3      11.342  10.416  14.4000  0.00  0.00     0.000 HD
ATOM     47   C  NAG B   3       9.591  11.342  15.0620  0.00  0.00     0.000 C
ATOM     48   C  NAG B   3       9.833  12.414  16.0830  0.00  0.00     0.000 C
ATOM     49   O  NAG B   3       8.524  11.251  14.4590  0.00  0.00     0.000 OA
ENDBRANCH 35 47
BRANCH 34 50
ATOM     50  O4  BDP B   4      11.858  10.726  12.4770  0.00  0.00     0.000 O
BRANCH 50 54
ATOM     51  C1  BDP B   4      14.309  13.623  11.0100  0.00  0.00     0.000 C
ATOM     52  C2  BDP B   4      14.509  12.249  10.3810  0.00  0.00     0.000 C
ATOM     53  C3  BDP B   4      13.330  11.390  10.7210  0.00  0.00     0.000 C
ATOM     54  C4  BDP B   4      13.135  11.352  12.2640  0.00  0.00     0.000 C
ATOM     55  C5  BDP B   4      13.141  12.743  12.8830  0.00  0.00     0.000 C
ATOM     56  O5  BDP B   4      14.261  13.491  12.4190  0.00  0.00     0.000 O
ATOM     57   O  BDP B   4      14.616  12.363   8.9780  0.00  0.00     0.000 O
ATOM     59  HD  BDP B   4      15.463  12.277   8.8160  0.00  0.00     0.000 HD
ATOM     59   O  BDP B   4      13.642  10.053  10.2790  0.00  0.00     0.000 O
ATOM     61  HD  BDP B   4      14.489   9.967  10.1170  0.00  0.00     0.000 HD
BRANCH 55 61
ATOM     61   C  BDP B   4      13.215  12.618  14.3940  0.00  0.00     0.000 C
ATOM     62   O  BDP B   4      13.648  11.539  14.8780  0.00  0.00     0.000 OA
ATOM     63   O  BDP B   4      12.841  13.606  15.0980  0.00  0.00     0.000 OA
ENDBRANCH 55 61
BRANCH 51 64
ATOM     64  O3  NAG B   5      15.426  14.442  10.6120  0.00  0.00     0.000 O
BRANCH 64 67
ATOM     65  C1  NAG B   5      14.783  17.932   9.6130  0.00  0.00     0.000 C
ATOM     66  C2  NAG B   5      14.819  16.417   9.5130  0.00  0.00     0.000 C
ATOM     67  C3  NAG B   5      15.208  15.817  10.8580  0.00  0.00     0.000 C
ATOM     68  C4  NAG B   5      16.500  16.452  11.3900  0.00  0.00     0.000 C
ATOM     69  C5  NAG B   5      16.403  17.969  11.3660  0.00  0.00     0.000 C
ATOM     70  O5  NAG B   5      16.031  18.414  10.0540  0.00  0.00     0.000 O
ATOM     71   O  NAG B   5      16.732  15.975  12.6990  0.00  0.00     0.000 O
ATOM     73  HD  NAG B   5      17.546  15.927  12.4070  0.00  0.00     0.000 HD
ATOM     73   C  NAG B   5      17.698  18.692  11.7630  0.00  0.00     0.000 C
ATOM     74   O  NAG B   5      18.731  18.397  10.8000  0.00  0.00     0.000 O
ATOM     76  HD  NAG B   5      19.545  18.350  10.5080  0.00  0.00     0.000 HD
BRANCH 66 78
ATOM     76   N  NAG B   5      14.417  15.726   8.2720  0.00  0.00     0.000 N
ATOM     78  HD  NAG B   5      14.097  15.843   9.0680  0.00  0.00     0.000 HD
ATOM     78   C  NAG B   5      13.207  15.204   8.0150  0.00  0.00     0.000 C
ATOM     79   C  NAG B   5      13.101  14.579   6.6500  0.00  0.00     0.000 C
ATOM     80   O  NAG B   5      12.239  15.227   8.8560  0.00  0.00     0.000 OA
ENDBRANCH 66 78
BRANCH 65 81
ATOM     81  O4  BDP B   6      14.462  18.503   8.3380  0.00  0.00     0.000 O
BRANCH 81 85
ATOM     82  C1  BDP B   6      12.317  21.806   6.6490  0.00  0.00     0.000 C
ATOM     83  C2  BDP B   6      13.611  22.114   7.3970  0.00  0.00     0.000 C
ATOM     84  C3  BDP B   6      14.491  20.877   7.5970  0.00  0.00     0.000 C
ATOM     85  C4  BDP B   6      13.712  19.714   8.2140  0.00  0.00     0.000 C
ATOM     86  C5  BDP B   6      12.414  19.523   7.3950  0.00  0.00     0.000 C
ATOM     87  O5  BDP B   6      11.631  20.758   7.3180  0.00  0.00     0.000 O
ATOM     88   O  BDP B   6      14.300  23.064   6.5890  0.00  0.00     0.000 O
ATOM     90  HD  BDP B   6      15.098  23.246   6.3070  0.00  0.00     0.000 HD
ATOM     90   O  BDP B   6      15.623  21.219   8.4000  0.00  0.00     0.000 O
ATOM     92  HD  BDP B   6      16.422  21.401   8.1170  0.00  0.00     0.000 HD
BRANCH 86 92
ATOM     92   C  BDP B   6      11.488  18.553   8.0880  0.00  0.00     0.000 C
ATOM     93   O  BDP B   6      11.364  18.601   9.3490  0.00  0.00     0.000 OA
ATOM     94   O  BDP B   6      10.846  17.733   7.3600  0.00  0.00     0.000 OA
ENDBRANCH 86 92
BRANCH 82 95
ATOM     95  O3  NAG B   7      11.480  22.978   6.6880  0.00  0.00     0.000 O
BRANCH 95 98
ATOM     96  C1  NAG B   7       9.859  25.322   4.4030  0.00  0.00     0.000 C
ATOM     97  C2  NAG B   7      10.532  24.875   5.6940  0.00  0.00     0.000 C
ATOM     98  C3  NAG B   7      10.793  23.382   5.5050  0.00  0.00     0.000 C
ATOM     99  C4  NAG B   7       9.473  22.649   5.2800  0.00  0.00     0.000 C
ATOM    100  C5  NAG B   7       8.690  23.275   4.1250  0.00  0.00     0.000 C
ATOM    101  O5  NAG B   7       8.583  24.673   4.3470  0.00  0.00     0.000 O
BRANCH 97 104
ATOM    102   N  NAG B   7      11.875  25.282   6.1300  0.00  0.00     0.000 N
ATOM    104  HD  NAG B   7      12.652  25.290   6.5110  0.00  0.00     0.000 HD
ATOM    104   O  NAG B   7      13.424  26.559   7.1770  0.00  0.00     0.000 OA
ATOM    105   C  NAG B   7      12.243  26.375   6.8250  0.00  0.00     0.000 C
ATOM    106   C  NAG B   7      11.207  27.381   7.1940  0.00  0.00     0.000 C
ENDBRANCH 97 104
ATOM    107   O  NAG B   7       6.793  23.021   2.7680  0.00  0.00     0.000 O
ATOM    109  HD  NAG B   7       7.627  23.255   2.7840  0.00  0.00     0.000 HD
ATOM    109   O  NAG B   7       6.793  23.021   2.7680  0.00  0.00     0.000 O
ATOM    111  HD  NAG B   7       7.627  23.255   2.7840  0.00  0.00     0.000 HD
ENDBRANCH 95 98
ENDBRANCH 82 95
ENDBRANCH 81 85
ENDBRANCH 65 81
ENDBRANCH 64 67
ENDBRANCH 51 64
ENDBRANCH 50 54
ENDBRANCH 34 50
ENDBRANCH 33 36
ENDBRANCH 20 33
ENDBRANCH 19 23
ENDBRANCH 1 19
TORSDOF 19
ENDMDL
MODEL 81
REMARK VINA RESULT:      -5.3      9.400     14.242
ROOT
ATOM      1  C1  NAG B   1      10.577   9.517  11.7480  0.00  0.00     0.000 C
ATOM      2  C2  NAG B   1      10.604   8.009  11.9790  0.00  0.00     0.000 C
ATOM      3  C3  NAG B   1       9.360   7.526  12.6960  0.00  0.00     0.000 C
ATOM      4  C4  NAG B   1       9.310   8.314  14.0020  0.00  0.00     0.000 C
ATOM      5  C5  NAG B   1       9.150   9.806  13.6830  0.00  0.00     0.000 C
ATOM      6  O5  NAG B   1      10.269  10.297  12.9140  0.00  0.00     0.000 O
ATOM      7   O  NAG B   1       9.397   6.104  12.9540  0.00  0.00     0.000 O
ATOM      9  HD  NAG B   1       9.803   6.166  12.1920  0.00  0.00     0.000 HD
ATOM      9   O  NAG B   1       8.221   7.873  14.7960  0.00  0.00     0.000 O
ATOM     11  HD  NAG B   1       8.627   7.935  14.0330  0.00  0.00     0.000 HD
ATOM     11   C  NAG B   1       8.959  10.601  14.9800  0.00  0.00     0.000 C
ATOM     12   O  NAG B   1       9.450  11.934  14.8470  0.00  0.00     0.000 O
ATOM     14  HD  NAG B   1       9.856  11.996  14.0850  0.00  0.00     0.000 HD
ENDROOT
BRANCH 2 16
ATOM     14   N  NAG B   1      10.736   7.098  10.8290  0.00  0.00     0.000 N
ATOM     16  HD  NAG B   1      10.958   7.071   9.9920  0.00  0.00     0.000 HD
ATOM     16   C  NAG B   1      11.913   6.590  10.4250  0.00  0.00     0.000 C
ATOM     17   C  NAG B   1      13.182   6.970  11.1420  0.00  0.00     0.000 C
ATOM     18   O  NAG B   1      11.978   5.792   9.4900  0.00  0.00     0.000 OA
ENDBRANCH 2 16
BRANCH 1 19
ATOM     19  O4  BDP B   2      11.927   9.819  11.4210  0.00  0.00     0.000 O
BRANCH 19 23
ATOM     20  C1  BDP B   2      13.918  12.990   9.7120  0.00  0.00     0.000 C
ATOM     21  C2  BDP B   2      13.266  13.249  11.0550  0.00  0.00     0.000 C
ATOM     22  C3  BDP B   2      12.943  11.955  11.7660  0.00  0.00     0.000 C
ATOM     23  C4  BDP B   2      12.117  11.081  10.8270  0.00  0.00     0.000 C
ATOM     24  C5  BDP B   2      12.873  10.882   9.5280  0.00  0.00     0.000 C
ATOM     25  O5  BDP B   2      13.105  12.138   8.9180  0.00  0.00     0.000 O
ATOM     26   O  BDP B   2      14.110  14.040  11.8640  0.00  0.00     0.000 O
ATOM     28  HD  BDP B   2      14.511  14.114  11.1000  0.00  0.00     0.000 HD
ATOM     28   O  BDP B   2      12.244  12.247  12.9860  0.00  0.00     0.000 O
ATOM     30  HD  BDP B   2      12.645  12.321  12.2220  0.00  0.00     0.000 HD
BRANCH 24 30
ATOM     30   C  BDP B   2      12.116  10.045   8.5600  0.00  0.00     0.000 C
ATOM     31   O  BDP B   2      12.709   9.056   8.0690  0.00  0.00     0.000 OA
ATOM     32   O  BDP B   2      10.929  10.376   8.2780  0.00  0.00     0.000 OA
ENDBRANCH 24 30
BRANCH 20 33
ATOM     33  O3  NAG B   3      13.979  14.261   9.1120  0.00  0.00     0.000 O
BRANCH 33 36
ATOM     34  C1  NAG B   3      16.951  15.359   7.0840  0.00  0.00     0.000 C
ATOM     35  C2  NAG B   3      16.088  15.141   8.3130  0.00  0.00     0.000 C
ATOM     36  C3  NAG B   3      14.862  14.274   7.9880  0.00  0.00     0.000 C
ATOM     37  C4  NAG B   3      14.127  14.867   6.7890  0.00  0.00     0.000 C
ATOM     38  C5  NAG B   3      15.103  15.124   5.6440  0.00  0.00     0.000 C
ATOM     39  O5  NAG B   3      16.151  15.972   6.0840  0.00  0.00     0.000 O
ATOM     40   O  NAG B   3      13.100  13.966   6.3470  0.00  0.00     0.000 O
ATOM     42  HD  NAG B   3      13.515  14.060   5.5920  0.00  0.00     0.000 HD
ATOM     42   C  NAG B   3      14.478  15.838   4.4480  0.00  0.00     0.000 C
ATOM     43   O  NAG B   3      14.084  17.161   4.8330  0.00  0.00     0.000 O
ATOM     45  HD  NAG B   3      14.498  17.255   4.0780  0.00  0.00     0.000 HD
BRANCH 35 47
ATOM     45   N  NAG B   3      16.426  15.724   9.6050  0.00  0.00     0.000 N
ATOM     47  HD  NAG B   3      15.726  16.087   9.2480  0.00  0.00     0.000 HD
ATOM     47   C  NAG B   3      16.879  15.012  10.6170  0.00  0.00     0.000 C
ATOM     48   C  NAG B   3      17.159  15.766  11.8830  0.00  0.00     0.000 C
ATOM     49   O  NAG B   3      17.038  13.795  10.5380  0.00  0.00     0.000 OA
ENDBRANCH 35 47
BRANCH 34 50
ATOM     50  O4  BDP B   4      17.949  16.252   7.5320  0.00  0.00     0.000 O
BRANCH 50 54
ATOM     51  C1  BDP B   4      21.849  17.337   7.1200  0.00  0.00     0.000 C
ATOM     52  C2  BDP B   4      21.036  17.401   5.8320  0.00  0.00     0.000 C
ATOM     53  C3  BDP B   4      19.580  17.349   6.1800  0.00  0.00     0.000 C
ATOM     54  C4  BDP B   4      19.291  16.087   7.0430  0.00  0.00     0.000 C
ATOM     55  C5  BDP B   4      20.257  15.951   8.2120  0.00  0.00     0.000 C
ATOM     56  O5  BDP B   4      21.602  16.102   7.7680  0.00  0.00     0.000 O
ATOM     57   O  BDP B   4      21.309  18.600   5.1390  0.00  0.00     0.000 O
ATOM     59  HD  BDP B   4      21.835  18.364   4.4930  0.00  0.00     0.000 HD
ATOM     59   O  BDP B   4      18.856  17.216   4.9400  0.00  0.00     0.000 O
ATOM     61  HD  BDP B   4      19.382  16.980   4.2940  0.00  0.00     0.000 HD
BRANCH 55 61
ATOM     61   C  BDP B   4      20.090  14.579   8.8420  0.00  0.00     0.000 C
ATOM     62   O  BDP B   4      20.271  14.473  10.0830  0.00  0.00     0.000 OA
ATOM     63   O  BDP B   4      19.776  13.607   8.0900  0.00  0.00     0.000 OA
ENDBRANCH 55 61
BRANCH 51 64
ATOM     64  O3  NAG B   5      23.238  17.453   6.7540  0.00  0.00     0.000 O
BRANCH 64 67
ATOM     65  C1  NAG B   5      25.656  19.296   8.8400  0.00  0.00     0.000 C
ATOM     66  C2  NAG B   5      24.562  19.068   7.8110  0.00  0.00     0.000 C
ATOM     67  C3  NAG B   5      24.083  17.624   7.8750  0.00  0.00     0.000 C
ATOM     68  C4  NAG B   5      25.263  16.647   7.7790  0.00  0.00     0.000 C
ATOM     69  C5  NAG B   5      26.345  17.011   8.7830  0.00  0.00     0.000 C
ATOM     70  O5  NAG B   5      26.713  18.389   8.6260  0.00  0.00     0.000 O
ATOM     71   O  NAG B   5      24.784  15.337   7.9960  0.00  0.00     0.000 O
ATOM     73  HD  NAG B   5      25.319  15.162   7.3380  0.00  0.00     0.000 HD
ATOM     73   C  NAG B   5      27.621  16.164   8.6720  0.00  0.00     0.000 C
ATOM     74   O  NAG B   5      28.246  16.396   7.3920  0.00  0.00     0.000 O
ATOM     76  HD  NAG B   5      28.781  16.221   6.7340  0.00  0.00     0.000 HD
BRANCH 66 78
ATOM     76   N  NAG B   5      23.614  20.152   8.1340  0.00  0.00     0.000 N
ATOM     78  HD  NAG B   5      24.023  19.852   7.4330  0.00  0.00     0.000 HD
ATOM     78   C  NAG B   5      22.944  20.905   7.2480  0.00  0.00     0.000 C
ATOM     79   C  NAG B   5      22.035  21.919   7.8880  0.00  0.00     0.000 C
ATOM     80   O  NAG B   5      23.073  20.779   5.9780  0.00  0.00     0.000 OA
ENDBRANCH 66 78
BRANCH 65 81
ATOM     81  O4  BDP B   6      26.142  20.642   8.7520  0.00  0.00     0.000 O
BRANCH 81 85
ATOM     82  C1  BDP B   6      28.203  23.523  11.1640  0.00  0.00     0.000 C
ATOM     83  C2  BDP B   6      29.050  22.525  10.3790  0.00  0.00     0.000 C
ATOM     84  C3  BDP B   6      28.267  21.830   9.2610  0.00  0.00     0.000 C
ATOM     85  C4  BDP B   6      26.958  21.224   9.7710  0.00  0.00     0.000 C
ATOM     86  C5  BDP B   6      26.211  22.314  10.5750  0.00  0.00     0.000 C
ATOM     87  O5  BDP B   6      27.040  22.866  11.6470  0.00  0.00     0.000 O
ATOM     88   O  BDP B   6      30.111  23.290   9.8130  0.00  0.00     0.000 O
ATOM     90  HD  BDP B   6      30.556  23.370   9.0740  0.00  0.00     0.000 HD
ATOM     90   O  BDP B   6      29.089  20.834   8.6480  0.00  0.00     0.000 O
ATOM     92  HD  BDP B   6      29.534  20.914   7.9100  0.00  0.00     0.000 HD
BRANCH 86 92
ATOM     92   C  BDP B   6      25.030  21.718  11.3040  0.00  0.00     0.000 C
ATOM     93   O  BDP B   6      23.866  21.852  10.8200  0.00  0.00     0.000 OA
ATOM     94   O  BDP B   6      25.265  21.080  12.3760  0.00  0.00     0.000 OA
ENDBRANCH 86 92
BRANCH 82 95
ATOM     95  O3  NAG B   7      28.965  23.968  12.3030  0.00  0.00     0.000 O
BRANCH 95 98
ATOM     96  C1  NAG B   7      29.785  27.197  13.8000  0.00  0.00     0.000 C
ATOM     97  C2  NAG B   7      30.064  25.798  13.2660  0.00  0.00     0.000 C
ATOM     98  C3  NAG B   7      28.696  25.253  12.8600  0.00  0.00     0.000 C
ATOM     99  C4  NAG B   7      27.771  25.215  14.0750  0.00  0.00     0.000 C
ATOM    100  C5  NAG B   7      27.699  26.585  14.7490  0.00  0.00     0.000 C
ATOM    101  O5  NAG B   7      29.018  27.046  14.9990  0.00  0.00     0.000 O
BRANCH 97 104
ATOM    102   N  NAG B   7      30.868  25.694  12.0410  0.00  0.00     0.000 N
ATOM    104  HD  NAG B   7      31.125  25.509  11.2350  0.00  0.00     0.000 HD
ATOM    104   O  NAG B   7      32.605  25.043  10.7410  0.00  0.00     0.000 OA
ATOM    105   C  NAG B   7      32.066  25.104  11.8640  0.00  0.00     0.000 C
ATOM    106   C  NAG B   7      32.755  24.497  13.0370  0.00  0.00     0.000 C
ENDBRANCH 97 104
ATOM    107   O  NAG B   7      26.609  27.813  16.4250  0.00  0.00     0.000 O
ATOM    109  HD  NAG B   7      26.933  27.843  15.6230  0.00  0.00     0.000 HD
ATOM    109   O  NAG B   7      26.609  27.813  16.4250  0.00  0.00     0.000 O
ATOM    111  HD  NAG B   7      26.933  27.843  15.6230  0.00  0.00     0.000 HD
ENDBRANCH 95 98
ENDBRANCH 82 95
ENDBRANCH 81 85
ENDBRANCH 65 81
ENDBRANCH 64 67
ENDBRANCH 51 64
ENDBRANCH 50 54
ENDBRANCH 34 50
ENDBRANCH 33 36
ENDBRANCH 20 33
ENDBRANCH 19 23
ENDBRANCH 1 19
TORSDOF 19
ENDMDL
MODEL 82
REMARK VINA RESULT:      -5.3     10.075     15.563
ROOT
ATOM      1  C1  NAG B   1      10.576   9.539  11.8240  0.00  0.00     0.000 C
ATOM      2  C2  NAG B   1      10.518   8.033  12.0640  0.00  0.00     0.000 C
ATOM      3  C3  NAG B   1       9.222   7.616  12.7280  0.00  0.00     0.000 C
ATOM      4  C4  NAG B   1       9.152   8.415  14.0250  0.00  0.00     0.000 C
ATOM      5  C5  NAG B   1       9.080   9.910  13.6920  0.00  0.00     0.000 C
ATOM      6  O5  NAG B   1      10.255  10.341  12.9720  0.00  0.00     0.000 O
ATOM      7   O  NAG B   1       9.177   6.196  12.9940  0.00  0.00     0.000 O
ATOM      9  HD  NAG B   1       9.619   6.232  12.2500  0.00  0.00     0.000 HD
ATOM      9   O  NAG B   1       8.009   8.033  14.7720  0.00  0.00     0.000 O
ATOM     11  HD  NAG B   1       8.451   8.070  14.0290  0.00  0.00     0.000 HD
ATOM     11   C  NAG B   1       8.871  10.723  14.9760  0.00  0.00     0.000 C
ATOM     12   O  NAG B   1       9.432  12.030  14.8590  0.00  0.00     0.000 O
ATOM     14  HD  NAG B   1       9.874  12.067  14.1150  0.00  0.00     0.000 HD
ENDROOT
BRANCH 2 16
ATOM     14   N  NAG B   1      10.707   7.241  10.8350  0.00  0.00     0.000 N
ATOM     16  HD  NAG B   1      11.085   7.257  10.0560  0.00  0.00     0.000 HD
ATOM     16   C  NAG B   1      11.824   6.540  10.5770  0.00  0.00     0.000 C
ATOM     17   C  NAG B   1      12.969   6.563  11.5550  0.00  0.00     0.000 C
ATOM     18   O  NAG B   1      11.925   5.851   9.5620  0.00  0.00     0.000 OA
ENDBRANCH 2 16
BRANCH 1 19
ATOM     19  O4  BDP B   2      11.952   9.772  11.5570  0.00  0.00     0.000 O
BRANCH 19 23
ATOM     20  C1  BDP B   2      14.164  12.811   9.8780  0.00  0.00     0.000 C
ATOM     21  C2  BDP B   2      13.516  13.108  11.2150  0.00  0.00     0.000 C
ATOM     22  C3  BDP B   2      13.102  11.836  11.9190  0.00  0.00     0.000 C
ATOM     23  C4  BDP B   2      12.231  11.020  10.9680  0.00  0.00     0.000 C
ATOM     24  C5  BDP B   2      12.985  10.776   9.6770  0.00  0.00     0.000 C
ATOM     25  O5  BDP B   2      13.306  12.015   9.0730  0.00  0.00     0.000 O
ATOM     26   O  BDP B   2      14.401  13.840  12.0350  0.00  0.00     0.000 O
ATOM     28  HD  BDP B   2      14.814  13.889  11.2760  0.00  0.00     0.000 HD
ATOM     28   O  BDP B   2      12.410  12.171  13.1320  0.00  0.00     0.000 O
ATOM     30  HD  BDP B   2      12.823  12.220  12.3730  0.00  0.00     0.000 HD
BRANCH 24 30
ATOM     30   C  BDP B   2      12.186   9.992   8.6980  0.00  0.00     0.000 C
ATOM     31   O  BDP B   2      11.030  10.402   8.4420  0.00  0.00     0.000 OA
ATOM     32   O  BDP B   2      12.706   8.960   8.1870  0.00  0.00     0.000 OA
ENDBRANCH 24 30
BRANCH 20 33
ATOM     33  O3  NAG B   3      14.314  14.076   9.2830  0.00  0.00     0.000 O
BRANCH 33 36
ATOM     34  C1  NAG B   3      16.898  14.474   6.5790  0.00  0.00     0.000 C
ATOM     35  C2  NAG B   3      16.337  14.356   7.9830  0.00  0.00     0.000 C
ATOM     36  C3  NAG B   3      14.848  13.979   7.9610  0.00  0.00     0.000 C
ATOM     37  C4  NAG B   3      14.095  14.946   7.0510  0.00  0.00     0.000 C
ATOM     38  C5  NAG B   3      14.793  15.052   5.6970  0.00  0.00     0.000 C
ATOM     39  O5  NAG B   3      16.141  15.451   5.8790  0.00  0.00     0.000 O
ATOM     40   O  NAG B   3      12.747  14.491   6.8590  0.00  0.00     0.000 O
ATOM     42  HD  NAG B   3      12.973  14.562   6.0260  0.00  0.00     0.000 HD
ATOM     42   C  NAG B   3      14.182  16.098   4.7680  0.00  0.00     0.000 C
ATOM     43   O  NAG B   3      14.372  17.404   5.3260  0.00  0.00     0.000 O
ATOM     45  HD  NAG B   3      14.597  17.475   4.4930  0.00  0.00     0.000 HD
BRANCH 35 47
ATOM     45   N  NAG B   3      17.076  14.606   9.2140  0.00  0.00     0.000 N
ATOM     47  HD  NAG B   3      16.416  15.156   9.1040  0.00  0.00     0.000 HD
ATOM     47   C  NAG B   3      17.567  13.640   9.9640  0.00  0.00     0.000 C
ATOM     48   C  NAG B   3      18.284  14.071  11.2100  0.00  0.00     0.000 C
ATOM     49   O  NAG B   3      17.424  12.454   9.6760  0.00  0.00     0.000 OA
ENDBRANCH 35 47
BRANCH 34 50
ATOM     50  O4  BDP B   4      18.219  14.930   6.7840  0.00  0.00     0.000 O
BRANCH 50 54
ATOM     51  C1  BDP B   4      21.998  14.892   5.2780  0.00  0.00     0.000 C
ATOM     52  C2  BDP B   4      20.933  15.372   4.2990  0.00  0.00     0.000 C
ATOM     53  C3  BDP B   4      19.687  15.693   5.0660  0.00  0.00     0.000 C
ATOM     54  C4  BDP B   4      19.255  14.457   5.9060  0.00  0.00     0.000 C
ATOM     55  C5  BDP B   4      20.404  13.881   6.7220  0.00  0.00     0.000 C
ATOM     56  O5  BDP B   4      21.556  13.701   5.9030  0.00  0.00     0.000 O
ATOM     57   O  BDP B   4      21.376  16.529   3.6210  0.00  0.00     0.000 O
ATOM     59  HD  BDP B   4      21.606  16.247   2.8350  0.00  0.00     0.000 HD
ATOM     59   O  BDP B   4      18.652  15.954   4.0950  0.00  0.00     0.000 O
ATOM     61  HD  BDP B   4      18.882  15.672   3.3090  0.00  0.00     0.000 HD
BRANCH 55 61
ATOM     61   C  BDP B   4      19.987  12.540   7.2990  0.00  0.00     0.000 C
ATOM     62   O  BDP B   4      19.214  11.818   6.6150  0.00  0.00     0.000 OA
ATOM     63   O  BDP B   4      20.437  12.209   8.4380  0.00  0.00     0.000 OA
ENDBRANCH 55 61
BRANCH 51 64
ATOM     64  O3  NAG B   5      23.200  14.655   4.5190  0.00  0.00     0.000 O
BRANCH 64 67
ATOM     65  C1  NAG B   5      26.547  15.404   5.8710  0.00  0.00     0.000 C
ATOM     66  C2  NAG B   5      25.203  15.650   5.2080  0.00  0.00     0.000 C
ATOM     67  C3  NAG B   5      24.324  14.413   5.3420  0.00  0.00     0.000 C
ATOM     68  C4  NAG B   5      25.059  13.160   4.8470  0.00  0.00     0.000 C
ATOM     69  C5  NAG B   5      26.430  13.049   5.4970  0.00  0.00     0.000 C
ATOM     70  O5  NAG B   5      27.161  14.269   5.3060  0.00  0.00     0.000 O
ATOM     71   O  NAG B   5      24.265  12.028   5.1330  0.00  0.00     0.000 O
ATOM     73  HD  NAG B   5      24.518  11.799   4.3370  0.00  0.00     0.000 HD
ATOM     73   C  NAG B   5      27.289  11.893   4.9660  0.00  0.00     0.000 C
ATOM     74   O  NAG B   5      27.586  12.111   3.5710  0.00  0.00     0.000 O
ATOM     76  HD  NAG B   5      27.839  11.882   2.7750  0.00  0.00     0.000 HD
BRANCH 66 78
ATOM     76   N  NAG B   5      24.769  16.903   5.8550  0.00  0.00     0.000 N
ATOM     78  HD  NAG B   5      24.862  16.602   5.0490  0.00  0.00     0.000 HD
ATOM     78   C  NAG B   5      24.166  17.938   5.2480  0.00  0.00     0.000 C
ATOM     79   C  NAG B   5      23.828  19.068   6.1830  0.00  0.00     0.000 C
ATOM     80   O  NAG B   5      23.912  17.965   3.9910  0.00  0.00     0.000 OA
ENDBRANCH 66 78
BRANCH 65 81
ATOM     81  O4  BDP B   6      27.394  16.549   5.7080  0.00  0.00     0.000 O
BRANCH 81 85
ATOM     82  C1  BDP B   6      30.841  18.335   7.5230  0.00  0.00     0.000 C
ATOM     83  C2  BDP B   6      31.077  17.252   6.4740  0.00  0.00     0.000 C
ATOM     84  C3  BDP B   6      29.842  16.979   5.6120  0.00  0.00     0.000 C
ATOM     85  C4  BDP B   6      28.597  16.718   6.4620  0.00  0.00     0.000 C
ATOM     86  C5  BDP B   6      28.485  17.857   7.5030  0.00  0.00     0.000 C
ATOM     87  O5  BDP B   6      29.705  17.988   8.3020  0.00  0.00     0.000 O
ATOM     88   O  BDP B   6      32.134  17.742   5.6530  0.00  0.00     0.000 O
ATOM     90  HD  BDP B   6      32.364  17.790   4.8200  0.00  0.00     0.000 HD
ATOM     90   O  BDP B   6      30.103  15.880   4.7350  0.00  0.00     0.000 O
ATOM     92  HD  BDP B   6      30.333  15.928   3.9010  0.00  0.00     0.000 HD
BRANCH 86 92
ATOM     92   C  BDP B   6      27.419  17.539   8.5230  0.00  0.00     0.000 C
ATOM     93   O  BDP B   6      26.272  18.068   8.4130  0.00  0.00     0.000 OA
ATOM     94   O  BDP B   6      27.719  16.724   9.4500  0.00  0.00     0.000 OA
ENDBRANCH 86 92
BRANCH 82 95
ATOM     95  O3  NAG B   7      31.983  18.374   8.4000  0.00  0.00     0.000 O
BRANCH 95 98
ATOM     96  C1  NAG B   7      34.369  20.891   9.5470  0.00  0.00     0.000 C
ATOM     97  C2  NAG B   7      33.920  19.531   9.0280  0.00  0.00     0.000 C
ATOM     98  C3  NAG B   7      32.398  19.626   8.9460  0.00  0.00     0.000 C
ATOM     99  C4  NAG B   7      31.820  19.915  10.3290  0.00  0.00     0.000 C
ATOM    100  C5  NAG B   7      32.470  21.157  10.9430  0.00  0.00     0.000 C
ATOM    101  O5  NAG B   7      33.880  21.013  10.8870  0.00  0.00     0.000 O
BRANCH 97 104
ATOM    102   N  NAG B   7      34.326  19.160   7.6650  0.00  0.00     0.000 N
ATOM    104  HD  NAG B   7      34.304  18.921   6.8340  0.00  0.00     0.000 HD
ATOM    104   O  NAG B   7      35.321  17.914   6.0580  0.00  0.00     0.000 OA
ATOM    105   C  NAG B   7      35.111  18.142   7.2650  0.00  0.00     0.000 C
ATOM    106   C  NAG B   7      35.731  17.258   8.2920  0.00  0.00     0.000 C
ENDBRANCH 97 104
ATOM    107   O  NAG B   7      32.370  22.642  12.7560  0.00  0.00     0.000 O
ATOM    109  HD  NAG B   7      32.501  22.574  11.9030  0.00  0.00     0.000 HD
ATOM    109   O  NAG B   7      32.370  22.642  12.7560  0.00  0.00     0.000 O
ATOM    111  HD  NAG B   7      32.501  22.574  11.9030  0.00  0.00     0.000 HD
ENDBRANCH 95 98
ENDBRANCH 82 95
ENDBRANCH 81 85
ENDBRANCH 65 81
ENDBRANCH 64 67
ENDBRANCH 51 64
ENDBRANCH 50 54
ENDBRANCH 34 50
ENDBRANCH 33 36
ENDBRANCH 20 33
ENDBRANCH 19 23
ENDBRANCH 1 19
TORSDOF 19
ENDMDL
MODEL 83
REMARK VINA RESULT:      -5.2      7.904     15.287
ROOT
ATOM      1  C1  NAG B   1      14.868  12.095   7.5540  0.00  0.00     0.000 C
ATOM      2  C2  NAG B   1      15.578  13.443   7.4680  0.00  0.00     0.000 C
ATOM      3  C3  NAG B   1      16.838  13.365   6.6290  0.00  0.00     0.000 C
ATOM      4  C4  NAG B   1      17.701  12.295   7.2890  0.00  0.00     0.000 C
ATOM      5  C5  NAG B   1      16.974  10.947   7.2170  0.00  0.00     0.000 C
ATOM      6  O5  NAG B   1      15.715  10.995   7.9230  0.00  0.00     0.000 O
ATOM      7   O  NAG B   1      17.536  14.630   6.5750  0.00  0.00     0.000 O
ATOM      9  HD  NAG B   1      16.706  14.876   6.5960  0.00  0.00     0.000 HD
ATOM      9   O  NAG B   1      18.952  12.202   6.6290  0.00  0.00     0.000 O
ATOM     11  HD  NAG B   1      18.122  12.448   6.6490  0.00  0.00     0.000 HD
ATOM     11   C  NAG B   1      17.882   9.832   7.7510  0.00  0.00     0.000 C
ATOM     12   O  NAG B   1      17.118   8.766   8.3130  0.00  0.00     0.000 O
ATOM     14  HD  NAG B   1      16.288   9.012   8.3330  0.00  0.00     0.000 HD
ENDROOT
BRANCH 2 16
ATOM     14   N  NAG B   1      15.083  14.606   8.2270  0.00  0.00     0.000 N
ATOM     16  HD  NAG B   1      15.201  15.456   8.3410  0.00  0.00     0.000 HD
ATOM     16   C  NAG B   1      14.235  15.513   7.7120  0.00  0.00     0.000 C
ATOM     17   C  NAG B   1      13.770  15.382   6.2860  0.00  0.00     0.000 C
ATOM     18   O  NAG B   1      13.805  16.443   8.3940  0.00  0.00     0.000 OA
ENDBRANCH 2 16
BRANCH 1 19
ATOM     19  O4  BDP B   2      13.965  12.274   8.6370  0.00  0.00     0.000 O
BRANCH 19 23
ATOM     20  C1  BDP B   2      13.003  10.195  12.0560  0.00  0.00     0.000 C
ATOM     21  C2  BDP B   2      14.372  10.841  12.0240  0.00  0.00     0.000 C
ATOM     22  C3  BDP B   2      14.455  11.897  10.9460  0.00  0.00     0.000 C
ATOM     23  C4  BDP B   2      14.027  11.271   9.6220  0.00  0.00     0.000 C
ATOM     24  C5  BDP B   2      12.643  10.670   9.7730  0.00  0.00     0.000 C
ATOM     25  O5  BDP B   2      12.666   9.675  10.7780  0.00  0.00     0.000 O
ATOM     26   O  BDP B   2      14.672  11.416  13.2780  0.00  0.00     0.000 O
ATOM     28  HD  BDP B   2      13.970  10.951  13.4820  0.00  0.00     0.000 HD
ATOM     28   O  BDP B   2      15.794  12.414  10.8910  0.00  0.00     0.000 O
ATOM     30  HD  BDP B   2      15.092  11.949  11.0950  0.00  0.00     0.000 HD
BRANCH 24 30
ATOM     30   C  BDP B   2      12.169  10.030   8.5170  0.00  0.00     0.000 C
ATOM     31   O  BDP B   2      11.024  10.339   8.1120  0.00  0.00     0.000 OA
ATOM     32   O  BDP B   2      12.933   9.210   7.9340  0.00  0.00     0.000 OA
ENDBRANCH 24 30
BRANCH 20 33
ATOM     33  O3  NAG B   3      13.150   9.131  12.9650  0.00  0.00     0.000 O
BRANCH 33 36
ATOM     34  C1  NAG B   3      10.141   7.667  14.6830  0.00  0.00     0.000 C
ATOM     35  C2  NAG B   3      11.295   8.619  14.4350  0.00  0.00     0.000 C
ATOM     36  C3  NAG B   3      11.952   8.357  13.0710  0.00  0.00     0.000 C
ATOM     37  C4  NAG B   3      12.308   6.877  12.9570  0.00  0.00     0.000 C
ATOM     38  C5  NAG B   3      11.100   6.013  13.3100  0.00  0.00     0.000 C
ATOM     39  O5  NAG B   3      10.637   6.338  14.6100  0.00  0.00     0.000 O
ATOM     40   O  NAG B   3      12.736   6.576  11.6200  0.00  0.00     0.000 O
ATOM     42  HD  NAG B   3      12.114   5.978  11.6880  0.00  0.00     0.000 HD
ATOM     42   C  NAG B   3      11.402   4.517  13.3490  0.00  0.00     0.000 C
ATOM     43   O  NAG B   3      12.313   4.240  14.4200  0.00  0.00     0.000 O
ATOM     45  HD  NAG B   3      11.691   3.641  14.4870  0.00  0.00     0.000 HD
BRANCH 35 47
ATOM     45   N  NAG B   3      10.755   9.943  14.7160  0.00  0.00     0.000 N
ATOM     47  HD  NAG B   3      10.183   9.310  14.8680  0.00  0.00     0.000 HD
ATOM     47   C  NAG B   3      11.469  10.909  15.2570  0.00  0.00     0.000 C
ATOM     48   C  NAG B   3      10.753  12.205  15.4980  0.00  0.00     0.000 C
ATOM     49   O  NAG B   3      12.647  10.751  15.5710  0.00  0.00     0.000 OA
ENDBRANCH 35 47
BRANCH 34 50
ATOM     50  O4  BDP B   4       9.737   7.969  16.0020  0.00  0.00     0.000 O
BRANCH 50 54
ATOM     51  C1  BDP B   4       6.402   8.483  18.2760  0.00  0.00     0.000 C
ATOM     52  C2  BDP B   4       7.083   7.130  18.4500  0.00  0.00     0.000 C
ATOM     53  C3  BDP B   4       8.461   7.209  17.8690  0.00  0.00     0.000 C
ATOM     54  C4  BDP B   4       8.382   7.685  16.3900  0.00  0.00     0.000 C
ATOM     55  C5  BDP B   4       7.524   8.933  16.2290  0.00  0.00     0.000 C
ATOM     56  O5  BDP B   4       6.275   8.767  16.8940  0.00  0.00     0.000 O
ATOM     57   O  BDP B   4       7.171   6.798  19.8200  0.00  0.00     0.000 O
ATOM     59  HD  BDP B   4       6.546   6.212  19.9430  0.00  0.00     0.000 HD
ATOM     59   O  BDP B   4       8.998   5.870  17.8770  0.00  0.00     0.000 O
ATOM     61  HD  BDP B   4       8.373   5.283  18.0000  0.00  0.00     0.000 HD
BRANCH 55 61
ATOM     61   C  BDP B   4       7.273   9.180  14.7520  0.00  0.00     0.000 C
ATOM     62   O  BDP B   4       6.339   8.545  14.1960  0.00  0.00     0.000 OA
ATOM     63   O  BDP B   4       8.014  10.016  14.1490  0.00  0.00     0.000 OA
ENDBRANCH 55 61
BRANCH 51 64
ATOM     64  O3  NAG B   5       5.107   8.392  18.9000  0.00  0.00     0.000 O
BRANCH 64 67
ATOM     65  C1  NAG B   5       3.513  11.177  20.7160  0.00  0.00     0.000 C
ATOM     66  C2  NAG B   5       4.392   9.960  20.4840  0.00  0.00     0.000 C
ATOM     67  C3  NAG B   5       4.460   9.646  18.9950  0.00  0.00     0.000 C
ATOM     68  C4  NAG B   5       3.053   9.542  18.3890  0.00  0.00     0.000 C
ATOM     69  C5  NAG B   5       2.220  10.761  18.7520  0.00  0.00     0.000 C
ATOM     70  O5  NAG B   5       2.231  10.955  20.1740  0.00  0.00     0.000 O
ATOM     71   O  NAG B   5       3.174   9.403  16.9890  0.00  0.00     0.000 O
ATOM     73  HD  NAG B   5       2.547   8.819  17.1150  0.00  0.00     0.000 HD
ATOM     73   C  NAG B   5       0.757  10.686  18.2950  0.00  0.00     0.000 C
ATOM     74   O  NAG B   5       0.093   9.601  18.9750  0.00  0.00     0.000 O
ATOM     76  HD  NAG B   5      -0.534   9.017  19.1000  0.00  0.00     0.000 HD
BRANCH 66 78
ATOM     76   N  NAG B   5       5.651  10.331  21.1590  0.00  0.00     0.000 N
ATOM     78  HD  NAG B   5       5.080   9.680  21.1870  0.00  0.00     0.000 HD
ATOM     78   C  NAG B   5       6.386   9.534  21.9510  0.00  0.00     0.000 C
ATOM     79   C  NAG B   5       7.631  10.196  22.4770  0.00  0.00     0.000 C
ATOM     80   O  NAG B   5       6.054   8.329  22.2390  0.00  0.00     0.000 OA
ENDBRANCH 66 78
BRANCH 65 81
ATOM     81  O4  BDP B   6       3.408  11.449  22.1200  0.00  0.00     0.000 O
BRANCH 81 85
ATOM     82  C1  BDP B   6       2.673  14.861  24.6060  0.00  0.00     0.000 C
ATOM     83  C2  BDP B   6       2.170  14.916  23.1660  0.00  0.00     0.000 C
ATOM     84  C3  BDP B   6       2.112  13.537  22.5030  0.00  0.00     0.000 C
ATOM     85  C4  BDP B   6       3.435  12.780  22.6400  0.00  0.00     0.000 C
ATOM     86  C5  BDP B   6       3.855  12.823  24.1290  0.00  0.00     0.000 C
ATOM     87  O5  BDP B   6       3.927  14.194  24.6360  0.00  0.00     0.000 O
ATOM     88   O  BDP B   6       0.857  15.464  23.2420  0.00  0.00     0.000 O
ATOM     90  HD  BDP B   6       0.067  15.354  22.9050  0.00  0.00     0.000 HD
ATOM     90   O  BDP B   6       1.745  13.681  21.1290  0.00  0.00     0.000 O
ATOM     92  HD  BDP B   6       0.955  13.571  20.7910  0.00  0.00     0.000 HD
BRANCH 86 92
ATOM     92   C  BDP B   6       5.262  12.303  24.2970  0.00  0.00     0.000 C
ATOM     93   O  BDP B   6       6.234  12.972  23.8320  0.00  0.00     0.000 OA
ATOM     94   O  BDP B   6       5.412  11.211  24.9290  0.00  0.00     0.000 OA
ENDBRANCH 86 92
BRANCH 82 95
ATOM     95  O3  NAG B   7       2.878  16.211  25.0670  0.00  0.00     0.000 O
BRANCH 95 98
ATOM     96  C1  NAG B   7       1.728  18.285  27.8450  0.00  0.00     0.000 C
ATOM     97  C2  NAG B   7       2.087  17.967  26.3990  0.00  0.00     0.000 C
ATOM     98  C3  NAG B   7       2.601  16.529  26.4310  0.00  0.00     0.000 C
ATOM     99  C4  NAG B   7       3.821  16.434  27.3430  0.00  0.00     0.000 C
ATOM    100  C5  NAG B   7       3.509  16.993  28.7320  0.00  0.00     0.000 C
ATOM    101  O5  NAG B   7       2.950  18.290  28.5910  0.00  0.00     0.000 O
BRANCH 97 104
ATOM    102   N  NAG B   7       1.009  17.904  25.4030  0.00  0.00     0.000 N
ATOM    104  HD  NAG B   7       0.486  17.633  24.7680  0.00  0.00     0.000 HD
ATOM    104   O  NAG B   7      -0.166  18.519  23.5670  0.00  0.00     0.000 OA
ATOM    105   C  NAG B   7       0.761  18.734  24.3730  0.00  0.00     0.000 C
ATOM    106   C  NAG B   7       1.627  19.933  24.1840  0.00  0.00     0.000 C
ENDBRANCH 97 104
ATOM    107   O  NAG B   7       4.359  17.244  30.9050  0.00  0.00     0.000 O
ATOM    109  HD  NAG B   7       3.650  17.074  30.4360  0.00  0.00     0.000 HD
ATOM    109   O  NAG B   7       4.359  17.244  30.9050  0.00  0.00     0.000 O
ATOM    111  HD  NAG B   7       3.650  17.074  30.4360  0.00  0.00     0.000 HD
ENDBRANCH 95 98
ENDBRANCH 82 95
ENDBRANCH 81 85
ENDBRANCH 65 81
ENDBRANCH 64 67
ENDBRANCH 51 64
ENDBRANCH 50 54
ENDBRANCH 34 50
ENDBRANCH 33 36
ENDBRANCH 20 33
ENDBRANCH 19 23
ENDBRANCH 1 19
TORSDOF 19
ENDMDL
MODEL 84
REMARK VINA RESULT:      -5.2      4.792      9.876
ROOT
ATOM      1  C1  NAG B   1      13.659   5.470  26.1110  0.00  0.00     0.000 C
ATOM      2  C2  NAG B   1      13.683   6.728  26.9750  0.00  0.00     0.000 C
ATOM      3  C3  NAG B   1      13.099   6.479  28.3510  0.00  0.00     0.000 C
ATOM      4  C4  NAG B   1      11.683   5.968  28.1070  0.00  0.00     0.000 C
ATOM      5  C5  NAG B   1      11.752   4.636  27.3490  0.00  0.00     0.000 C
ATOM      6  O5  NAG B   1      12.389   4.800  26.0650  0.00  0.00     0.000 O
ATOM      7   O  NAG B   1      13.083   7.676  29.1610  0.00  0.00     0.000 O
ATOM      9  HD  NAG B   1      13.810   7.773  28.7010  0.00  0.00     0.000 HD
ATOM      9   O  NAG B   1      11.010   5.785  29.3410  0.00  0.00     0.000 O
ATOM     11  HD  NAG B   1      11.738   5.881  28.8810  0.00  0.00     0.000 HD
ATOM     11   C  NAG B   1      10.347   4.037  27.2140  0.00  0.00     0.000 C
ATOM     12   O  NAG B   1      10.238   3.232  26.0410  0.00  0.00     0.000 O
ATOM     14  HD  NAG B   1      10.965   3.328  25.5800  0.00  0.00     0.000 HD
ENDROOT
BRANCH 2 16
ATOM     14   N  NAG B   1      14.117   8.092  26.6220  0.00  0.00     0.000 N
ATOM     16  HD  NAG B   1      14.412   8.831  26.9630  0.00  0.00     0.000 HD
ATOM     16   C  NAG B   1      15.409   8.449  26.5230  0.00  0.00     0.000 C
ATOM     17   C  NAG B   1      16.491   7.441  26.8060  0.00  0.00     0.000 C
ATOM     18   O  NAG B   1      15.732   9.585  26.1770  0.00  0.00     0.000 OA
ENDBRANCH 2 16
BRANCH 1 19
ATOM     19  O4  BDP B   2      13.885   5.972  24.8010  0.00  0.00     0.000 O
BRANCH 19 23
ATOM     20  C1  BDP B   2      11.911   5.811  21.1930  0.00  0.00     0.000 C
ATOM     21  C2  BDP B   2      11.264   6.648  22.2780  0.00  0.00     0.000 C
ATOM     22  C3  BDP B   2      12.249   6.976  23.3770  0.00  0.00     0.000 C
ATOM     23  C4  BDP B   2      12.868   5.674  23.8760  0.00  0.00     0.000 C
ATOM     24  C5  BDP B   2      13.491   4.932  22.7100  0.00  0.00     0.000 C
ATOM     25  O5  BDP B   2      12.497   4.641  21.7470  0.00  0.00     0.000 O
ATOM     26   O  BDP B   2      10.746   7.841  21.7310  0.00  0.00     0.000 O
ATOM     28  HD  BDP B   2      10.921   7.400  21.0070  0.00  0.00     0.000 HD
ATOM     28   O  BDP B   2      11.569   7.687  24.4240  0.00  0.00     0.000 O
ATOM     30  HD  BDP B   2      11.745   7.246  23.7000  0.00  0.00     0.000 HD
BRANCH 24 30
ATOM     30   C  BDP B   2      14.105   3.644  23.1270  0.00  0.00     0.000 C
ATOM     31   O  BDP B   2      15.351   3.614  23.2510  0.00  0.00     0.000 OA
ATOM     32   O  BDP B   2      13.345   2.653  23.3250  0.00  0.00     0.000 OA
ENDBRANCH 24 30
BRANCH 20 33
ATOM     33  O3  NAG B   3      10.838   5.442  20.3620  0.00  0.00     0.000 O
BRANCH 33 36
ATOM     34  C1  NAG B   3      11.396   4.940  16.6760  0.00  0.00     0.000 C
ATOM     35  C2  NAG B   3      11.134   5.684  17.9710  0.00  0.00     0.000 C
ATOM     36  C3  NAG B   3      11.287   4.760  19.1890  0.00  0.00     0.000 C
ATOM     37  C4  NAG B   3      10.433   3.511  18.9860  0.00  0.00     0.000 C
ATOM     38  C5  NAG B   3      10.717   2.892  17.6190  0.00  0.00     0.000 C
ATOM     39  O5  NAG B   3      10.489   3.850  16.5990  0.00  0.00     0.000 O
ATOM     40   O  NAG B   3      10.718   2.549  20.0140  0.00  0.00     0.000 O
ATOM     42  HD  NAG B   3      10.857   2.040  19.3270  0.00  0.00     0.000 HD
ATOM     42   C  NAG B   3       9.812   1.711  17.2770  0.00  0.00     0.000 C
ATOM     43   O  NAG B   3       8.460   2.166  17.1450  0.00  0.00     0.000 O
ATOM     45  HD  NAG B   3       8.599   1.657  16.4580  0.00  0.00     0.000 HD
BRANCH 35 47
ATOM     45   N  NAG B   3      10.737   7.081  18.0990  0.00  0.00     0.000 N
ATOM     47  HD  NAG B   3      10.146   6.536  18.4190  0.00  0.00     0.000 HD
ATOM     47   C  NAG B   3      11.589   8.045  18.3870  0.00  0.00     0.000 C
ATOM     48   C  NAG B   3      11.012   9.425  18.5020  0.00  0.00     0.000 C
ATOM     49   O  NAG B   3      12.783   7.824  18.5780  0.00  0.00     0.000 OA
ENDBRANCH 35 47
BRANCH 34 50
ATOM     50  O4  BDP B   4      11.105   5.894  15.6770  0.00  0.00     0.000 O
BRANCH 50 54
ATOM     51  C1  BDP B   4      12.271   7.175  11.9960  0.00  0.00     0.000 C
ATOM     52  C2  BDP B   4      11.108   6.190  11.9830  0.00  0.00     0.000 C
ATOM     53  C3  BDP B   4      10.545   6.095  13.3670  0.00  0.00     0.000 C
ATOM     54  C4  BDP B   4      11.675   5.718  14.3690  0.00  0.00     0.000 C
ATOM     55  C5  BDP B   4      12.904   6.603  14.2140  0.00  0.00     0.000 C
ATOM     56  O5  BDP B   4      13.291   6.683  12.8460  0.00  0.00     0.000 O
ATOM     57   O  BDP B   4      10.101   6.633  11.0980  0.00  0.00     0.000 O
ATOM     59  HD  BDP B   4      10.195   6.136  10.3950  0.00  0.00     0.000 HD
ATOM     59   O  BDP B   4       9.584   5.019  13.3570  0.00  0.00     0.000 O
ATOM     61  HD  BDP B   4       9.678   4.523  12.6530  0.00  0.00     0.000 HD
BRANCH 55 61
ATOM     61   C  BDP B   4      14.048   6.017  15.0230  0.00  0.00     0.000 C
ATOM     62   O  BDP B   4      14.476   4.878  14.7020  0.00  0.00     0.000 OA
ATOM     63   O  BDP B   4      14.518   6.702  15.9820  0.00  0.00     0.000 OA
ENDBRANCH 55 61
BRANCH 51 64
ATOM     64  O3  NAG B   5      12.747   7.292  10.6410  0.00  0.00     0.000 O
BRANCH 64 67
ATOM     65  C1  NAG B   5      13.748  10.706   9.6720  0.00  0.00     0.000 C
ATOM     66  C2  NAG B   5      12.836   9.566  10.0940  0.00  0.00     0.000 C
ATOM     67  C3  NAG B   5      13.670   8.351  10.4780  0.00  0.00     0.000 C
ATOM     68  C4  NAG B   5      14.667   7.993   9.3680  0.00  0.00     0.000 C
ATOM     69  C5  NAG B   5      15.468   9.216   8.9490  0.00  0.00     0.000 C
ATOM     70  O5  NAG B   5      14.578  10.290   8.6120  0.00  0.00     0.000 O
ATOM     71   O  NAG B   5      15.513   6.964   9.8340  0.00  0.00     0.000 O
ATOM     73  HD  NAG B   5      15.382   6.658   9.0350  0.00  0.00     0.000 HD
ATOM     73   C  NAG B   5      16.402   8.981   7.7540  0.00  0.00     0.000 C
ATOM     74   O  NAG B   5      15.621   8.664   6.5840  0.00  0.00     0.000 O
ATOM     76  HD  NAG B   5      15.489   8.359   5.7840  0.00  0.00     0.000 HD
BRANCH 66 78
ATOM     76   N  NAG B   5      12.020  10.036  11.2300  0.00  0.00     0.000 N
ATOM     78  HD  NAG B   5      11.892   9.808  10.4040  0.00  0.00     0.000 HD
ATOM     78   C  NAG B   5      10.679  10.040  11.2900  0.00  0.00     0.000 C
ATOM     79   C  NAG B   5      10.139  10.564  12.5930  0.00  0.00     0.000 C
ATOM     80   O  NAG B   5       9.931   9.645  10.3260  0.00  0.00     0.000 OA
ENDBRANCH 66 78
BRANCH 65 81
ATOM     81  O4  BDP B   6      12.967  11.837   9.2640  0.00  0.00     0.000 O
BRANCH 81 85
ATOM     82  C1  BDP B   6      13.391  16.076   8.8050  0.00  0.00     0.000 C
ATOM     83  C2  BDP B   6      13.766  15.197   7.6150  0.00  0.00     0.000 C
ATOM     84  C3  BDP B   6      13.205  13.776   7.7250  0.00  0.00     0.000 C
ATOM     85  C4  BDP B   6      13.544  13.130   9.0700  0.00  0.00     0.000 C
ATOM     86  C5  BDP B   6      13.153  14.125  10.1880  0.00  0.00     0.000 C
ATOM     87  O5  BDP B   6      13.790  15.430  10.0050  0.00  0.00     0.000 O
ATOM     88   O  BDP B   6      13.208  15.842   6.4740  0.00  0.00     0.000 O
ATOM     90  HD  BDP B   6      12.786  15.655   5.7420  0.00  0.00     0.000 HD
ATOM     90   O  BDP B   6      13.691  12.983   6.6390  0.00  0.00     0.000 O
ATOM     92  HD  BDP B   6      13.268  12.796   5.9070  0.00  0.00     0.000 HD
BRANCH 86 92
ATOM     92   C  BDP B   6      13.676  13.654  11.5240  0.00  0.00     0.000 C
ATOM     93   O  BDP B   6      12.958  12.894  12.2420  0.00  0.00     0.000 OA
ATOM     94   O  BDP B   6      14.841  14.030  11.8630  0.00  0.00     0.000 OA
ENDBRANCH 86 92
BRANCH 82 95
ATOM     95  O3  NAG B   7      14.124  17.313   8.7030  0.00  0.00     0.000 O
BRANCH 95 98
ATOM     96  C1  NAG B   7      13.325  20.857   8.3280  0.00  0.00     0.000 C
ATOM     97  C2  NAG B   7      14.078  19.562   8.0530  0.00  0.00     0.000 C
ATOM     98  C3  NAG B   7      13.462  18.540   9.0060  0.00  0.00     0.000 C
ATOM     99  C4  NAG B   7      13.647  18.999  10.4500  0.00  0.00     0.000 C
ATOM    100  C5  NAG B   7      13.102  20.413  10.6490  0.00  0.00     0.000 C
ATOM    101  O5  NAG B   7      13.660  21.265   9.6600  0.00  0.00     0.000 O
BRANCH 97 104
ATOM    102   N  NAG B   7      13.916  18.934   6.7350  0.00  0.00     0.000 N
ATOM    104  HD  NAG B   7      13.754  18.358   6.1090  0.00  0.00     0.000 HD
ATOM    104   O  NAG B   7      14.561  18.152   4.7100  0.00  0.00     0.000 OA
ATOM    105   C  NAG B   7      14.831  18.761   5.7630  0.00  0.00     0.000 C
ATOM    106   C  NAG B   7      16.207  19.301   5.9590  0.00  0.00     0.000 C
ENDBRANCH 97 104
ATOM    107   O  NAG B   7      12.641  22.054  12.2610  0.00  0.00     0.000 O
ATOM    109  HD  NAG B   7      12.360  21.677  11.5330  0.00  0.00     0.000 HD
ATOM    109   O  NAG B   7      12.641  22.054  12.2610  0.00  0.00     0.000 O
ATOM    111  HD  NAG B   7      12.360  21.677  11.5330  0.00  0.00     0.000 HD
ENDBRANCH 95 98
ENDBRANCH 82 95
ENDBRANCH 81 85
ENDBRANCH 65 81
ENDBRANCH 64 67
ENDBRANCH 51 64
ENDBRANCH 50 54
ENDBRANCH 34 50
ENDBRANCH 33 36
ENDBRANCH 20 33
ENDBRANCH 19 23
ENDBRANCH 1 19
TORSDOF 19
ENDMDL
MODEL 85
REMARK VINA RESULT:      -5.2      5.660     18.394
ROOT
ATOM      1  C1  NAG B   1      14.241  16.627   7.4380  0.00  0.00     0.000 C
ATOM      2  C2  NAG B   1      14.228  18.050   7.9900  0.00  0.00     0.000 C
ATOM      3  C3  NAG B   1      15.538  18.767   7.7330  0.00  0.00     0.000 C
ATOM      4  C4  NAG B   1      16.612  17.901   8.3830  0.00  0.00     0.000 C
ATOM      5  C5  NAG B   1      16.649  16.536   7.6840  0.00  0.00     0.000 C
ATOM      6  O5  NAG B   1      15.386  15.848   7.8180  0.00  0.00     0.000 O
ATOM      7   O  NAG B   1      15.547  20.102   8.2870  0.00  0.00     0.000 O
ATOM      9  HD  NAG B   1      14.723  20.009   8.0380  0.00  0.00     0.000 HD
ATOM      9   O  NAG B   1      17.878  18.530   8.2740  0.00  0.00     0.000 O
ATOM     11  HD  NAG B   1      17.054  18.437   8.0250  0.00  0.00     0.000 HD
ATOM     11   C  NAG B   1      17.812  15.699   8.2300  0.00  0.00     0.000 C
ATOM     12   O  NAG B   1      17.530  14.303   8.1470  0.00  0.00     0.000 O
ATOM     14  HD  NAG B   1      16.705  14.210   7.8980  0.00  0.00     0.000 HD
ENDROOT
BRANCH 2 16
ATOM     14   N  NAG B   1      13.046  18.735   7.4370  0.00  0.00     0.000 N
ATOM     16  HD  NAG B   1      12.213  18.616   7.2340  0.00  0.00     0.000 HD
ATOM     16   C  NAG B   1      12.055  19.224   8.2020  0.00  0.00     0.000 C
ATOM     17   C  NAG B   1      12.110  19.059   9.6980  0.00  0.00     0.000 C
ATOM     18   O  NAG B   1      11.108  19.834   7.7070  0.00  0.00     0.000 OA
ENDBRANCH 2 16
BRANCH 1 19
ATOM     19  O4  BDP B   2      13.126  16.021   8.0780  0.00  0.00     0.000 O
BRANCH 19 23
ATOM     20  C1  BDP B   2      12.537  12.791  10.5610  0.00  0.00     0.000 C
ATOM     21  C2  BDP B   2      13.331  13.946  11.1350  0.00  0.00     0.000 C
ATOM     22  C3  BDP B   2      13.129  15.207  10.3260  0.00  0.00     0.000 C
ATOM     23  C4  BDP B   2      13.442  14.897   8.8640  0.00  0.00     0.000 C
ATOM     24  C5  BDP B   2      12.582  13.738   8.3990  0.00  0.00     0.000 C
ATOM     25  O5  BDP B   2      12.857  12.598   9.1900  0.00  0.00     0.000 O
ATOM     26   O  BDP B   2      12.958  14.177  12.4770  0.00  0.00     0.000 O
ATOM     28  HD  BDP B   2      12.572  13.415  12.3350  0.00  0.00     0.000 HD
ATOM     28   O  BDP B   2      13.971  16.245  10.8500  0.00  0.00     0.000 O
ATOM     30  HD  BDP B   2      13.585  15.483  10.7080  0.00  0.00     0.000 HD
BRANCH 24 30
ATOM     30   C  BDP B   2      12.846  13.377   6.9820  0.00  0.00     0.000 C
ATOM     31   O  BDP B   2      11.862  13.332   6.2080  0.00  0.00     0.000 OA
ATOM     32   O  BDP B   2      14.036  13.127   6.6360  0.00  0.00     0.000 OA
ENDBRANCH 24 30
BRANCH 20 33
ATOM     33  O3  NAG B   3      12.973  11.677  11.2990  0.00  0.00     0.000 O
BRANCH 33 36
ATOM     34  C1  NAG B   3      10.946   8.957  12.9260  0.00  0.00     0.000 C
ATOM     35  C2  NAG B   3      11.848  10.173  12.8280  0.00  0.00     0.000 C
ATOM     36  C3  NAG B   3      11.965  10.666  11.3770  0.00  0.00     0.000 C
ATOM     37  C4  NAG B   3      12.365   9.499  10.4780  0.00  0.00     0.000 C
ATOM     38  C5  NAG B   3      11.447   8.304  10.7210  0.00  0.00     0.000 C
ATOM     39  O5  NAG B   3      11.479   7.940  12.0900  0.00  0.00     0.000 O
ATOM     40   O  NAG B   3      12.284   9.891   9.0990  0.00  0.00     0.000 O
ATOM     42  HD  NAG B   3      11.780   9.188   9.0570  0.00  0.00     0.000 HD
ATOM     42   C  NAG B   3      11.855   7.047   9.9570  0.00  0.00     0.000 C
ATOM     43   O  NAG B   3      13.118   6.579  10.4450  0.00  0.00     0.000 O
ATOM     45  HD  NAG B   3      12.614   5.876  10.4030  0.00  0.00     0.000 HD
BRANCH 35 47
ATOM     45   N  NAG B   3      11.348  11.131  13.8060  0.00  0.00     0.000 N
ATOM     47  HD  NAG B   3      10.880  10.402  13.7830  0.00  0.00     0.000 HD
ATOM     47   C  NAG B   3      12.140  11.886  14.5400  0.00  0.00     0.000 C
ATOM     48   C  NAG B   3      11.463  12.804  15.5140  0.00  0.00     0.000 C
ATOM     49   O  NAG B   3      13.365  11.824  14.4520  0.00  0.00     0.000 OA
ENDBRANCH 35 47
BRANCH 34 50
ATOM     50  O4  BDP B   4      11.043   8.579  14.2840  0.00  0.00     0.000 O
BRANCH 50 54
ATOM     51  C1  BDP B   4       9.248   6.486  17.2750  0.00  0.00     0.000 C
ATOM     52  C2  BDP B   4       9.957   5.623  16.2380  0.00  0.00     0.000 C
ATOM     53  C3  BDP B   4      10.869   6.496  15.4310  0.00  0.00     0.000 C
ATOM     54  C4  BDP B   4      10.061   7.676  14.8190  0.00  0.00     0.000 C
ATOM     55  C5  BDP B   4       9.207   8.392  15.8560  0.00  0.00     0.000 C
ATOM     56  O5  BDP B   4       8.451   7.452  16.6150  0.00  0.00     0.000 O
ATOM     57   O  BDP B   4      10.716   4.616  16.8730  0.00  0.00     0.000 O
ATOM     59  HD  BDP B   4      10.245   3.895  16.7770  0.00  0.00     0.000 HD
ATOM     59   O  BDP B   4      11.370   5.689  14.3450  0.00  0.00     0.000 O
ATOM     61  HD  BDP B   4      10.900   4.968  14.2480  0.00  0.00     0.000 HD
BRANCH 55 61
ATOM     61   C  BDP B   4       8.256   9.343  15.1510  0.00  0.00     0.000 C
ATOM     62   O  BDP B   4       7.170   8.879  14.7160  0.00  0.00     0.000 OA
ATOM     63   O  BDP B   4       8.599  10.560  15.0360  0.00  0.00     0.000 OA
ENDBRANCH 55 61
BRANCH 51 64
ATOM     64  O3  NAG B   5       8.431   5.608  18.0740  0.00  0.00     0.000 O
BRANCH 64 67
ATOM     65  C1  NAG B   5       7.896   6.057  21.6940  0.00  0.00     0.000 C
ATOM     66  C2  NAG B   5       8.567   5.600  20.4110  0.00  0.00     0.000 C
ATOM     67  C3  NAG B   5       7.892   6.253  19.2110  0.00  0.00     0.000 C
ATOM     68  C4  NAG B   5       6.373   6.036  19.2490  0.00  0.00     0.000 C
ATOM     69  C5  NAG B   5       5.806   6.435  20.6030  0.00  0.00     0.000 C
ATOM     70  O5  NAG B   5       6.519   5.759  21.6490  0.00  0.00     0.000 O
ATOM     71   O  NAG B   5       5.784   6.785  18.2080  0.00  0.00     0.000 O
ATOM     73  HD  NAG B   5       5.314   6.063  18.1170  0.00  0.00     0.000 HD
ATOM     73   C  NAG B   5       4.311   6.133  20.7760  0.00  0.00     0.000 C
ATOM     74   O  NAG B   5       4.096   4.707  20.7190  0.00  0.00     0.000 O
ATOM     76  HD  NAG B   5       3.626   3.985  20.6290  0.00  0.00     0.000 HD
BRANCH 66 78
ATOM     76   N  NAG B   5       9.984   5.900  20.6950  0.00  0.00     0.000 N
ATOM     78  HD  NAG B   5       9.519   5.224  20.4160  0.00  0.00     0.000 HD
ATOM     78   C  NAG B   5      11.035   5.133  20.3630  0.00  0.00     0.000 C
ATOM     79   C  NAG B   5      12.358   5.720  20.7740  0.00  0.00     0.000 C
ATOM     80   O  NAG B   5      10.921   4.006  19.7630  0.00  0.00     0.000 OA
ENDBRANCH 66 78
BRANCH 65 81
ATOM     81  O4  BDP B   6       8.498   5.409  22.8230  0.00  0.00     0.000 O
BRANCH 81 85
ATOM     82  C1  BDP B   6       8.875   5.927  27.0600  0.00  0.00     0.000 C
ATOM     83  C2  BDP B   6       7.621   5.227  26.5440  0.00  0.00     0.000 C
ATOM     84  C3  BDP B   6       7.766   4.732  25.1020  0.00  0.00     0.000 C
ATOM     85  C4  BDP B   6       8.255   5.839  24.1640  0.00  0.00     0.000 C
ATOM     86  C5  BDP B   6       9.501   6.492  24.8090  0.00  0.00     0.000 C
ATOM     87  O5  BDP B   6       9.226   6.972  26.1640  0.00  0.00     0.000 O
ATOM     88   O  BDP B   6       7.423   4.114  27.4110  0.00  0.00     0.000 O
ATOM     90  HD  BDP B   6       7.202   3.277  27.3840  0.00  0.00     0.000 HD
ATOM     90   O  BDP B   6       6.521   4.193  24.6520  0.00  0.00     0.000 O
ATOM     92  HD  BDP B   6       6.301   3.356  24.6240  0.00  0.00     0.000 HD
BRANCH 86 92
ATOM     92   C  BDP B   6       9.893   7.741  24.0570  0.00  0.00     0.000 C
ATOM     93   O  BDP B   6       9.280   8.827  24.2900  0.00  0.00     0.000 OA
ATOM     94   O  BDP B   6      10.850   7.650  23.2270  0.00  0.00     0.000 OA
ENDBRANCH 86 92
BRANCH 82 95
ATOM     95  O3  NAG B   7       8.569   6.523  28.3360  0.00  0.00     0.000 O
BRANCH 95 98
ATOM     96  C1  NAG B   7       9.931   6.397  31.7230  0.00  0.00     0.000 C
ATOM     97  C2  NAG B   7       8.841   6.402  30.6590  0.00  0.00     0.000 C
ATOM     98  C3  NAG B   7       9.584   6.582  29.3370  0.00  0.00     0.000 C
ATOM     99  C4  NAG B   7      10.357   7.898  29.3510  0.00  0.00     0.000 C
ATOM    100  C5  NAG B   7      11.273   7.981  30.5730  0.00  0.00     0.000 C
ATOM    101  O5  NAG B   7      10.510   7.706  31.7380  0.00  0.00     0.000 O
BRANCH 97 104
ATOM    102   N  NAG B   7       8.078   5.161  30.4670  0.00  0.00     0.000 N
ATOM    104  HD  NAG B   7       7.718   4.459  30.1080  0.00  0.00     0.000 HD
ATOM    104   O  NAG B   7       6.239   3.841  30.3900  0.00  0.00     0.000 OA
ATOM    105   C  NAG B   7       6.762   4.941  30.6530  0.00  0.00     0.000 C
ATOM    106   C  NAG B   7       5.910   6.048  31.1740  0.00  0.00     0.000 C
ENDBRANCH 97 104
ATOM    107   O  NAG B   7      12.962   9.253  31.5890  0.00  0.00     0.000 O
ATOM    109  HD  NAG B   7      12.682   8.451  31.4240  0.00  0.00     0.000 HD
ATOM    109   O  NAG B   7      12.962   9.253  31.5890  0.00  0.00     0.000 O
ATOM    111  HD  NAG B   7      12.682   8.451  31.4240  0.00  0.00     0.000 HD
ENDBRANCH 95 98
ENDBRANCH 82 95
ENDBRANCH 81 85
ENDBRANCH 65 81
ENDBRANCH 64 67
ENDBRANCH 51 64
ENDBRANCH 50 54
ENDBRANCH 34 50
ENDBRANCH 33 36
ENDBRANCH 20 33
ENDBRANCH 19 23
ENDBRANCH 1 19
TORSDOF 19
ENDMDL
MODEL 86
REMARK VINA RESULT:      -5.2      7.960     13.142
ROOT
ATOM      1  C1  NAG B   1       9.635  14.393  24.0350  0.00  0.00     0.000 C
ATOM      2  C2  NAG B   1       9.856  15.467  25.0960  0.00  0.00     0.000 C
ATOM      3  C3  NAG B   1      11.269  15.438  25.6420  0.00  0.00     0.000 C
ATOM      4  C4  NAG B   1      11.467  14.029  26.1910  0.00  0.00     0.000 C
ATOM      5  C5  NAG B   1      11.360  13.021  25.0390  0.00  0.00     0.000 C
ATOM      6  O5  NAG B   1      10.057  13.075  24.4200  0.00  0.00     0.000 O
ATOM      7   O  NAG B   1      11.475  16.428  26.6760  0.00  0.00     0.000 O
ATOM      9  HD  NAG B   1      10.924  16.828  26.1410  0.00  0.00     0.000 HD
ATOM      9   O  NAG B   1      12.738  13.919  26.8080  0.00  0.00     0.000 O
ATOM     11  HD  NAG B   1      12.187  14.320  26.2740  0.00  0.00     0.000 HD
ATOM     11   C  NAG B   1      11.691  11.612  25.5450  0.00  0.00     0.000 C
ATOM     12   O  NAG B   1      11.009  10.615  24.7840  0.00  0.00     0.000 O
ATOM     14  HD  NAG B   1      10.458  11.016  24.2500  0.00  0.00     0.000 HD
ENDROOT
BRANCH 2 16
ATOM     14   N  NAG B   1       8.642  16.245  25.4020  0.00  0.00     0.000 N
ATOM     16  HD  NAG B   1       8.325  16.844  25.9400  0.00  0.00     0.000 HD
ATOM     16   C  NAG B   1       8.472  17.522  25.0170  0.00  0.00     0.000 C
ATOM     17   C  NAG B   1       9.563  18.230  24.2600  0.00  0.00     0.000 C
ATOM     18   O  NAG B   1       7.423  18.123  25.2470  0.00  0.00     0.000 OA
ENDBRANCH 2 16
BRANCH 1 19
ATOM     19  O4  BDP B   2       8.219  14.334  23.9250  0.00  0.00     0.000 O
BRANCH 19 23
ATOM     20  C1  BDP B   2       8.157  12.728  20.1350  0.00  0.00     0.000 C
ATOM     21  C2  BDP B   2       8.239  14.237  20.2250  0.00  0.00     0.000 C
ATOM     22  C3  BDP B   2       8.673  14.681  21.6030  0.00  0.00     0.000 C
ATOM     23  C4  BDP B   2       7.744  14.042  22.6320  0.00  0.00     0.000 C
ATOM     24  C5  BDP B   2       7.753  12.537  22.4530  0.00  0.00     0.000 C
ATOM     25  O5  BDP B   2       7.307  12.212  21.1500  0.00  0.00     0.000 O
ATOM     26   O  BDP B   2       9.138  14.737  19.2590  0.00  0.00     0.000 O
ATOM     28  HD  BDP B   2       9.058  13.917  18.9900  0.00  0.00     0.000 HD
ATOM     28   O  BDP B   2       8.646  16.116  21.6690  0.00  0.00     0.000 O
ATOM     30  HD  BDP B   2       8.566  15.296  21.4010  0.00  0.00     0.000 HD
BRANCH 24 30
ATOM     30   C  BDP B   2       6.857  11.851  23.4200  0.00  0.00     0.000 C
ATOM     31   O  BDP B   2       5.631  12.099  23.3430  0.00  0.00     0.000 OA
ATOM     32   O  BDP B   2       7.373  11.067  24.2670  0.00  0.00     0.000 OA
ENDBRANCH 24 30
BRANCH 20 33
ATOM     33  O3  NAG B   3       7.570  12.493  18.8780  0.00  0.00     0.000 O
BRANCH 33 36
ATOM     34  C1  NAG B   3       8.602   9.655  16.6350  0.00  0.00     0.000 C
ATOM     35  C2  NAG B   3       8.596  11.053  17.2240  0.00  0.00     0.000 C
ATOM     36  C3  NAG B   3       7.709  11.128  18.4760  0.00  0.00     0.000 C
ATOM     37  C4  NAG B   3       6.327  10.565  18.1520  0.00  0.00     0.000 C
ATOM     38  C5  NAG B   3       6.456   9.197  17.4880  0.00  0.00     0.000 C
ATOM     39  O5  NAG B   3       7.262   9.297  16.3260  0.00  0.00     0.000 O
ATOM     40   O  NAG B   3       5.553  10.441  19.3550  0.00  0.00     0.000 O
ATOM     42  HD  NAG B   3       5.476   9.626  19.0740  0.00  0.00     0.000 HD
ATOM     42   C  NAG B   3       5.127   8.616  17.0100  0.00  0.00     0.000 C
ATOM     43   O  NAG B   3       4.598   9.432  15.9570  0.00  0.00     0.000 O
ATOM     45  HD  NAG B   3       4.521   8.616  15.6770  0.00  0.00     0.000 HD
BRANCH 35 47
ATOM     45   N  NAG B   3       9.352  12.137  16.6100  0.00  0.00     0.000 N
ATOM     47  HD  NAG B   3       8.496  12.229  16.5100  0.00  0.00     0.000 HD
ATOM     47   C  NAG B   3      10.439  12.649  17.1510  0.00  0.00     0.000 C
ATOM     48   C  NAG B   3      11.085  13.774  16.3980  0.00  0.00     0.000 C
ATOM     49   O  NAG B   3      10.885  12.246  18.2230  0.00  0.00     0.000 OA
ENDBRANCH 35 47
BRANCH 34 50
ATOM     50  O4  BDP B   4       9.359   9.795  15.4510  0.00  0.00     0.000 O
BRANCH 50 54
ATOM     51  C1  BDP B   4      12.063   7.982  13.0110  0.00  0.00     0.000 C
ATOM     52  C2  BDP B   4      10.653   7.410  12.9260  0.00  0.00     0.000 C
ATOM     53  C3  BDP B   4       9.704   8.378  13.5640  0.00  0.00     0.000 C
ATOM     54  C4  BDP B   4      10.168   8.689  15.0160  0.00  0.00     0.000 C
ATOM     55  C5  BDP B   4      11.642   9.065  15.0850  0.00  0.00     0.000 C
ATOM     56  O5  BDP B   4      12.431   8.117  14.3720  0.00  0.00     0.000 O
ATOM     57   O  BDP B   4      10.284   7.213  11.5770  0.00  0.00     0.000 O
ATOM     59  HD  BDP B   4      10.362   6.360  11.4520  0.00  0.00     0.000 HD
ATOM     59   O  BDP B   4       8.421   7.721  13.6380  0.00  0.00     0.000 O
ATOM     61  HD  BDP B   4       8.499   6.868  13.5120  0.00  0.00     0.000 HD
BRANCH 55 61
ATOM     61   C  BDP B   4      12.084   9.092  16.5370  0.00  0.00     0.000 C
ATOM     62   O  BDP B   4      11.650   8.193  17.3030  0.00  0.00     0.000 OA
ATOM     63   O  BDP B   4      12.870  10.016  16.9080  0.00  0.00     0.000 OA
ENDBRANCH 55 61
BRANCH 51 64
ATOM     64  O3  NAG B   5      12.939   7.060  12.3340  0.00  0.00     0.000 O
BRANCH 64 67
ATOM     65  C1  NAG B   5      15.738   8.134  10.1880  0.00  0.00     0.000 C
ATOM     66  C2  NAG B   5      14.317   7.768  10.5790  0.00  0.00     0.000 C
ATOM     67  C3  NAG B   5      14.221   7.606  12.0910  0.00  0.00     0.000 C
ATOM     68  C4  NAG B   5      15.295   6.641  12.6120  0.00  0.00     0.000 C
ATOM     69  C5  NAG B   5      16.669   7.035  12.0930  0.00  0.00     0.000 C
ATOM     70  O5  NAG B   5      16.635   7.156  10.6640  0.00  0.00     0.000 O
ATOM     71   O  NAG B   5      15.260   6.646  14.0230  0.00  0.00     0.000 O
ATOM     73  HD  NAG B   5      15.356   5.793  13.9080  0.00  0.00     0.000 HD
ATOM     73   C  NAG B   5      17.789   6.051  12.4600  0.00  0.00     0.000 C
ATOM     74   O  NAG B   5      17.537   4.776  11.8330  0.00  0.00     0.000 O
ATOM     76  HD  NAG B   5      17.633   3.923  11.7180  0.00  0.00     0.000 HD
BRANCH 66 78
ATOM     76   N  NAG B   5      13.554   8.830   9.8960  0.00  0.00     0.000 N
ATOM     78  HD  NAG B   5      13.525   7.967   9.9630  0.00  0.00     0.000 HD
ATOM     78   C  NAG B   5      12.368   8.681   9.2860  0.00  0.00     0.000 C
ATOM     79   C  NAG B   5      11.833   9.958   8.6960  0.00  0.00     0.000 C
ATOM     80   O  NAG B   5      11.754   7.558   9.2060  0.00  0.00     0.000 OA
ENDBRANCH 66 78
BRANCH 65 81
ATOM     81  O4  BDP B   6      15.845   8.241   8.7630  0.00  0.00     0.000 O
BRANCH 81 85
ATOM     82  C1  BDP B   6      18.201  10.228   5.7850  0.00  0.00     0.000 C
ATOM     83  C2  BDP B   6      18.816   9.015   6.4770  0.00  0.00     0.000 C
ATOM     84  C3  BDP B   6      17.777   8.152   7.1990  0.00  0.00     0.000 C
ATOM     85  C4  BDP B   6      16.893   8.981   8.1320  0.00  0.00     0.000 C
ATOM     86  C5  BDP B   6      16.361  10.193   7.3310  0.00  0.00     0.000 C
ATOM     87  O5  BDP B   6      17.446  10.971   6.7320  0.00  0.00     0.000 O
ATOM     88   O  BDP B   6      19.429   8.255   5.4390  0.00  0.00     0.000 O
ATOM     90  HD  BDP B   6      19.525   7.434   5.1810  0.00  0.00     0.000 HD
ATOM     90   O  BDP B   6      18.438   7.105   7.9150  0.00  0.00     0.000 O
ATOM     92  HD  BDP B   6      18.534   6.284   7.6560  0.00  0.00     0.000 HD
BRANCH 86 92
ATOM     92   C  BDP B   6      15.678  11.177   8.2500  0.00  0.00     0.000 C
ATOM     93   O  BDP B   6      16.216  11.471   9.3600  0.00  0.00     0.000 OA
ATOM     94   O  BDP B   6      14.587  11.692   7.8510  0.00  0.00     0.000 OA
ENDBRANCH 86 92
BRANCH 82 95
ATOM     95  O3  NAG B   7      19.270  11.071   5.3120  0.00  0.00     0.000 O
BRANCH 95 98
ATOM     96  C1  NAG B   7      19.776  12.948   2.2200  0.00  0.00     0.000 C
ATOM     97  C2  NAG B   7      20.112  11.933   3.3040  0.00  0.00     0.000 C
ATOM     98  C3  NAG B   7      18.988  12.066   4.3290  0.00  0.00     0.000 C
ATOM     99  C4  NAG B   7      18.958  13.487   4.8850  0.00  0.00     0.000 C
ATOM    100  C5  NAG B   7      18.868  14.514   3.7550  0.00  0.00     0.000 C
ATOM    101  O5  NAG B   7      19.893  14.248   2.8090  0.00  0.00     0.000 O
BRANCH 97 104
ATOM    102   N  NAG B   7      20.083  10.511   2.9370  0.00  0.00     0.000 N
ATOM    104  HD  NAG B   7      19.893   9.666   2.9200  0.00  0.00     0.000 HD
ATOM    104   O  NAG B   7      20.905   8.421   2.6380  0.00  0.00     0.000 OA
ATOM    105   C  NAG B   7      21.094   9.621   2.9180  0.00  0.00     0.000 C
ATOM    106   C  NAG B   7      22.471  10.083   3.2550  0.00  0.00     0.000 C
ENDBRANCH 97 104
ATOM    107   O  NAG B   7      18.588  16.796   3.2900  0.00  0.00     0.000 O
ATOM    109  HD  NAG B   7      18.385  15.992   3.0400  0.00  0.00     0.000 HD
ATOM    109   O  NAG B   7      18.588  16.796   3.2900  0.00  0.00     0.000 O
ATOM    111  HD  NAG B   7      18.385  15.992   3.0400  0.00  0.00     0.000 HD
ENDBRANCH 95 98
ENDBRANCH 82 95
ENDBRANCH 81 85
ENDBRANCH 65 81
ENDBRANCH 64 67
ENDBRANCH 51 64
ENDBRANCH 50 54
ENDBRANCH 34 50
ENDBRANCH 33 36
ENDBRANCH 20 33
ENDBRANCH 19 23
ENDBRANCH 1 19
TORSDOF 19
ENDMDL
MODEL 87
REMARK VINA RESULT:      -5.2      8.792     16.347
ROOT
ATOM      1  C1  NAG B   1       5.603  21.848   6.0310  0.00  0.00     0.000 C
ATOM      2  C2  NAG B   1       4.196  22.002   5.4620  0.00  0.00     0.000 C
ATOM      3  C3  NAG B   1       4.201  22.046   3.9480  0.00  0.00     0.000 C
ATOM      4  C4  NAG B   1       5.110  23.213   3.5760  0.00  0.00     0.000 C
ATOM      5  C5  NAG B   1       6.533  22.919   4.0680  0.00  0.00     0.000 C
ATOM      6  O5  NAG B   1       6.567  22.773   5.5040  0.00  0.00     0.000 O
ATOM      7   O  NAG B   1       2.875  22.231   3.4030  0.00  0.00     0.000 O
ATOM      9  HD  NAG B   1       2.722  21.745   4.1030  0.00  0.00     0.000 HD
ATOM      9   O  NAG B   1       5.116  23.398   2.1710  0.00  0.00     0.000 O
ATOM     11  HD  NAG B   1       4.964  22.911   2.8710  0.00  0.00     0.000 HD
ATOM     11   C  NAG B   1       7.490  24.015   3.5860  0.00  0.00     0.000 C
ATOM     12   O  NAG B   1       8.586  24.179   4.4860  0.00  0.00     0.000 O
ATOM     14  HD  NAG B   1       8.433  23.692   5.1860  0.00  0.00     0.000 HD
ENDROOT
BRANCH 2 16
ATOM     14   N  NAG B   1       3.331  20.932   5.9910  0.00  0.00     0.000 N
ATOM     16  HD  NAG B   1       3.179  20.454   6.6970  0.00  0.00     0.000 HD
ATOM     16   C  NAG B   1       2.277  21.167   6.7910  0.00  0.00     0.000 C
ATOM     17   C  NAG B   1       1.949  22.576   7.2090  0.00  0.00     0.000 C
ATOM     18   O  NAG B   1       1.548  20.251   7.1720  0.00  0.00     0.000 OA
ENDBRANCH 2 16
BRANCH 1 19
ATOM     19  O4  BDP B   2       5.439  22.192   7.4010  0.00  0.00     0.000 O
BRANCH 19 23
ATOM     20  C1  BDP B   2       8.809  20.497   9.0460  0.00  0.00     0.000 C
ATOM     21  C2  BDP B   2       7.785  19.539   8.4730  0.00  0.00     0.000 C
ATOM     22  C3  BDP B   2       6.827  20.251   7.5460  0.00  0.00     0.000 C
ATOM     23  C4  BDP B   2       6.226  21.439   8.2920  0.00  0.00     0.000 C
ATOM     24  C5  BDP B   2       7.340  22.328   8.8060  0.00  0.00     0.000 C
ATOM     25  O5  BDP B   2       8.168  21.591   9.6850  0.00  0.00     0.000 O
ATOM     26   O  BDP B   2       8.428  18.491   7.7800  0.00  0.00     0.000 O
ATOM     28  HD  BDP B   2       9.104  18.850   8.1860  0.00  0.00     0.000 HD
ATOM     28   O  BDP B   2       5.821  19.326   7.1040  0.00  0.00     0.000 O
ATOM     30  HD  BDP B   2       6.497  19.685   7.5090  0.00  0.00     0.000 HD
BRANCH 24 30
ATOM     30   C  BDP B   2       6.822  23.503   9.5550  0.00  0.00     0.000 C
ATOM     31   O  BDP B   2       7.002  24.634   9.0460  0.00  0.00     0.000 OA
ATOM     32   O  BDP B   2       6.240  23.303  10.6590  0.00  0.00     0.000 OA
ENDBRANCH 24 30
BRANCH 20 33
ATOM     33  O3  NAG B   3       9.490  19.731  10.0100  0.00  0.00     0.000 O
BRANCH 33 36
ATOM     34  C1  NAG B   3      13.208  19.923  10.5490  0.00  0.00     0.000 C
ATOM     35  C2  NAG B   3      11.892  19.427   9.9810  0.00  0.00     0.000 C
ATOM     36  C3  NAG B   3      10.726  20.339  10.3930  0.00  0.00     0.000 C
ATOM     37  C4  NAG B   3      10.739  20.523  11.9080  0.00  0.00     0.000 C
ATOM     38  C5  NAG B   3      12.130  20.938  12.3790  0.00  0.00     0.000 C
ATOM     39  O5  NAG B   3      13.087  19.979  11.9630  0.00  0.00     0.000 O
ATOM     40   O  NAG B   3       9.786  21.527  12.2890  0.00  0.00     0.000 O
ATOM     42  HD  NAG B   3      10.483  21.866  12.6760  0.00  0.00     0.000 HD
ATOM     42   C  NAG B   3      12.269  21.018  13.8970  0.00  0.00     0.000 C
ATOM     43   O  NAG B   3      12.121  19.709  14.4610  0.00  0.00     0.000 O
ATOM     45  HD  NAG B   3      12.818  20.048  14.8480  0.00  0.00     0.000 HD
BRANCH 35 47
ATOM     45   N  NAG B   3      11.846  18.222   9.1630  0.00  0.00     0.000 N
ATOM     47  HD  NAG B   3      11.507  18.103   9.9510  0.00  0.00     0.000 HD
ATOM     47   C  NAG B   3      11.596  18.242   7.8690  0.00  0.00     0.000 C
ATOM     48   C  NAG B   3      11.565  16.909   7.1810  0.00  0.00     0.000 C
ATOM     49   O  NAG B   3      11.373  19.289   7.2650  0.00  0.00     0.000 OA
ENDBRANCH 35 47
BRANCH 34 50
ATOM     50  O4  BDP B   4      14.131  18.922  10.1730  0.00  0.00     0.000 O
BRANCH 50 54
ATOM     51  C1  BDP B   4      17.901  18.252   8.7990  0.00  0.00     0.000 C
ATOM     52  C2  BDP B   4      17.819  18.568  10.2870  0.00  0.00     0.000 C
ATOM     53  C3  BDP B   4      16.396  18.421  10.7310  0.00  0.00     0.000 C
ATOM     54  C4  BDP B   4      15.476  19.313   9.8480  0.00  0.00     0.000 C
ATOM     55  C5  BDP B   4      15.729  19.112   8.3600  0.00  0.00     0.000 C
ATOM     56  O5  BDP B   4      17.124  19.190   8.0770  0.00  0.00     0.000 O
ATOM     57   O  BDP B   4      18.632  17.679  11.0230  0.00  0.00     0.000 O
ATOM     59  HD  BDP B   4      19.335  18.143  11.2250  0.00  0.00     0.000 HD
ATOM     59   O  BDP B   4      16.325  18.913  12.0850  0.00  0.00     0.000 O
ATOM     61  HD  BDP B   4      17.028  19.377  12.2870  0.00  0.00     0.000 HD
BRANCH 55 61
ATOM     61   C  BDP B   4      15.001  20.190   7.5780  0.00  0.00     0.000 C
ATOM     62   O  BDP B   4      14.983  21.356   8.0530  0.00  0.00     0.000 OA
ATOM     63   O  BDP B   4      14.446  19.867   6.4830  0.00  0.00     0.000 OA
ENDBRANCH 55 61
BRANCH 51 64
ATOM     64  O3  NAG B   5      19.288  18.339   8.4200  0.00  0.00     0.000 O
BRANCH 64 67
ATOM     65  C1  NAG B   5      20.655  16.141   5.7940  0.00  0.00     0.000 C
ATOM     66  C2  NAG B   5      20.162  16.566   7.1670  0.00  0.00     0.000 C
ATOM     67  C3  NAG B   5      19.513  17.941   7.0810  0.00  0.00     0.000 C
ATOM     68  C4  NAG B   5      20.446  18.950   6.3980  0.00  0.00     0.000 C
ATOM     69  C5  NAG B   5      20.960  18.398   5.0780  0.00  0.00     0.000 C
ATOM     70  O5  NAG B   5      21.547  17.105   5.2840  0.00  0.00     0.000 O
ATOM     71   O  NAG B   5      19.743  20.159   6.2080  0.00  0.00     0.000 O
ATOM     73  HD  NAG B   5      20.496  20.497   6.4690  0.00  0.00     0.000 HD
ATOM     73   C  NAG B   5      22.002  19.286   4.3830  0.00  0.00     0.000 C
ATOM     74   O  NAG B   5      23.185  19.375   5.2030  0.00  0.00     0.000 O
ATOM     76  HD  NAG B   5      23.939  19.714   5.4640  0.00  0.00     0.000 HD
BRANCH 66 78
ATOM     76   N  NAG B   5      19.320  15.423   7.5680  0.00  0.00     0.000 N
ATOM     78  HD  NAG B   5      19.987  15.869   7.8950  0.00  0.00     0.000 HD
ATOM     78   C  NAG B   5      19.283  14.859   8.7860  0.00  0.00     0.000 C
ATOM     79   C  NAG B   5      18.306  13.720   8.8900  0.00  0.00     0.000 C
ATOM     80   O  NAG B   5      20.018  15.247   9.7630  0.00  0.00     0.000 OA
ENDBRANCH 66 78
BRANCH 65 81
ATOM     81  O4  BDP B   6      21.309  14.867   5.8770  0.00  0.00     0.000 O
BRANCH 81 85
ATOM     82  C1  BDP B   6      21.920  11.416   3.4110  0.00  0.00     0.000 C
ATOM     83  C2  BDP B   6      23.020  12.474   3.4300  0.00  0.00     0.000 C
ATOM     84  C3  BDP B   6      22.904  13.433   4.6180  0.00  0.00     0.000 C
ATOM     85  C4  BDP B   6      21.501  14.035   4.7310  0.00  0.00     0.000 C
ATOM     86  C5  BDP B   6      20.479  12.875   4.6650  0.00  0.00     0.000 C
ATOM     87  O5  BDP B   6      20.655  12.060   3.4620  0.00  0.00     0.000 O
ATOM     88   O  BDP B   6      24.243  11.748   3.5220  0.00  0.00     0.000 O
ATOM     90  HD  BDP B   6      25.007  11.776   3.9300  0.00  0.00     0.000 HD
ATOM     90   O  BDP B   6      23.894  14.459   4.5050  0.00  0.00     0.000 O
ATOM     92  HD  BDP B   6      24.657  14.486   4.9130  0.00  0.00     0.000 HD
BRANCH 86 92
ATOM     92   C  BDP B   6      19.075  13.414   4.5330  0.00  0.00     0.000 C
ATOM     93   O  BDP B   6      18.727  13.991   3.4590  0.00  0.00     0.000 OA
ATOM     94   O  BDP B   6      18.286  13.241   5.5130  0.00  0.00     0.000 OA
ENDBRANCH 86 92
BRANCH 82 95
ATOM     95  O3  NAG B   7      22.001  10.699   2.1640  0.00  0.00     0.000 O
BRANCH 95 98
ATOM     96  C1  NAG B   7      22.094   7.172   1.2220  0.00  0.00     0.000 C
ATOM     97  C2  NAG B   7      22.553   8.624   1.2310  0.00  0.00     0.000 C
ATOM     98  C3  NAG B   7      21.535   9.352   2.1050  0.00  0.00     0.000 C
ATOM     99  C4  NAG B   7      20.139   9.211   1.5040  0.00  0.00     0.000 C
ATOM    100  C5  NAG B   7      19.791   7.740   1.2710  0.00  0.00     0.000 C
ATOM    101  O5  NAG B   7      20.839   7.130   0.5340  0.00  0.00     0.000 O
BRANCH 97 104
ATOM    102   N  NAG B   7      23.841   8.926   1.8700  0.00  0.00     0.000 N
ATOM    104  HD  NAG B   7      24.447   9.267   2.3870  0.00  0.00     0.000 HD
ATOM    104   O  NAG B   7      25.973   9.680   1.9990  0.00  0.00     0.000 OA
ATOM    105   C  NAG B   7      24.966   9.415   1.3140  0.00  0.00     0.000 C
ATOM    106   C  NAG B   7      25.001   9.657  -0.1570  0.00  0.00     0.000 C
ENDBRANCH 97 104
ATOM    107   O  NAG B   7      18.065   6.281   0.6400  0.00  0.00     0.000 O
ATOM    109  HD  NAG B   7      18.737   6.394   1.1740  0.00  0.00     0.000 HD
ATOM    109   O  NAG B   7      18.065   6.281   0.6400  0.00  0.00     0.000 O
ATOM    111  HD  NAG B   7      18.737   6.394   1.1740  0.00  0.00     0.000 HD
ENDBRANCH 95 98
ENDBRANCH 82 95
ENDBRANCH 81 85
ENDBRANCH 65 81
ENDBRANCH 64 67
ENDBRANCH 51 64
ENDBRANCH 50 54
ENDBRANCH 34 50
ENDBRANCH 33 36
ENDBRANCH 20 33
ENDBRANCH 19 23
ENDBRANCH 1 19
TORSDOF 19
ENDMDL
MODEL 88
REMARK VINA RESULT:      -5.2      7.179     15.248
ROOT
ATOM      1  C1  NAG B   1      15.196  13.878   7.1780  0.00  0.00     0.000 C
ATOM      2  C2  NAG B   1      15.601  15.340   7.0090  0.00  0.00     0.000 C
ATOM      3  C3  NAG B   1      16.736  15.500   6.0180  0.00  0.00     0.000 C
ATOM      4  C4  NAG B   1      17.874  14.640   6.5580  0.00  0.00     0.000 C
ATOM      5  C5  NAG B   1      17.432  13.171   6.5710  0.00  0.00     0.000 C
ATOM      6  O5  NAG B   1      16.288  12.980   7.4310  0.00  0.00     0.000 O
ATOM      7   O  NAG B   1      17.151  16.878   5.8820  0.00  0.00     0.000 O
ATOM      9  HD  NAG B   1      16.297  16.952   6.0090  0.00  0.00     0.000 HD
ATOM      9   O  NAG B   1      19.025  14.787   5.7440  0.00  0.00     0.000 O
ATOM     11  HD  NAG B   1      18.172  14.861   5.8700  0.00  0.00     0.000 HD
ATOM     11   C  NAG B   1      18.607  12.274   6.9800  0.00  0.00     0.000 C
ATOM     12   O  NAG B   1      18.151  11.088   7.6290  0.00  0.00     0.000 O
ATOM     14  HD  NAG B   1      17.297  11.161   7.7550  0.00  0.00     0.000 HD
ENDROOT
BRANCH 2 16
ATOM     14   N  NAG B   1      14.890  16.296   7.8760  0.00  0.00     0.000 N
ATOM     16  HD  NAG B   1      14.853  17.133   8.0940  0.00  0.00     0.000 HD
ATOM     16   C  NAG B   1      13.908  17.100   7.4320  0.00  0.00     0.000 C
ATOM     17   C  NAG B   1      13.509  17.068   5.9810  0.00  0.00     0.000 C
ATOM     18   O  NAG B   1      13.303  17.850   8.1970  0.00  0.00     0.000 OA
ENDBRANCH 2 16
BRANCH 1 19
ATOM     19  O4  BDP B   2      14.418  13.893   8.3670  0.00  0.00     0.000 O
BRANCH 19 23
ATOM     20  C1  BDP B   2      13.624  11.210  11.3860  0.00  0.00     0.000 C
ATOM     21  C2  BDP B   2      14.947  11.943  11.4680  0.00  0.00     0.000 C
ATOM     22  C3  BDP B   2      14.950  13.168  10.5820  0.00  0.00     0.000 C
ATOM     23  C4  BDP B   2      14.554  12.745   9.1700  0.00  0.00     0.000 C
ATOM     24  C5  BDP B   2      13.215  12.036   9.2130  0.00  0.00     0.000 C
ATOM     25  O5  BDP B   2      13.312  10.890  10.0380  0.00  0.00     0.000 O
ATOM     26   O  BDP B   2      15.217  12.319  12.8010  0.00  0.00     0.000 O
ATOM     28  HD  BDP B   2      14.550  11.780  12.9210  0.00  0.00     0.000 HD
ATOM     28   O  BDP B   2      16.251  13.776  10.6190  0.00  0.00     0.000 O
ATOM     30  HD  BDP B   2      15.584  13.237  10.7390  0.00  0.00     0.000 HD
BRANCH 24 30
ATOM     30   C  BDP B   2      12.775  11.585   7.8670  0.00  0.00     0.000 C
ATOM     31   O  BDP B   2      11.832  12.212   7.3310  0.00  0.00     0.000 OA
ATOM     32   O  BDP B   2      13.363  10.597   7.3410  0.00  0.00     0.000 OA
ENDBRANCH 24 30
BRANCH 20 33
ATOM     33  O3  NAG B   3      13.849  10.021  12.1030  0.00  0.00     0.000 O
BRANCH 33 36
ATOM     34  C1  NAG B   3      10.984   8.244  13.7720  0.00  0.00     0.000 C
ATOM     35  C2  NAG B   3      12.106   9.250  13.5960  0.00  0.00     0.000 C
ATOM     36  C3  NAG B   3      12.672   9.212  12.1690  0.00  0.00     0.000 C
ATOM     37  C4  NAG B   3      13.040   7.775  11.8090  0.00  0.00     0.000 C
ATOM     38  C5  NAG B   3      11.870   6.839  12.1040  0.00  0.00     0.000 C
ATOM     39  O5  NAG B   3      11.492   6.954  13.4650  0.00  0.00     0.000 O
ATOM     40   O  NAG B   3      13.380   7.689  10.4160  0.00  0.00     0.000 O
ATOM     42  HD  NAG B   3      12.772   7.073  10.4330  0.00  0.00     0.000 HD
ATOM     42   C  NAG B   3      12.194   5.362  11.8960  0.00  0.00     0.000 C
ATOM     43   O  NAG B   3      13.180   4.949  12.8500  0.00  0.00     0.000 O
ATOM     45  HD  NAG B   3      12.572   4.332  12.8670  0.00  0.00     0.000 HD
BRANCH 35 47
ATOM     45   N  NAG B   3      11.565  10.497  14.1230  0.00  0.00     0.000 N
ATOM     47  HD  NAG B   3      11.022   9.829  14.2230  0.00  0.00     0.000 HD
ATOM     47   C  NAG B   3      12.304  11.394  14.7430  0.00  0.00     0.000 C
ATOM     48   C  NAG B   3      11.586  12.613  15.2410  0.00  0.00     0.000 C
ATOM     49   O  NAG B   3      13.508  11.230  14.9280  0.00  0.00     0.000 OA
ENDBRANCH 35 47
BRANCH 34 50
ATOM     50  O4  BDP B   4      10.666   8.335  15.1450  0.00  0.00     0.000 O
BRANCH 50 54
ATOM     51  C1  BDP B   4       7.601   8.025  17.8020  0.00  0.00     0.000 C
ATOM     52  C2  BDP B   4       8.374   6.731  17.5770  0.00  0.00     0.000 C
ATOM     53  C3  BDP B   4       9.667   7.058  16.8950  0.00  0.00     0.000 C
ATOM     54  C4  BDP B   4       9.386   7.856  15.5890  0.00  0.00     0.000 C
ATOM     55  C5  BDP B   4       8.444   9.030  15.8200  0.00  0.00     0.000 C
ATOM     56  O5  BDP B   4       7.294   8.611  16.5500  0.00  0.00     0.000 O
ATOM     57   O  BDP B   4       8.643   6.100  18.8110  0.00  0.00     0.000 O
ATOM     59  HD  BDP B   4       8.072   5.450  18.8520  0.00  0.00     0.000 HD
ATOM     59   O  BDP B   4      10.277   5.804  16.5270  0.00  0.00     0.000 O
ATOM     61  HD  BDP B   4       9.706   5.155  16.5690  0.00  0.00     0.000 HD
BRANCH 55 61
ATOM     61   C  BDP B   4       8.006   9.592  14.4790  0.00  0.00     0.000 C
ATOM     62   O  BDP B   4       8.553  10.652  14.0750  0.00  0.00     0.000 OA
ATOM     63   O  BDP B   4       7.114   8.967  13.8280  0.00  0.00     0.000 OA
ENDBRANCH 55 61
BRANCH 51 64
ATOM     64  O3  NAG B   5       6.396   7.684  18.5150  0.00  0.00     0.000 O
BRANCH 64 67
ATOM     65  C1  NAG B   5       4.472  10.236  20.3540  0.00  0.00     0.000 C
ATOM     66  C2  NAG B   5       5.565   9.219  20.0750  0.00  0.00     0.000 C
ATOM     67  C3  NAG B   5       5.499   8.772  18.6200  0.00  0.00     0.000 C
ATOM     68  C4  NAG B   5       4.084   8.306  18.2510  0.00  0.00     0.000 C
ATOM     69  C5  NAG B   5       3.053   9.348  18.6510  0.00  0.00     0.000 C
ATOM     70  O5  NAG B   5       3.213   9.688  20.0360  0.00  0.00     0.000 O
ATOM     71   O  NAG B   5       4.041   8.050  16.8630  0.00  0.00     0.000 O
ATOM     73  HD  NAG B   5       3.587   7.361  17.1260  0.00  0.00     0.000 HD
ATOM     73   C  NAG B   5       1.597   8.913  18.4350  0.00  0.00     0.000 C
ATOM     74   O  NAG B   5       1.297   7.787  19.2870  0.00  0.00     0.000 O
ATOM     76  HD  NAG B   5       0.843   7.098  19.5510  0.00  0.00     0.000 HD
BRANCH 66 78
ATOM     76   N  NAG B   5       6.685   9.944  20.7050  0.00  0.00     0.000 N
ATOM     78  HD  NAG B   5       6.414   9.124  20.6390  0.00  0.00     0.000 HD
ATOM     78   C  NAG B   5       7.785   9.388  21.2380  0.00  0.00     0.000 C
ATOM     79   C  NAG B   5       8.759  10.394  21.7890  0.00  0.00     0.000 C
ATOM     80   O  NAG B   5       7.982   8.121  21.2810  0.00  0.00     0.000 OA
ENDBRANCH 66 78
BRANCH 65 81
ATOM     81  O4  BDP B   6       4.501  10.624  21.7330  0.00  0.00     0.000 O
BRANCH 81 85
ATOM     82  C1  BDP B   6       3.716  14.117  24.0890  0.00  0.00     0.000 C
ATOM     83  C2  BDP B   6       2.595  13.090  23.9550  0.00  0.00     0.000 C
ATOM     84  C3  BDP B   6       3.091  11.729  23.4590  0.00  0.00     0.000 C
ATOM     85  C4  BDP B   6       3.934  11.855  22.1890  0.00  0.00     0.000 C
ATOM     86  C5  BDP B   6       5.006  12.943  22.4350  0.00  0.00     0.000 C
ATOM     87  O5  BDP B   6       4.409  14.213  22.8530  0.00  0.00     0.000 O
ATOM     88   O  BDP B   6       2.048  12.951  25.2630  0.00  0.00     0.000 O
ATOM     90  HD  BDP B   6       1.762  12.340  25.8050  0.00  0.00     0.000 HD
ATOM     90   O  BDP B   6       1.976  10.859  23.2500  0.00  0.00     0.000 O
ATOM     92  HD  BDP B   6       1.689  10.248  23.7920  0.00  0.00     0.000 HD
BRANCH 86 92
ATOM     92   C  BDP B   6       5.718  13.286  21.1490  0.00  0.00     0.000 C
ATOM     93   O  BDP B   6       5.061  13.787  20.1860  0.00  0.00     0.000 OA
ATOM     94   O  BDP B   6       6.969  13.074  21.0970  0.00  0.00     0.000 OA
ENDBRANCH 86 92
BRANCH 82 95
ATOM     95  O3  NAG B   7       3.124  15.402  24.3640  0.00  0.00     0.000 O
BRANCH 95 98
ATOM     96  C1  NAG B   7       3.635  18.053  26.8240  0.00  0.00     0.000 C
ATOM     97  C2  NAG B   7       2.832  17.071  25.9800  0.00  0.00     0.000 C
ATOM     98  C3  NAG B   7       3.868  16.365  25.1080  0.00  0.00     0.000 C
ATOM     99  C4  NAG B   7       4.596  17.386  24.2370  0.00  0.00     0.000 C
ATOM    100  C5  NAG B   7       5.190  18.507  25.0910  0.00  0.00     0.000 C
ATOM    101  O5  NAG B   7       4.174  19.034  25.9300  0.00  0.00     0.000 O
BRANCH 97 104
ATOM    102   N  NAG B   7       2.141  16.019  26.7370  0.00  0.00     0.000 N
ATOM    104  HD  NAG B   7       1.911  15.249  27.0590  0.00  0.00     0.000 HD
ATOM    104   O  NAG B   7       0.407  14.701  27.3590  0.00  0.00     0.000 OA
ATOM    105   C  NAG B   7       0.843  15.663  26.6960  0.00  0.00     0.000 C
ATOM    106   C  NAG B   7      -0.092  16.430  25.8250  0.00  0.00     0.000 C
ENDBRANCH 97 104
ATOM    107   O  NAG B   7       6.568  20.405  25.0270  0.00  0.00     0.000 O
ATOM    109  HD  NAG B   7       6.348  19.705  25.4870  0.00  0.00     0.000 HD
ATOM    109   O  NAG B   7       6.568  20.405  25.0270  0.00  0.00     0.000 O
ATOM    111  HD  NAG B   7       6.348  19.705  25.4870  0.00  0.00     0.000 HD
ENDBRANCH 95 98
ENDBRANCH 82 95
ENDBRANCH 81 85
ENDBRANCH 65 81
ENDBRANCH 64 67
ENDBRANCH 51 64
ENDBRANCH 50 54
ENDBRANCH 34 50
ENDBRANCH 33 36
ENDBRANCH 20 33
ENDBRANCH 19 23
ENDBRANCH 1 19
TORSDOF 19
ENDMDL
MODEL 89
REMARK VINA RESULT:      -5.2      9.966     15.592
ROOT
ATOM      1  C1  NAG B   1      10.535   9.438  11.8620  0.00  0.00     0.000 C
ATOM      2  C2  NAG B   1      10.522   7.944  12.1740  0.00  0.00     0.000 C
ATOM      3  C3  NAG B   1       9.253   7.528  12.8890  0.00  0.00     0.000 C
ATOM      4  C4  NAG B   1       9.194   8.385  14.1490  0.00  0.00     0.000 C
ATOM      5  C5  NAG B   1       9.076   9.862  13.7480  0.00  0.00     0.000 C
ATOM      6  O5  NAG B   1      10.222  10.285  12.9790  0.00  0.00     0.000 O
ATOM      7   O  NAG B   1       9.250   6.121  13.2210  0.00  0.00     0.000 O
ATOM      9  HD  NAG B   1       9.673   6.134  12.4660  0.00  0.00     0.000 HD
ATOM      9   O  NAG B   1       8.079   8.012  14.9420  0.00  0.00     0.000 O
ATOM     11  HD  NAG B   1       8.502   8.025  14.1860  0.00  0.00     0.000 HD
ATOM     11   C  NAG B   1       8.878  10.729  14.9980  0.00  0.00     0.000 C
ATOM     12   O  NAG B   1       9.403  12.041  14.8050  0.00  0.00     0.000 O
ATOM     14  HD  NAG B   1       9.826  12.054  14.0490  0.00  0.00     0.000 HD
ENDROOT
BRANCH 2 16
ATOM     14   N  NAG B   1      10.921   7.397  10.8650  0.00  0.00     0.000 N
ATOM     16  HD  NAG B   1      11.543   7.433  10.2630  0.00  0.00     0.000 HD
ATOM     16   C  NAG B   1      11.829   6.415  10.7250  0.00  0.00     0.000 C
ATOM     17   C  NAG B   1      12.510   5.842  11.9400  0.00  0.00     0.000 C
ATOM     18   O  NAG B   1      12.100   5.949   9.6190  0.00  0.00     0.000 OA
ENDBRANCH 2 16
BRANCH 1 19
ATOM     19  O4  BDP B   2      11.898   9.692  11.5500  0.00  0.00     0.000 O
BRANCH 19 23
ATOM     20  C1  BDP B   2      14.018  12.787   9.8550  0.00  0.00     0.000 C
ATOM     21  C2  BDP B   2      13.378  13.065  11.2000  0.00  0.00     0.000 C
ATOM     22  C3  BDP B   2      13.003  11.782  11.9050  0.00  0.00     0.000 C
ATOM     23  C4  BDP B   2      12.141  10.947  10.9620  0.00  0.00     0.000 C
ATOM     24  C5  BDP B   2      12.886  10.725   9.6610  0.00  0.00     0.000 C
ATOM     25  O5  BDP B   2      13.169  11.973   9.0580  0.00  0.00     0.000 O
ATOM     26   O  BDP B   2      14.255  13.816  12.0120  0.00  0.00     0.000 O
ATOM     28  HD  BDP B   2      14.658  13.877  11.2480  0.00  0.00     0.000 HD
ATOM     28   O  BDP B   2      12.318  12.096  13.1270  0.00  0.00     0.000 O
ATOM     30  HD  BDP B   2      12.721  12.157  12.3630  0.00  0.00     0.000 HD
BRANCH 24 30
ATOM     30   C  BDP B   2      12.094   9.925   8.6890  0.00  0.00     0.000 C
ATOM     31   O  BDP B   2      12.564   8.819   8.3380  0.00  0.00     0.000 OA
ATOM     32   O  BDP B   2      11.003  10.402   8.2660  0.00  0.00     0.000 OA
ENDBRANCH 24 30
BRANCH 20 33
ATOM     33  O3  NAG B   3      14.131  14.057   9.2620  0.00  0.00     0.000 O
BRANCH 33 36
ATOM     34  C1  NAG B   3      16.982  14.746   6.9070  0.00  0.00     0.000 C
ATOM     35  C2  NAG B   3      16.256  14.586   8.2290  0.00  0.00     0.000 C
ATOM     36  C3  NAG B   3      14.849  14.003   8.0270  0.00  0.00     0.000 C
ATOM     37  C4  NAG B   3      14.103  14.831   6.9840  0.00  0.00     0.000 C
ATOM     38  C5  NAG B   3      14.959  15.000   5.7310  0.00  0.00     0.000 C
ATOM     39  O5  NAG B   3      16.203  15.589   6.0710  0.00  0.00     0.000 O
ATOM     40   O  NAG B   3      12.868  14.186   6.6360  0.00  0.00     0.000 O
ATOM     42  HD  NAG B   3      13.194  14.267   5.8380  0.00  0.00     0.000 HD
ATOM     42   C  NAG B   3      14.344  15.926   4.6840  0.00  0.00     0.000 C
ATOM     43   O  NAG B   3      14.277  17.259   5.2050  0.00  0.00     0.000 O
ATOM     45  HD  NAG B   3      14.603  17.340   4.4060  0.00  0.00     0.000 HD
BRANCH 35 47
ATOM     45   N  NAG B   3      17.121  13.811   9.1100  0.00  0.00     0.000 N
ATOM     47  HD  NAG B   3      17.447  13.896   8.3130  0.00  0.00     0.000 HD
ATOM     47   C  NAG B   3      17.289  14.100  10.3850  0.00  0.00     0.000 C
ATOM     48   C  NAG B   3      18.230  13.213  11.1450  0.00  0.00     0.000 C
ATOM     49   O  NAG B   3      16.729  15.057  10.9160  0.00  0.00     0.000 OA
ENDBRANCH 35 47
BRANCH 34 50
ATOM     50  O4  BDP B   4      18.189  15.388   7.2650  0.00  0.00     0.000 O
BRANCH 50 54
ATOM     51  C1  BDP B   4      22.096  15.876   6.2400  0.00  0.00     0.000 C
ATOM     52  C2  BDP B   4      21.122  16.739   5.4460  0.00  0.00     0.000 C
ATOM     53  C3  BDP B   4      19.802  16.749   6.1550  0.00  0.00     0.000 C
ATOM     54  C4  BDP B   4      19.312  15.289   6.3730  0.00  0.00     0.000 C
ATOM     55  C5  BDP B   4      20.387  14.403   6.9890  0.00  0.00     0.000 C
ATOM     56  O5  BDP B   4      21.615  14.545   6.2800  0.00  0.00     0.000 O
ATOM     57   O  BDP B   4      21.608  18.061   5.3450  0.00  0.00     0.000 O
ATOM     59  HD  BDP B   4      21.918  18.118   4.5380  0.00  0.00     0.000 HD
ATOM     59   O  BDP B   4      18.862  17.408   5.2830  0.00  0.00     0.000 O
ATOM     61  HD  BDP B   4      19.171  17.466   4.4760  0.00  0.00     0.000 HD
BRANCH 55 61
ATOM     61   C  BDP B   4      19.938  12.954   6.9250  0.00  0.00     0.000 C
ATOM     62   O  BDP B   4      19.931  12.387   5.8010  0.00  0.00     0.000 OA
ATOM     63   O  BDP B   4      19.595  12.383   8.0050  0.00  0.00     0.000 OA
ENDBRANCH 55 61
BRANCH 51 64
ATOM     64  O3  NAG B   5      23.369  15.940   5.5680  0.00  0.00     0.000 O
BRANCH 64 67
ATOM     65  C1  NAG B   5      26.558  16.018   7.4160  0.00  0.00     0.000 C
ATOM     66  C2  NAG B   5      25.278  16.536   6.7830  0.00  0.00     0.000 C
ATOM     67  C3  NAG B   5      24.414  15.367   6.3290  0.00  0.00     0.000 C
ATOM     68  C4  NAG B   5      25.216  14.399   5.4470  0.00  0.00     0.000 C
ATOM     69  C5  NAG B   5      26.520  14.010   6.1240  0.00  0.00     0.000 C
ATOM     70  O5  NAG B   5      27.244  15.189   6.5050  0.00  0.00     0.000 O
ATOM     71   O  NAG B   5      24.419  13.265   5.1810  0.00  0.00     0.000 O
ATOM     73  HD  NAG B   5      24.751  13.367   4.3880  0.00  0.00     0.000 HD
ATOM     73   C  NAG B   5      27.447  13.144   5.2600  0.00  0.00     0.000 C
ATOM     74   O  NAG B   5      27.871  13.894   4.1030  0.00  0.00     0.000 O
ATOM     76  HD  NAG B   5      28.203  13.996   3.3090  0.00  0.00     0.000 HD
BRANCH 66 78
ATOM     76   N  NAG B   5      24.750  17.430   7.8310  0.00  0.00     0.000 N
ATOM     78  HD  NAG B   5      24.940  17.480   6.9880  0.00  0.00     0.000 HD
ATOM     78   C  NAG B   5      24.201  18.639   7.6350  0.00  0.00     0.000 C
ATOM     79   C  NAG B   5      23.737  19.301   8.9040  0.00  0.00     0.000 C
ATOM     80   O  NAG B   5      24.090  19.181   6.4770  0.00  0.00     0.000 OA
ENDBRANCH 66 78
BRANCH 65 81
ATOM     81  O4  BDP B   6      27.396  17.114   7.8040  0.00  0.00     0.000 O
BRANCH 81 85
ATOM     82  C1  BDP B   6      30.617  17.958  10.5010  0.00  0.00     0.000 C
ATOM     83  C2  BDP B   6      30.974  17.375   9.1360  0.00  0.00     0.000 C
ATOM     84  C3  BDP B   6      29.833  17.494   8.1220  0.00  0.00     0.000 C
ATOM     85  C4  BDP B   6      28.517  16.945   8.6740  0.00  0.00     0.000 C
ATOM     86  C5  BDP B   6      28.284  17.579  10.0670  0.00  0.00     0.000 C
ATOM     87  O5  BDP B   6      29.418  17.355  10.9650  0.00  0.00     0.000 O
ATOM     88   O  BDP B   6      32.096  18.128   8.6820  0.00  0.00     0.000 O
ATOM     90  HD  BDP B   6      32.405  18.497   7.9620  0.00  0.00     0.000 HD
ATOM     90   O  BDP B   6      30.198  16.828   6.9100  0.00  0.00     0.000 O
ATOM     92  HD  BDP B   6      30.506  17.198   6.1900  0.00  0.00     0.000 HD
BRANCH 86 92
ATOM     92   C  BDP B   6      27.130  16.905  10.7690  0.00  0.00     0.000 C
ATOM     93   O  BDP B   6      25.989  17.458  10.7670  0.00  0.00     0.000 OA
ATOM     94   O  BDP B   6      27.355  15.784  11.3220  0.00  0.00     0.000 OA
ENDBRANCH 86 92
BRANCH 82 95
ATOM     95  O3  NAG B   7      31.669  17.621  11.4270  0.00  0.00     0.000 O
BRANCH 95 98
ATOM     96  C1  NAG B   7      33.887  19.423  13.7010  0.00  0.00     0.000 C
ATOM     97  C2  NAG B   7      33.515  18.391  12.6450  0.00  0.00     0.000 C
ATOM     98  C3  NAG B   7      32.006  18.544  12.4610  0.00  0.00     0.000 C
ATOM     99  C4  NAG B   7      31.292  18.273  13.7830  0.00  0.00     0.000 C
ATOM    100  C5  NAG B   7      31.856  19.154  14.8990  0.00  0.00     0.000 C
ATOM    101  O5  NAG B   7      33.269  19.014  14.9260  0.00  0.00     0.000 O
BRANCH 97 104
ATOM    102   N  NAG B   7      34.057  18.583  11.2920  0.00  0.00     0.000 N
ATOM    104  HD  NAG B   7      34.119  18.693  10.4360  0.00  0.00     0.000 HD
ATOM    104   O  NAG B   7      35.225  18.056   9.4250  0.00  0.00     0.000 OA
ATOM    105   C  NAG B   7      34.895  17.791  10.5980  0.00  0.00     0.000 C
ATOM    106   C  NAG B   7      35.430  16.559  11.2450  0.00  0.00     0.000 C
ENDBRANCH 97 104
ATOM    107   O  NAG B   7      31.555  19.799  17.1340  0.00  0.00     0.000 O
ATOM    109  HD  NAG B   7      31.769  20.073  16.3410  0.00  0.00     0.000 HD
ATOM    109   O  NAG B   7      31.555  19.799  17.1340  0.00  0.00     0.000 O
ATOM    111  HD  NAG B   7      31.769  20.073  16.3410  0.00  0.00     0.000 HD
ENDBRANCH 95 98
ENDBRANCH 82 95
ENDBRANCH 81 85
ENDBRANCH 65 81
ENDBRANCH 64 67
ENDBRANCH 51 64
ENDBRANCH 50 54
ENDBRANCH 34 50
ENDBRANCH 33 36
ENDBRANCH 20 33
ENDBRANCH 19 23
ENDBRANCH 1 19
TORSDOF 19
ENDMDL
MODEL 90
REMARK VINA RESULT:      -5.2      7.459     10.759
ROOT
ATOM      1  C1  NAG B   1      18.452   3.684   5.5250  0.00  0.00     0.000 C
ATOM      2  C2  NAG B   1      17.968   2.316   5.0540  0.00  0.00     0.000 C
ATOM      3  C3  NAG B   1      17.832   1.339   6.2040  0.00  0.00     0.000 C
ATOM      4  C4  NAG B   1      19.212   1.277   6.8520  0.00  0.00     0.000 C
ATOM      5  C5  NAG B   1      19.566   2.659   7.4150  0.00  0.00     0.000 C
ATOM      6  O5  NAG B   1      19.615   3.651   6.3670  0.00  0.00     0.000 O
ATOM      7   O  NAG B   1      17.412   0.029   5.7610  0.00  0.00     0.000 O
ATOM      9  HD  NAG B   1      16.990   0.554   5.2170  0.00  0.00     0.000 HD
ATOM      9   O  NAG B   1      19.218   0.317   7.8960  0.00  0.00     0.000 O
ATOM     11  HD  NAG B   1      18.797   0.843   7.3520  0.00  0.00     0.000 HD
ATOM     11   C  NAG B   1      20.888   2.586   8.1900  0.00  0.00     0.000 C
ATOM     12   O  NAG B   1      21.576   3.835   8.1590  0.00  0.00     0.000 O
ATOM     14  HD  NAG B   1      21.155   4.361   7.6150  0.00  0.00     0.000 HD
ENDROOT
BRANCH 2 16
ATOM     14   N  NAG B   1      16.686   2.281   4.3280  0.00  0.00     0.000 N
ATOM     16  HD  NAG B   1      16.141   2.772   3.8680  0.00  0.00     0.000 HD
ATOM     16   C  NAG B   1      16.602   2.182   2.9900  0.00  0.00     0.000 C
ATOM     17   C  NAG B   1      17.858   2.128   2.1600  0.00  0.00     0.000 C
ATOM     18   O  NAG B   1      15.513   2.105   2.4230  0.00  0.00     0.000 OA
ENDBRANCH 2 16
BRANCH 1 19
ATOM     19  O4  BDP B   2      18.860   4.316   4.3190  0.00  0.00     0.000 O
BRANCH 19 23
ATOM     20  C1  BDP B   2      17.905   8.096   5.6370  0.00  0.00     0.000 C
ATOM     21  C2  BDP B   2      16.894   7.423   4.7320  0.00  0.00     0.000 C
ATOM     22  C3  BDP B   2      17.132   5.932   4.6570  0.00  0.00     0.000 C
ATOM     23  C4  BDP B   2      18.586   5.695   4.2580  0.00  0.00     0.000 C
ATOM     24  C5  BDP B   2      19.500   6.403   5.2390  0.00  0.00     0.000 C
ATOM     25  O5  BDP B   2      19.229   7.791   5.2220  0.00  0.00     0.000 O
ATOM     26   O  BDP B   2      15.583   7.673   5.1910  0.00  0.00     0.000 O
ATOM     28  HD  BDP B   2      16.029   8.236   5.6760  0.00  0.00     0.000 HD
ATOM     28   O  BDP B   2      16.213   5.353   3.7180  0.00  0.00     0.000 O
ATOM     30  HD  BDP B   2      16.659   5.915   4.2020  0.00  0.00     0.000 HD
BRANCH 24 30
ATOM     30   C  BDP B   2      20.936   6.221   4.9000  0.00  0.00     0.000 C
ATOM     31   O  BDP B   2      21.279   6.439   3.7160  0.00  0.00     0.000 OA
ATOM     32   O  BDP B   2      21.727   5.851   5.8140  0.00  0.00     0.000 OA
ENDBRANCH 24 30
BRANCH 20 33
ATOM     33  O3  NAG B   3      17.667   9.470   5.4520  0.00  0.00     0.000 O
BRANCH 33 36
ATOM     34  C1  NAG B   3      17.799  11.945   8.2820  0.00  0.00     0.000 C
ATOM     35  C2  NAG B   3      17.199  10.936   7.3220  0.00  0.00     0.000 C
ATOM     36  C3  NAG B   3      18.285  10.257   6.4730  0.00  0.00     0.000 C
ATOM     37  C4  NAG B   3      19.155  11.325   5.8160  0.00  0.00     0.000 C
ATOM     38  C5  NAG B   3      19.633  12.333   6.8570  0.00  0.00     0.000 C
ATOM     39  O5  NAG B   3      18.520  12.905   7.5230  0.00  0.00     0.000 O
ATOM     40   O  NAG B   3      20.291  10.714   5.1850  0.00  0.00     0.000 O
ATOM     42  HD  NAG B   3      20.716  11.286   5.6780  0.00  0.00     0.000 HD
ATOM     42   C  NAG B   3      20.403  13.512   6.2670  0.00  0.00     0.000 C
ATOM     43   O  NAG B   3      19.526  14.295   5.4480  0.00  0.00     0.000 O
ATOM     45  HD  NAG B   3      19.951  14.866   5.9400  0.00  0.00     0.000 HD
BRANCH 35 47
ATOM     45   N  NAG B   3      15.756  10.728   7.3110  0.00  0.00     0.000 N
ATOM     47  HD  NAG B   3      16.033  11.182   6.6270  0.00  0.00     0.000 HD
ATOM     47   C  NAG B   3      15.190   9.606   7.7080  0.00  0.00     0.000 C
ATOM     48   C  NAG B   3      13.694   9.550   7.6120  0.00  0.00     0.000 C
ATOM     49   O  NAG B   3      15.850   8.649   8.1080  0.00  0.00     0.000 OA
ENDBRANCH 35 47
BRANCH 34 50
ATOM     50  O4  BDP B   4      16.671  12.542   8.8870  0.00  0.00     0.000 O
BRANCH 50 54
ATOM     51  C1  BDP B   4      15.074  13.775  12.4200  0.00  0.00     0.000 C
ATOM     52  C2  BDP B   4      16.136  14.706  11.8470  0.00  0.00     0.000 C
ATOM     53  C3  BDP B   4      16.361  14.351  10.4100  0.00  0.00     0.000 C
ATOM     54  C4  BDP B   4      16.721  12.842  10.2920  0.00  0.00     0.000 C
ATOM     55  C5  BDP B   4      15.743  11.953  11.0470  0.00  0.00     0.000 C
ATOM     56  O5  BDP B   4      15.547  12.441  12.3720  0.00  0.00     0.000 O
ATOM     57   O  BDP B   4      15.709  16.049  11.9360  0.00  0.00     0.000 O
ATOM     59  HD  BDP B   4      16.150  16.375  12.6060  0.00  0.00     0.000 HD
ATOM     59   O  BDP B   4      17.498  15.116   9.9610  0.00  0.00     0.000 O
ATOM     61  HD  BDP B   4      17.940  15.442  10.6310  0.00  0.00     0.000 HD
BRANCH 55 61
ATOM     61   C  BDP B   4      16.298  10.541  11.1130  0.00  0.00     0.000 C
ATOM     62   O  BDP B   4      15.480   9.584  11.1200  0.00  0.00     0.000 OA
ATOM     63   O  BDP B   4      17.557  10.392  11.1550  0.00  0.00     0.000 OA
ENDBRANCH 55 61
BRANCH 51 64
ATOM     64  O3  NAG B   5      14.835  14.184  13.7800  0.00  0.00     0.000 O
BRANCH 64 67
ATOM     65  C1  NAG B   5      11.831  15.264  15.6250  0.00  0.00     0.000 C
ATOM     66  C2  NAG B   5      13.213  15.349  15.0000  0.00  0.00     0.000 C
ATOM     67  C3  NAG B   5      13.467  14.122  14.1350  0.00  0.00     0.000 C
ATOM     68  C4  NAG B   5      13.201  12.830  14.9200  0.00  0.00     0.000 C
ATOM     69  C5  NAG B   5      11.835  12.876  15.5840  0.00  0.00     0.000 C
ATOM     70  O5  NAG B   5      11.713  14.072  16.3690  0.00  0.00     0.000 O
ATOM     71   O  NAG B   5      13.303  11.735  14.0350  0.00  0.00     0.000 O
ATOM     73  HD  NAG B   5      13.723  11.386  14.7070  0.00  0.00     0.000 HD
ATOM     73   C  NAG B   5      11.534  11.679  16.4970  0.00  0.00     0.000 C
ATOM     74   O  NAG B   5      12.456  11.672  17.6060  0.00  0.00     0.000 O
ATOM     76  HD  NAG B   5      12.876  11.323  18.2780  0.00  0.00     0.000 HD
BRANCH 66 78
ATOM     76   N  NAG B   5      14.038  16.556  15.2030  0.00  0.00     0.000 N
ATOM     78  HD  NAG B   5      13.609  16.179  14.5510  0.00  0.00     0.000 HD
ATOM     78   C  NAG B   5      14.172  17.574  14.3380  0.00  0.00     0.000 C
ATOM     79   C  NAG B   5      15.070  18.672  14.8400  0.00  0.00     0.000 C
ATOM     80   O  NAG B   5      13.598  17.604  13.1920  0.00  0.00     0.000 OA
ENDBRANCH 66 78
BRANCH 65 81
ATOM     81  O4  BDP B   6      11.605  16.394  16.4770  0.00  0.00     0.000 O
BRANCH 81 85
ATOM     82  C1  BDP B   6       8.410  18.890  17.8650  0.00  0.00     0.000 C
ATOM     83  C2  BDP B   6       8.285  17.388  18.1030  0.00  0.00     0.000 C
ATOM     84  C3  BDP B   6       9.618  16.649  17.9520  0.00  0.00     0.000 C
ATOM     85  C4  BDP B   6      10.312  16.984  16.6300  0.00  0.00     0.000 C
ATOM     86  C5  BDP B   6      10.346  18.524  16.4880  0.00  0.00     0.000 C
ATOM     87  O5  BDP B   6       9.009  19.112  16.5960  0.00  0.00     0.000 O
ATOM     88   O  BDP B   6       7.814  17.253  19.4410  0.00  0.00     0.000 O
ATOM     90  HD  BDP B   6       7.943  16.770  20.1480  0.00  0.00     0.000 HD
ATOM     90   O  BDP B   6       9.403  15.241  18.0750  0.00  0.00     0.000 O
ATOM     92  HD  BDP B   6       9.532  14.759  18.7830  0.00  0.00     0.000 HD
BRANCH 86 92
ATOM     92   C  BDP B   6      10.800  18.918  15.1030  0.00  0.00     0.000 C
ATOM     93   O  BDP B   6      11.636  19.862  14.9650  0.00  0.00     0.000 OA
ATOM     94   O  BDP B   6      10.333  18.259  14.1230  0.00  0.00     0.000 OA
ENDBRANCH 86 92
BRANCH 82 95
ATOM     95  O3  NAG B   7       7.085  19.456  17.8330  0.00  0.00     0.000 O
BRANCH 95 98
ATOM     96  C1  NAG B   7       5.315  22.157  19.5380  0.00  0.00     0.000 C
ATOM     97  C2  NAG B   7       5.502  20.759  18.9650  0.00  0.00     0.000 C
ATOM     98  C3  NAG B   7       6.884  20.784  18.3140  0.00  0.00     0.000 C
ATOM     99  C4  NAG B   7       6.922  21.847  17.2190  0.00  0.00     0.000 C
ATOM    100  C5  NAG B   7       6.488  23.208  17.7630  0.00  0.00     0.000 C
ATOM    101  O5  NAG B   7       5.243  23.061  18.4300  0.00  0.00     0.000 O
BRANCH 97 104
ATOM    102   N  NAG B   7       5.499  19.694  19.9770  0.00  0.00     0.000 N
ATOM    104  HD  NAG B   7       5.754  19.069  20.5190  0.00  0.00     0.000 HD
ATOM    104   O  NAG B   7       4.982  17.681  20.8770  0.00  0.00     0.000 OA
ATOM    105   C  NAG B   7       4.841  18.519  19.9660  0.00  0.00     0.000 C
ATOM    106   C  NAG B   7       3.932  18.209  18.8260  0.00  0.00     0.000 C
ENDBRANCH 97 104
ATOM    107   O  NAG B   7       6.299  25.485  17.2320  0.00  0.00     0.000 O
ATOM    109  HD  NAG B   7       6.505  24.917  17.8530  0.00  0.00     0.000 HD
ATOM    109   O  NAG B   7       6.299  25.485  17.2320  0.00  0.00     0.000 O
ATOM    111  HD  NAG B   7       6.505  24.917  17.8530  0.00  0.00     0.000 HD
ENDBRANCH 95 98
ENDBRANCH 82 95
ENDBRANCH 81 85
ENDBRANCH 65 81
ENDBRANCH 64 67
ENDBRANCH 51 64
ENDBRANCH 50 54
ENDBRANCH 34 50
ENDBRANCH 33 36
ENDBRANCH 20 33
ENDBRANCH 19 23
ENDBRANCH 1 19
TORSDOF 19
ENDMDL
MODEL 91
REMARK VINA RESULT:      -5.2      7.176     13.957
ROOT
ATOM      1  C1  NAG B   1      18.390   9.629   5.7860  0.00  0.00     0.000 C
ATOM      2  C2  NAG B   1      19.731   9.015   6.1780  0.00  0.00     0.000 C
ATOM      3  C3  NAG B   1      20.372   8.276   5.0210  0.00  0.00     0.000 C
ATOM      4  C4  NAG B   1      19.354   7.224   4.5940  0.00  0.00     0.000 C
ATOM      5  C5  NAG B   1      18.086   7.926   4.0920  0.00  0.00     0.000 C
ATOM      6  O5  NAG B   1      17.485   8.724   5.1340  0.00  0.00     0.000 O
ATOM      7   O  NAG B   1      21.625   7.659   5.3950  0.00  0.00     0.000 O
ATOM      9  HD  NAG B   1      21.626   8.385   5.8670  0.00  0.00     0.000 HD
ATOM      9   O  NAG B   1      19.894   6.412   3.5650  0.00  0.00     0.000 O
ATOM     11  HD  NAG B   1      19.895   7.138   4.0370  0.00  0.00     0.000 HD
ATOM     11   C  NAG B   1      17.103   6.891   3.5300  0.00  0.00     0.000 C
ATOM     12   O  NAG B   1      15.753   7.333   3.6670  0.00  0.00     0.000 O
ATOM     14  HD  NAG B   1      15.754   8.059   4.1390  0.00  0.00     0.000 HD
ENDROOT
BRANCH 2 16
ATOM     14   N  NAG B   1      20.559  10.092   6.7480  0.00  0.00     0.000 N
ATOM     16  HD  NAG B   1      20.526  10.789   7.2620  0.00  0.00     0.000 HD
ATOM     16   C  NAG B   1      21.033  10.067   8.0060  0.00  0.00     0.000 C
ATOM     17   C  NAG B   1      20.699   8.912   8.9120  0.00  0.00     0.000 C
ATOM     18   O  NAG B   1      21.763  10.962   8.4320  0.00  0.00     0.000 OA
ENDBRANCH 2 16
BRANCH 1 19
ATOM     19  O4  BDP B   2      17.797   9.938   7.0400  0.00  0.00     0.000 O
BRANCH 19 23
ATOM     20  C1  BDP B   2      14.680  12.311   8.3030  0.00  0.00     0.000 C
ATOM     21  C2  BDP B   2      14.308  10.956   7.7380  0.00  0.00     0.000 C
ATOM     22  C3  BDP B   2      15.502  10.030   7.7050  0.00  0.00     0.000 C
ATOM     23  C4  BDP B   2      16.636  10.729   6.9600  0.00  0.00     0.000 C
ATOM     24  C5  BDP B   2      16.926  12.063   7.6200  0.00  0.00     0.000 C
ATOM     25  O5  BDP B   2      15.767  12.873   7.5810  0.00  0.00     0.000 O
ATOM     26   O  BDP B   2      13.275  10.374   8.5030  0.00  0.00     0.000 O
ATOM     28  HD  BDP B   2      13.267  11.181   8.8160  0.00  0.00     0.000 HD
ATOM     28   O  BDP B   2      15.126   8.794   7.0770  0.00  0.00     0.000 O
ATOM     30  HD  BDP B   2      15.117   9.602   7.3900  0.00  0.00     0.000 HD
BRANCH 24 30
ATOM     30   C  BDP B   2      18.017  12.804   6.9350  0.00  0.00     0.000 C
ATOM     31   O  BDP B   2      19.127  12.856   7.5120  0.00  0.00     0.000 OA
ATOM     32   O  BDP B   2      17.768  13.345   5.8190  0.00  0.00     0.000 OA
ENDBRANCH 24 30
BRANCH 20 33
ATOM     33  O3  NAG B   3      13.531  13.095   8.0930  0.00  0.00     0.000 O
BRANCH 33 36
ATOM     34  C1  NAG B   3      12.970  16.002  10.4150  0.00  0.00     0.000 C
ATOM     35  C2  NAG B   3      13.002  14.559   9.9480  0.00  0.00     0.000 C
ATOM     36  C3  NAG B   3      13.701  14.426   8.5870  0.00  0.00     0.000 C
ATOM     37  C4  NAG B   3      13.071  15.404   7.5980  0.00  0.00     0.000 C
ATOM     38  C5  NAG B   3      13.013  16.804   8.2020  0.00  0.00     0.000 C
ATOM     39  O5  NAG B   3      12.301  16.773   9.4270  0.00  0.00     0.000 O
ATOM     40   O  NAG B   3      13.839  15.438   6.3850  0.00  0.00     0.000 O
ATOM     42  HD  NAG B   3      13.843  16.287   6.5570  0.00  0.00     0.000 HD
ATOM     42   C  NAG B   3      12.279  17.822   7.3320  0.00  0.00     0.000 C
ATOM     43   O  NAG B   3      10.896  17.460   7.2360  0.00  0.00     0.000 O
ATOM     45  HD  NAG B   3      10.900  18.309   7.4090  0.00  0.00     0.000 HD
BRANCH 35 47
ATOM     45   N  NAG B   3      12.412  13.436  10.6670  0.00  0.00     0.000 N
ATOM     47  HD  NAG B   3      12.034  13.577   9.9010  0.00  0.00     0.000 HD
ATOM     47   C  NAG B   3      13.125  12.589  11.3830  0.00  0.00     0.000 C
ATOM     48   C  NAG B   3      12.364  11.477  12.0420  0.00  0.00     0.000 C
ATOM     49   O  NAG B   3      14.346  12.687  11.4830  0.00  0.00     0.000 OA
ENDBRANCH 35 47
BRANCH 34 50
ATOM     50  O4  BDP B   4      12.207  15.953  11.6020  0.00  0.00     0.000 O
BRANCH 50 54
ATOM     51  C1  BDP B   4      11.688  17.620  15.2760  0.00  0.00     0.000 C
ATOM     52  C2  BDP B   4      11.579  18.602  14.1160  0.00  0.00     0.000 C
ATOM     53  C3  BDP B   4      11.413  17.827  12.8450  0.00  0.00     0.000 C
ATOM     54  C4  BDP B   4      12.579  16.807  12.6960  0.00  0.00     0.000 C
ATOM     55  C5  BDP B   4      12.787  15.977  13.9560  0.00  0.00     0.000 C
ATOM     56  O5  BDP B   4      12.843  16.819  15.1030  0.00  0.00     0.000 O
ATOM     57   O  BDP B   4      10.464  19.450  14.2950  0.00  0.00     0.000 O
ATOM     59  HD  BDP B   4      10.802  20.201  14.5630  0.00  0.00     0.000 HD
ATOM     59   O  BDP B   4      11.508  18.772  11.7600  0.00  0.00     0.000 O
ATOM     61  HD  BDP B   4      11.846  19.523  12.0290  0.00  0.00     0.000 HD
BRANCH 55 61
ATOM     61   C  BDP B   4      14.089  15.206  13.8370  0.00  0.00     0.000 C
ATOM     62   O  BDP B   4      14.166  14.085  14.4050  0.00  0.00     0.000 OA
ATOM     63   O  BDP B   4      15.037  15.725  13.1730  0.00  0.00     0.000 OA
ENDBRANCH 55 61
BRANCH 51 64
ATOM     64  O3  NAG B   5      11.782  18.397  16.4860  0.00  0.00     0.000 O
BRANCH 64 67
ATOM     65  C1  NAG B   5      10.870  17.066  19.8010  0.00  0.00     0.000 C
ATOM     66  C2  NAG B   5      10.687  17.705  18.4360  0.00  0.00     0.000 C
ATOM     67  C3  NAG B   5      11.978  17.595  17.6340  0.00  0.00     0.000 C
ATOM     68  C4  NAG B   5      13.172  18.132  18.4350  0.00  0.00     0.000 C
ATOM     69  C5  NAG B   5      13.218  17.503  19.8180  0.00  0.00     0.000 C
ATOM     70  O5  NAG B   5      11.952  17.670  20.4740  0.00  0.00     0.000 O
ATOM     71   O  NAG B   5      14.355  17.868  17.7130  0.00  0.00     0.000 O
ATOM     73  HD  NAG B   5      14.547  18.673  17.9690  0.00  0.00     0.000 HD
ATOM     73   C  NAG B   5      14.306  18.075  20.7370  0.00  0.00     0.000 C
ATOM     74   O  NAG B   5      14.034  19.467  21.0010  0.00  0.00     0.000 O
ATOM     76  HD  NAG B   5      14.226  20.272  21.2570  0.00  0.00     0.000 HD
BRANCH 66 78
ATOM     76   N  NAG B   5       9.402  17.073  18.0790  0.00  0.00     0.000 N
ATOM     78  HD  NAG B   5       9.775  17.850  17.9930  0.00  0.00     0.000 HD
ATOM     78   C  NAG B   5       8.467  17.590  17.2660  0.00  0.00     0.000 C
ATOM     79   C  NAG B   5       7.271  16.695  17.0830  0.00  0.00     0.000 C
ATOM     80   O  NAG B   5       8.578  18.739  16.7080  0.00  0.00     0.000 OA
ENDBRANCH 66 78
BRANCH 65 81
ATOM     81  O4  BDP B   6       9.673  17.208  20.5770  0.00  0.00     0.000 O
BRANCH 81 85
ATOM     82  C1  BDP B   6       7.677  15.271  23.8370  0.00  0.00     0.000 C
ATOM     83  C2  BDP B   6       8.680  16.370  24.1770  0.00  0.00     0.000 C
ATOM     84  C3  BDP B   6       9.020  17.258  22.9760  0.00  0.00     0.000 C
ATOM     85  C4  BDP B   6       9.434  16.435  21.7550  0.00  0.00     0.000 C
ATOM     86  C5  BDP B   6       8.364  15.339  21.5340  0.00  0.00     0.000 C
ATOM     87  O5  BDP B   6       8.164  14.522  22.7330  0.00  0.00     0.000 O
ATOM     88   O  BDP B   6       8.056  17.155  25.1890  0.00  0.00     0.000 O
ATOM     90  HD  BDP B   6       7.945  17.983  25.4180  0.00  0.00     0.000 HD
ATOM     90   O  BDP B   6      10.045  18.186  23.3410  0.00  0.00     0.000 O
ATOM     92  HD  BDP B   6       9.934  19.013  23.5700  0.00  0.00     0.000 HD
BRANCH 86 92
ATOM     92   C  BDP B   6       8.828  14.347  20.4960  0.00  0.00     0.000 C
ATOM     93   O  BDP B   6       8.309  14.365  19.3390  0.00  0.00     0.000 OA
ATOM     94   O  BDP B   6       9.751  13.539  20.8280  0.00  0.00     0.000 OA
ENDBRANCH 86 92
BRANCH 82 95
ATOM     95  O3  NAG B   7       7.579  14.381  24.9660  0.00  0.00     0.000 O
BRANCH 95 98
ATOM     96  C1  NAG B   7       4.924  13.099  27.1220  0.00  0.00     0.000 C
ATOM     97  C2  NAG B   7       6.293  13.680  26.7930  0.00  0.00     0.000 C
ATOM     98  C3  NAG B   7       6.322  13.779  25.2690  0.00  0.00     0.000 C
ATOM     99  C4  NAG B   7       6.141  12.393  24.6560  0.00  0.00     0.000 C
ATOM    100  C5  NAG B   7       4.877  11.719  25.1930  0.00  0.00     0.000 C
ATOM    101  O5  NAG B   7       4.900  11.762  26.6110  0.00  0.00     0.000 O
BRANCH 97 104
ATOM    102   N  NAG B   7       6.570  15.051  27.2420  0.00  0.00     0.000 N
ATOM    104  HD  NAG B   7       6.774  15.893  27.2490  0.00  0.00     0.000 HD
ATOM    104   O  NAG B   7       7.660  16.696  28.3540  0.00  0.00     0.000 OA
ATOM    105   C  NAG B   7       7.502  15.483  28.1130  0.00  0.00     0.000 C
ATOM    106   C  NAG B   7       8.376  14.486  28.7930  0.00  0.00     0.000 C
ENDBRANCH 97 104
ATOM    107   O  NAG B   7       3.484   9.847  24.9510  0.00  0.00     0.000 O
ATOM    109  HD  NAG B   7       3.504  10.701  25.0960  0.00  0.00     0.000 HD
ATOM    109   O  NAG B   7       3.484   9.847  24.9510  0.00  0.00     0.000 O
ATOM    111  HD  NAG B   7       3.504  10.701  25.0960  0.00  0.00     0.000 HD
ENDBRANCH 95 98
ENDBRANCH 82 95
ENDBRANCH 81 85
ENDBRANCH 65 81
ENDBRANCH 64 67
ENDBRANCH 51 64
ENDBRANCH 50 54
ENDBRANCH 34 50
ENDBRANCH 33 36
ENDBRANCH 20 33
ENDBRANCH 19 23
ENDBRANCH 1 19
TORSDOF 19
ENDMDL
MODEL 92
REMARK VINA RESULT:      -5.2      7.039     16.901
ROOT
ATOM      1  C1  NAG B   1      15.129  14.654   6.6560  0.00  0.00     0.000 C
ATOM      2  C2  NAG B   1      14.686  16.023   6.1470  0.00  0.00     0.000 C
ATOM      3  C3  NAG B   1      15.305  16.352   4.8040  0.00  0.00     0.000 C
ATOM      4  C4  NAG B   1      16.813  16.272   5.0180  0.00  0.00     0.000 C
ATOM      5  C5  NAG B   1      17.191  14.834   5.3990  0.00  0.00     0.000 C
ATOM      6  O5  NAG B   1      16.549  14.435   6.6280  0.00  0.00     0.000 O
ATOM      7   O  NAG B   1      14.920  17.664   4.3330  0.00  0.00     0.000 O
ATOM      9  HD  NAG B   1      14.207  17.397   4.7450  0.00  0.00     0.000 HD
ATOM      9   O  NAG B   1      17.495  16.650   3.8340  0.00  0.00     0.000 O
ATOM     11  HD  NAG B   1      16.781  16.383   4.2460  0.00  0.00     0.000 HD
ATOM     11   C  NAG B   1      18.716  14.700   5.4850  0.00  0.00     0.000 C
ATOM     12   O  NAG B   1      19.095  13.687   6.4150  0.00  0.00     0.000 O
ATOM     14  HD  NAG B   1      18.381  13.419   6.8270  0.00  0.00     0.000 HD
ENDROOT
BRANCH 2 16
ATOM     14   N  NAG B   1      13.223  15.951   6.3020  0.00  0.00     0.000 N
ATOM     16  HD  NAG B   1      12.598  15.768   6.8730  0.00  0.00     0.000 HD
ATOM     16   C  NAG B   1      12.498  16.918   6.8910  0.00  0.00     0.000 C
ATOM     17   C  NAG B   1      13.184  18.134   7.4540  0.00  0.00     0.000 C
ATOM     18   O  NAG B   1      11.271  16.846   6.9570  0.00  0.00     0.000 OA
ENDBRANCH 2 16
BRANCH 1 19
ATOM     19  O4  BDP B   2      14.765  14.686   8.0300  0.00  0.00     0.000 O
BRANCH 19 23
ATOM     20  C1  BDP B   2      13.687  11.743  10.6970  0.00  0.00     0.000 C
ATOM     21  C2  BDP B   2      15.103  12.267  10.8090  0.00  0.00     0.000 C
ATOM     22  C3  BDP B   2      15.256  13.592  10.0980  0.00  0.00     0.000 C
ATOM     23  C4  BDP B   2      14.760  13.430   8.6640  0.00  0.00     0.000 C
ATOM     24  C5  BDP B   2      13.334  12.913   8.6780  0.00  0.00     0.000 C
ATOM     25  O5  BDP B   2      13.291  11.661   9.3350  0.00  0.00     0.000 O
ATOM     26   O  BDP B   2      15.466  12.411  12.1660  0.00  0.00     0.000 O
ATOM     28  HD  BDP B   2      14.732  11.958  12.2460  0.00  0.00     0.000 HD
ATOM     28   O  BDP B   2      16.631  14.002  10.1500  0.00  0.00     0.000 O
ATOM     30  HD  BDP B   2      15.897  13.550  10.2310  0.00  0.00     0.000 HD
BRANCH 24 30
ATOM     30   C  BDP B   2      12.792  12.721   7.3070  0.00  0.00     0.000 C
ATOM     31   O  BDP B   2      13.330  11.842   6.5950  0.00  0.00     0.000 OA
ATOM     32   O  BDP B   2      11.833  13.453   6.9320  0.00  0.00     0.000 OA
ENDBRANCH 24 30
BRANCH 20 33
ATOM     33  O3  NAG B   3      13.760  10.445  11.2350  0.00  0.00     0.000 O
BRANCH 33 36
ATOM     34  C1  NAG B   3      10.961   9.051  13.3270  0.00  0.00     0.000 C
ATOM     35  C2  NAG B   3      12.233   9.813  13.0050  0.00  0.00     0.000 C
ATOM     36  C3  NAG B   3      12.461   9.903  11.4880  0.00  0.00     0.000 C
ATOM     37  C4  NAG B   3      12.382   8.505  10.8810  0.00  0.00     0.000 C
ATOM     38  C5  NAG B   3      11.108   7.800  11.3390  0.00  0.00     0.000 C
ATOM     39  O5  NAG B   3      11.062   7.756  12.7550  0.00  0.00     0.000 O
ATOM     40   O  NAG B   3      12.392   8.591   9.4480  0.00  0.00     0.000 O
ATOM     42  HD  NAG B   3      11.669   8.123   9.5380  0.00  0.00     0.000 HD
ATOM     42   C  NAG B   3      11.009   6.346  10.8840  0.00  0.00     0.000 C
ATOM     43   O  NAG B   3      12.041   5.576  11.5130  0.00  0.00     0.000 O
ATOM     45  HD  NAG B   3      11.318   5.109  11.6030  0.00  0.00     0.000 HD
BRANCH 35 47
ATOM     45   N  NAG B   3      13.078  10.347  14.0660  0.00  0.00     0.000 N
ATOM     47  HD  NAG B   3      13.435   9.668  13.6650  0.00  0.00     0.000 HD
ATOM     47   C  NAG B   3      13.186  11.636  14.3160  0.00  0.00     0.000 C
ATOM     48   C  NAG B   3      14.114  12.018  15.4310  0.00  0.00     0.000 C
ATOM     49   O  NAG B   3      12.582  12.480  13.6570  0.00  0.00     0.000 OA
ENDBRANCH 35 47
BRANCH 34 50
ATOM     50  O4  BDP B   4      10.970   8.968  14.7370  0.00  0.00     0.000 O
BRANCH 50 54
ATOM     51  C1  BDP B   4       8.656   9.050  18.0820  0.00  0.00     0.000 C
ATOM     52  C2  BDP B   4       8.461   7.816  17.2090  0.00  0.00     0.000 C
ATOM     53  C3  BDP B   4       9.604   7.725  16.2460  0.00  0.00     0.000 C
ATOM     54  C4  BDP B   4       9.719   9.051  15.4400  0.00  0.00     0.000 C
ATOM     55  C5  BDP B   4       9.709  10.278  16.3410  0.00  0.00     0.000 C
ATOM     56  O5  BDP B   4       8.629  10.208  17.2670  0.00  0.00     0.000 O
ATOM     57   O  BDP B   4       8.428   6.651  18.0070  0.00  0.00     0.000 O
ATOM     59  HD  BDP B   4       7.590   6.439  18.0490  0.00  0.00     0.000 HD
ATOM     59   O  BDP B   4       9.288   6.667  15.3180  0.00  0.00     0.000 O
ATOM     61  HD  BDP B   4       8.450   6.454  15.3600  0.00  0.00     0.000 HD
BRANCH 55 61
ATOM     61   C  BDP B   4       9.555  11.524  15.4880  0.00  0.00     0.000 C
ATOM     62   O  BDP B   4       8.835  11.449  14.4580  0.00  0.00     0.000 OA
ATOM     63   O  BDP B   4      10.155  12.581  15.8530  0.00  0.00     0.000 OA
ENDBRANCH 55 61
BRANCH 51 64
ATOM     64  O3  NAG B   5       7.577   9.072  19.0370  0.00  0.00     0.000 O
BRANCH 64 67
ATOM     65  C1  NAG B   5       7.798  10.871  22.2480  0.00  0.00     0.000 C
ATOM     66  C2  NAG B   5       7.972   9.745  21.2440  0.00  0.00     0.000 C
ATOM     67  C3  NAG B   5       7.594  10.229  19.8500  0.00  0.00     0.000 C
ATOM     68  C4  NAG B   5       6.201  10.874  19.8500  0.00  0.00     0.000 C
ATOM     69  C5  NAG B   5       6.094  11.922  20.9470  0.00  0.00     0.000 C
ATOM     70  O5  NAG B   5       6.474  11.351  22.2070  0.00  0.00     0.000 O
ATOM     71   O  NAG B   5       5.965  11.439  18.5780  0.00  0.00     0.000 O
ATOM     73  HD  NAG B   5       5.182  11.091  18.7030  0.00  0.00     0.000 HD
ATOM     73   C  NAG B   5       4.694  12.531  21.1040  0.00  0.00     0.000 C
ATOM     74   O  NAG B   5       3.764  11.507  21.5150  0.00  0.00     0.000 O
ATOM     76  HD  NAG B   5       2.981  11.159  21.6400  0.00  0.00     0.000 HD
BRANCH 66 78
ATOM     76   N  NAG B   5       8.538   8.455  21.6850  0.00  0.00     0.000 N
ATOM     78  HD  NAG B   5       8.782   9.121  21.1870  0.00  0.00     0.000 HD
ATOM     78   C  NAG B   5       9.812   8.059  21.5320  0.00  0.00     0.000 C
ATOM     79   C  NAG B   5      10.088   6.695  22.1050  0.00  0.00     0.000 C
ATOM     80   O  NAG B   5      10.704   8.770  20.9460  0.00  0.00     0.000 OA
ENDBRANCH 66 78
BRANCH 65 81
ATOM     81  O4  BDP B   6       8.108  10.408  23.5680  0.00  0.00     0.000 O
BRANCH 81 85
ATOM     82  C1  BDP B   6       9.806  11.805  27.2460  0.00  0.00     0.000 C
ATOM     83  C2  BDP B   6       8.509  12.458  26.7750  0.00  0.00     0.000 C
ATOM     84  C3  BDP B   6       7.783  11.635  25.7070  0.00  0.00     0.000 C
ATOM     85  C4  BDP B   6       8.710  11.255  24.5500  0.00  0.00     0.000 C
ATOM     86  C5  BDP B   6       9.995  10.639  25.1530  0.00  0.00     0.000 C
ATOM     87  O5  BDP B   6      10.628  11.537  26.1200  0.00  0.00     0.000 O
ATOM     88   O  BDP B   6       7.690  12.559  27.9370  0.00  0.00     0.000 O
ATOM     90  HD  BDP B   6       6.868  12.450  28.1850  0.00  0.00     0.000 HD
ATOM     90   O  BDP B   6       6.645  12.361  25.2340  0.00  0.00     0.000 O
ATOM     92  HD  BDP B   6       5.823  12.251  25.4830  0.00  0.00     0.000 HD
BRANCH 86 92
ATOM     92   C  BDP B   6      11.047  10.460  24.0860  0.00  0.00     0.000 C
ATOM     93   O  BDP B   6      11.753   9.406  24.0750  0.00  0.00     0.000 OA
ATOM     94   O  BDP B   6      11.165  11.380  23.2180  0.00  0.00     0.000 OA
ENDBRANCH 86 92
BRANCH 82 95
ATOM     95  O3  NAG B   7      10.504  12.740  28.0920  0.00  0.00     0.000 O
BRANCH 95 98
ATOM     96  C1  NAG B   7      11.876  12.753  31.4760  0.00  0.00     0.000 C
ATOM     97  C2  NAG B   7      11.117  13.309  30.2790  0.00  0.00     0.000 C
ATOM     98  C3  NAG B   7      11.268  12.248  29.1910  0.00  0.00     0.000 C
ATOM     99  C4  NAG B   7      12.746  12.041  28.8690  0.00  0.00     0.000 C
ATOM    100  C5  NAG B   7      13.542  11.724  30.1360  0.00  0.00     0.000 C
ATOM    101  O5  NAG B   7      13.261  12.712  31.1150  0.00  0.00     0.000 O
BRANCH 97 104
ATOM    102   N  NAG B   7       9.663  13.469  30.4160  0.00  0.00     0.000 N
ATOM    104  HD  NAG B   7       8.809  13.406  30.2860  0.00  0.00     0.000 HD
ATOM    104   O  NAG B   7       7.685  14.573  30.4450  0.00  0.00     0.000 OA
ATOM    105   C  NAG B   7       8.929  14.598  30.3720  0.00  0.00     0.000 C
ATOM    106   C  NAG B   7       9.624  15.908  30.2180  0.00  0.00     0.000 C
ENDBRANCH 97 104
ATOM    107   O  NAG B   7      15.651  11.074  30.9310  0.00  0.00     0.000 O
ATOM    109  HD  NAG B   7      14.796  10.978  31.0310  0.00  0.00     0.000 HD
ATOM    109   O  NAG B   7      15.651  11.074  30.9310  0.00  0.00     0.000 O
ATOM    111  HD  NAG B   7      14.796  10.978  31.0310  0.00  0.00     0.000 HD
ENDBRANCH 95 98
ENDBRANCH 82 95
ENDBRANCH 81 85
ENDBRANCH 65 81
ENDBRANCH 64 67
ENDBRANCH 51 64
ENDBRANCH 50 54
ENDBRANCH 34 50
ENDBRANCH 33 36
ENDBRANCH 20 33
ENDBRANCH 19 23
ENDBRANCH 1 19
TORSDOF 19
ENDMDL
MODEL 93
REMARK VINA RESULT:      -5.2      6.421      9.185
ROOT
ATOM      1  C1  NAG B   1       9.959   8.253  14.8470  0.00  0.00     0.000 C
ATOM      2  C2  NAG B   1      10.371   7.193  13.8300  0.00  0.00     0.000 C
ATOM      3  C3  NAG B   1       9.764   7.453  12.4660  0.00  0.00     0.000 C
ATOM      4  C4  NAG B   1       8.256   7.488  12.6910  0.00  0.00     0.000 C
ATOM      5  C5  NAG B   1       7.912   8.661  13.6180  0.00  0.00     0.000 C
ATOM      6  O5  NAG B   1       8.547   8.510  14.9060  0.00  0.00     0.000 O
ATOM      7   O  NAG B   1      10.118   6.431  11.5070  0.00  0.00     0.000 O
ATOM      9  HD  NAG B   1      10.833   6.487  11.9930  0.00  0.00     0.000 HD
ATOM      9   O  NAG B   1       7.581   7.641  11.4530  0.00  0.00     0.000 O
ATOM     11  HD  NAG B   1       8.296   7.697  11.9390  0.00  0.00     0.000 HD
ATOM     11   C  NAG B   1       6.390   8.798  13.7470  0.00  0.00     0.000 C
ATOM     12   O  NAG B   1       6.026   9.361  15.0070  0.00  0.00     0.000 O
ATOM     14  HD  NAG B   1       6.741   9.417  15.4930  0.00  0.00     0.000 HD
ENDROOT
BRANCH 2 16
ATOM     14   N  NAG B   1      11.210   6.134  14.4180  0.00  0.00     0.000 N
ATOM     16  HD  NAG B   1      11.567   5.363  14.2490  0.00  0.00     0.000 HD
ATOM     16   C  NAG B   1      12.522   6.004  14.1550  0.00  0.00     0.000 C
ATOM     17   C  NAG B   1      13.193   6.952  13.1970  0.00  0.00     0.000 C
ATOM     18   O  NAG B   1      13.200   5.137  14.7040  0.00  0.00     0.000 OA
ENDBRANCH 2 16
BRANCH 1 19
ATOM     19  O4  BDP B   2      10.301   7.658  16.0920  0.00  0.00     0.000 O
BRANCH 19 23
ATOM     20  C1  BDP B   2      10.778  11.249  18.0450  0.00  0.00     0.000 C
ATOM     21  C2  BDP B   2      12.035  10.616  17.4830  0.00  0.00     0.000 C
ATOM     22  C3  BDP B   2      11.702   9.560  16.4530  0.00  0.00     0.000 C
ATOM     23  C4  BDP B   2      10.726   8.567  17.0780  0.00  0.00     0.000 C
ATOM     24  C5  BDP B   2       9.510   9.311  17.5920  0.00  0.00     0.000 C
ATOM     25  O5  BDP B   2       9.909  10.255  18.5680  0.00  0.00     0.000 O
ATOM     26   O  BDP B   2      12.862  11.602  16.9030  0.00  0.00     0.000 O
ATOM     28  HD  BDP B   2      12.291  12.102  17.3210  0.00  0.00     0.000 HD
ATOM     28   O  BDP B   2      12.915   8.925  16.0190  0.00  0.00     0.000 O
ATOM     30  HD  BDP B   2      12.344   9.424  16.4370  0.00  0.00     0.000 HD
BRANCH 24 30
ATOM     30   C  BDP B   2       8.520   8.400  18.2260  0.00  0.00     0.000 C
ATOM     31   O  BDP B   2       7.362   8.390  17.7490  0.00  0.00     0.000 OA
ATOM     32   O  BDP B   2       8.893   7.697  19.2070  0.00  0.00     0.000 OA
ENDBRANCH 24 30
BRANCH 20 33
ATOM     33  O3  NAG B   3      11.246  12.055  19.0990  0.00  0.00     0.000 O
BRANCH 33 36
ATOM     34  C1  NAG B   3       9.361  15.237  19.7850  0.00  0.00     0.000 C
ATOM     35  C2  NAG B   3      10.308  14.287  19.0770  0.00  0.00     0.000 C
ATOM     36  C3  NAG B   3      10.203  12.865  19.6480  0.00  0.00     0.000 C
ATOM     37  C4  NAG B   3      10.365  12.916  21.1660  0.00  0.00     0.000 C
ATOM     38  C5  NAG B   3       9.427  13.962  21.7630  0.00  0.00     0.000 C
ATOM     39  O5  NAG B   3       9.673  15.226  21.1700  0.00  0.00     0.000 O
ATOM     40   O  NAG B   3      10.071  11.631  21.7340  0.00  0.00     0.000 O
ATOM     42  HD  NAG B   3       9.522  12.104  22.2090  0.00  0.00     0.000 HD
ATOM     42   C  NAG B   3       9.613  14.174  23.2630  0.00  0.00     0.000 C
ATOM     43   O  NAG B   3      10.909  14.732  23.5100  0.00  0.00     0.000 O
ATOM     45  HD  NAG B   3      10.361  15.205  23.9850  0.00  0.00     0.000 HD
BRANCH 35 47
ATOM     45   N  NAG B   3      11.225  14.687  18.0170  0.00  0.00     0.000 N
ATOM     47  HD  NAG B   3      11.636  14.429  18.7340  0.00  0.00     0.000 HD
ATOM     47   C  NAG B   3      11.004  14.428  16.7440  0.00  0.00     0.000 C
ATOM     48   C  NAG B   3      12.059  14.891  15.7830  0.00  0.00     0.000 C
ATOM     49   O  NAG B   3      10.006  13.820  16.3660  0.00  0.00     0.000 OA
ENDBRANCH 35 47
BRANCH 34 50
ATOM     50  O4  BDP B   4       9.667  16.496  19.2220  0.00  0.00     0.000 O
BRANCH 50 54
ATOM     51  C1  BDP B   4       8.087  20.117  18.2530  0.00  0.00     0.000 C
ATOM     52  C2  BDP B   4       8.633  20.026  19.6730  0.00  0.00     0.000 C
ATOM     53  C3  BDP B   4       9.501  18.810  19.7750  0.00  0.00     0.000 C
ATOM     54  C4  BDP B   4       8.699  17.553  19.3300  0.00  0.00     0.000 C
ATOM     55  C5  BDP B   4       8.000  17.756  17.9930  0.00  0.00     0.000 C
ATOM     56  O5  BDP B   4       7.279  18.985  17.9890  0.00  0.00     0.000 O
ATOM     57   O  BDP B   4       9.398  21.173  19.9790  0.00  0.00     0.000 O
ATOM     59  HD  BDP B   4       8.881  21.652  20.4820  0.00  0.00     0.000 HD
ATOM     59   O  BDP B   4       9.839  18.651  21.1690  0.00  0.00     0.000 O
ATOM     61  HD  BDP B   4       9.322  19.129  21.6720  0.00  0.00     0.000 HD
BRANCH 55 61
ATOM     61   C  BDP B   4       7.034  16.610  17.7530  0.00  0.00     0.000 C
ATOM     62   O  BDP B   4       7.438  15.629  17.0750  0.00  0.00     0.000 OA
ATOM     63   O  BDP B   4       5.869  16.693  18.2480  0.00  0.00     0.000 OA
ENDBRANCH 55 61
BRANCH 51 64
ATOM     64  O3  NAG B   5       7.311  21.329  18.1710  0.00  0.00     0.000 O
BRANCH 64 67
ATOM     65  C1  NAG B   5       6.881  22.810  14.8220  0.00  0.00     0.000 C
ATOM     66  C2  NAG B   5       7.581  22.394  16.1040  0.00  0.00     0.000 C
ATOM     67  C3  NAG B   5       6.672  21.482  16.9190  0.00  0.00     0.000 C
ATOM     68  C4  NAG B   5       5.292  22.121  17.1250  0.00  0.00     0.000 C
ATOM     69  C5  NAG B   5       4.713  22.588  15.7980  0.00  0.00     0.000 C
ATOM     70  O5  NAG B   5       5.655  23.436  15.1260  0.00  0.00     0.000 O
ATOM     71   O  NAG B   5       4.446  21.178  17.7480  0.00  0.00     0.000 O
ATOM     73  HD  NAG B   5       4.209  21.874  18.2050  0.00  0.00     0.000 HD
ATOM     73   C  NAG B   5       3.388  23.355  15.9220  0.00  0.00     0.000 C
ATOM     74   O  NAG B   5       3.605  24.579  16.6540  0.00  0.00     0.000 O
ATOM     76  HD  NAG B   5       3.367  25.275  17.1110  0.00  0.00     0.000 HD
BRANCH 66 78
ATOM     76   N  NAG B   5       8.866  21.922  15.5540  0.00  0.00     0.000 N
ATOM     78  HD  NAG B   5       8.599  22.426  16.2050  0.00  0.00     0.000 HD
ATOM     78   C  NAG B   5      10.068  22.046  16.1380  0.00  0.00     0.000 C
ATOM     79   C  NAG B   5      11.190  21.445  15.3350  0.00  0.00     0.000 C
ATOM     80   O  NAG B   5      10.244  22.627  17.2680  0.00  0.00     0.000 OA
ENDBRANCH 66 78
BRANCH 65 81
ATOM     81  O4  BDP B   6       7.713  23.706  14.0740  0.00  0.00     0.000 O
BRANCH 81 85
ATOM     82  C1  BDP B   6       8.064  25.282  10.1050  0.00  0.00     0.000 C
ATOM     83  C2  BDP B   6       7.104  25.984  11.0600  0.00  0.00     0.000 C
ATOM     84  C3  BDP B   6       7.349  25.619  12.5270  0.00  0.00     0.000 C
ATOM     85  C4  BDP B   6       7.394  24.104  12.7390  0.00  0.00     0.000 C
ATOM     86  C5  BDP B   6       8.368  23.506  11.6960  0.00  0.00     0.000 C
ATOM     87  O5  BDP B   6       8.002  23.881  10.3290  0.00  0.00     0.000 O
ATOM     88   O  BDP B   6       7.331  27.378  10.8720  0.00  0.00     0.000 O
ATOM     90  HD  BDP B   6       7.408  28.110  11.3290  0.00  0.00     0.000 HD
ATOM     90   O  BDP B   6       6.345  26.222  13.3460  0.00  0.00     0.000 O
ATOM     92  HD  BDP B   6       6.422  26.953  13.8040  0.00  0.00     0.000 HD
BRANCH 86 92
ATOM     92   C  BDP B   6       8.280  21.999  11.6920  0.00  0.00     0.000 C
ATOM     93   O  BDP B   6       7.520  21.421  10.8580  0.00  0.00     0.000 OA
ATOM     94   O  BDP B   6       9.002  21.368  12.5250  0.00  0.00     0.000 OA
ENDBRANCH 86 92
BRANCH 82 95
ATOM     95  O3  NAG B   7       7.626  25.534   8.7550  0.00  0.00     0.000 O
BRANCH 95 98
ATOM     96  C1  NAG B   7       9.174  26.745   5.6760  0.00  0.00     0.000 C
ATOM     97  C2  NAG B   7       8.108  26.664   6.7620  0.00  0.00     0.000 C
ATOM     98  C3  NAG B   7       8.592  25.565   7.7050  0.00  0.00     0.000 C
ATOM     99  C4  NAG B   7       8.718  24.247   6.9460  0.00  0.00     0.000 C
ATOM    100  C5  NAG B   7       9.601  24.411   5.7090  0.00  0.00     0.000 C
ATOM    101  O5  NAG B   7       9.128  25.512   4.9490  0.00  0.00     0.000 O
BRANCH 97 104
ATOM    102   N  NAG B   7       7.943  27.831   7.6390  0.00  0.00     0.000 N
ATOM    104  HD  NAG B   7       7.893  28.336   8.3400  0.00  0.00     0.000 HD
ATOM    104   O  NAG B   7       6.858  29.562   8.6150  0.00  0.00     0.000 OA
ATOM    105   C  NAG B   7       6.874  28.637   7.7800  0.00  0.00     0.000 C
ATOM    106   C  NAG B   7       5.675  28.407   6.9240  0.00  0.00     0.000 C
ENDBRANCH 97 104
ATOM    107   O  NAG B   7      10.649  23.244   3.9640  0.00  0.00     0.000 O
ATOM    109  HD  NAG B   7      10.732  23.891   4.5330  0.00  0.00     0.000 HD
ATOM    109   O  NAG B   7      10.649  23.244   3.9640  0.00  0.00     0.000 O
ATOM    111  HD  NAG B   7      10.732  23.891   4.5330  0.00  0.00     0.000 HD
ENDBRANCH 95 98
ENDBRANCH 82 95
ENDBRANCH 81 85
ENDBRANCH 65 81
ENDBRANCH 64 67
ENDBRANCH 51 64
ENDBRANCH 50 54
ENDBRANCH 34 50
ENDBRANCH 33 36
ENDBRANCH 20 33
ENDBRANCH 19 23
ENDBRANCH 1 19
TORSDOF 19
ENDMDL
MODEL 94
REMARK VINA RESULT:      -5.1      6.669      9.171
ROOT
ATOM      1  C1  NAG B   1       9.873   8.382  14.8940  0.00  0.00     0.000 C
ATOM      2  C2  NAG B   1       9.231   9.345  15.8890  0.00  0.00     0.000 C
ATOM      3  C3  NAG B   1       7.749   9.077  16.0570  0.00  0.00     0.000 C
ATOM      4  C4  NAG B   1       7.151   9.201  14.6600  0.00  0.00     0.000 C
ATOM      5  C5  NAG B   1       7.751   8.115  13.7570  0.00  0.00     0.000 C
ATOM      6  O5  NAG B   1       9.182   8.268  13.6400  0.00  0.00     0.000 O
ATOM      7   O  NAG B   1       7.126  10.011  16.9690  0.00  0.00     0.000 O
ATOM      9  HD  NAG B   1       7.914   9.910  17.3140  0.00  0.00     0.000 HD
ATOM      9   O  NAG B   1       5.742   9.053  14.7170  0.00  0.00     0.000 O
ATOM     11  HD  NAG B   1       6.530   8.952  15.0620  0.00  0.00     0.000 HD
ATOM     11   C  NAG B   1       7.064   8.134  12.3870  0.00  0.00     0.000 C
ATOM     12   O  NAG B   1       7.941   7.673  11.3610  0.00  0.00     0.000 O
ATOM     14  HD  NAG B   1       8.729   7.572  11.7060  0.00  0.00     0.000 HD
ENDROOT
BRANCH 2 16
ATOM     14   N  NAG B   1       9.974  10.455  16.5120  0.00  0.00     0.000 N
ATOM     16  HD  NAG B   1       9.923  11.056  17.1340  0.00  0.00     0.000 HD
ATOM     16   C  NAG B   1      10.644  10.332  17.6710  0.00  0.00     0.000 C
ATOM     17   C  NAG B   1      10.635   9.020  18.4090  0.00  0.00     0.000 C
ATOM     18   O  NAG B   1      11.294  11.268  18.1340  0.00  0.00     0.000 OA
ENDBRANCH 2 16
BRANCH 1 19
ATOM     19  O4  BDP B   2      11.117   9.003  14.6000  0.00  0.00     0.000 O
BRANCH 19 23
ATOM     20  C1  BDP B   2      13.131  10.107  11.1840  0.00  0.00     0.000 C
ATOM     21  C2  BDP B   2      11.761  10.720  11.3860  0.00  0.00     0.000 C
ATOM     22  C3  BDP B   2      11.308  10.589  12.8220  0.00  0.00     0.000 C
ATOM     23  C4  BDP B   2      11.403   9.121  13.2270  0.00  0.00     0.000 C
ATOM     24  C5  BDP B   2      12.816   8.624  12.9930  0.00  0.00     0.000 C
ATOM     25  O5  BDP B   2      13.143   8.756  11.6230  0.00  0.00     0.000 O
ATOM     26   O  BDP B   2      11.774  12.081  11.0130  0.00  0.00     0.000 O
ATOM     28  HD  BDP B   2      12.537  11.824  10.6950  0.00  0.00     0.000 HD
ATOM     28   O  BDP B   2       9.970  11.098  12.9450  0.00  0.00     0.000 O
ATOM     30  HD  BDP B   2      10.733  10.840  12.6270  0.00  0.00     0.000 HD
BRANCH 24 30
ATOM     30   C  BDP B   2      12.975   7.191  13.3570  0.00  0.00     0.000 C
ATOM     31   O  BDP B   2      12.688   6.341  12.4830  0.00  0.00     0.000 OA
ATOM     32   O  BDP B   2      13.379   6.908  14.5210  0.00  0.00     0.000 OA
ENDBRANCH 24 30
BRANCH 20 33
ATOM     33  O3  NAG B   3      13.318  10.142   9.7910  0.00  0.00     0.000 O
BRANCH 33 36
ATOM     34  C1  NAG B   3      16.534  11.023   8.0490  0.00  0.00     0.000 C
ATOM     35  C2  NAG B   3      15.145  11.223   8.6260  0.00  0.00     0.000 C
ATOM     36  C3  NAG B   3      14.696   9.998   9.4380  0.00  0.00     0.000 C
ATOM     37  C4  NAG B   3      14.860   8.741   8.5880  0.00  0.00     0.000 C
ATOM     38  C5  NAG B   3      16.263   8.686   7.9900  0.00  0.00     0.000 C
ATOM     39  O5  NAG B   3      16.513   9.859   7.2350  0.00  0.00     0.000 O
ATOM     40   O  NAG B   3      14.638   7.572   9.3930  0.00  0.00     0.000 O
ATOM     42  HD  NAG B   3      15.418   7.362   9.0830  0.00  0.00     0.000 HD
ATOM     42   C  NAG B   3      16.475   7.527   7.0190  0.00  0.00     0.000 C
ATOM     43   O  NAG B   3      15.645   7.710   5.8650  0.00  0.00     0.000 O
ATOM     45  HD  NAG B   3      16.425   7.499   5.5550  0.00  0.00     0.000 HD
BRANCH 35 47
ATOM     45   N  NAG B   3      14.419  12.461   8.3750  0.00  0.00     0.000 N
ATOM     47  HD  NAG B   3      14.102  11.792   7.9270  0.00  0.00     0.000 HD
ATOM     47   C  NAG B   3      14.170  13.350   9.3170  0.00  0.00     0.000 C
ATOM     48   C  NAG B   3      13.393  14.561   8.8930  0.00  0.00     0.000 C
ATOM     49   O  NAG B   3      14.530  13.185  10.4800  0.00  0.00     0.000 OA
ENDBRANCH 35 47
BRANCH 34 50
ATOM     50  O4  BDP B   4      16.734  12.174   7.2550  0.00  0.00     0.000 O
BRANCH 50 54
ATOM     51  C1  BDP B   4      19.525  14.448   5.3600  0.00  0.00     0.000 C
ATOM     52  C2  BDP B   4      19.469  12.998   4.8930  0.00  0.00     0.000 C
ATOM     53  C3  BDP B   4      18.190  12.388   5.3780  0.00  0.00     0.000 C
ATOM     54  C4  BDP B   4      18.080  12.555   6.9210  0.00  0.00     0.000 C
ATOM     55  C5  BDP B   4      18.340  13.987   7.3680  0.00  0.00     0.000 C
ATOM     56  O5  BDP B   4      19.537  14.484   6.7760  0.00  0.00     0.000 O
ATOM     57   O  BDP B   4      19.513  12.935   3.4840  0.00  0.00     0.000 O
ATOM     59  HD  BDP B   4      20.324  12.694   3.3010  0.00  0.00     0.000 HD
ATOM     59   O  BDP B   4      18.261  10.977   5.0880  0.00  0.00     0.000 O
ATOM     61  HD  BDP B   4      19.073  10.736   4.9050  0.00  0.00     0.000 HD
BRANCH 55 61
ATOM     61   C  BDP B   4      18.481  14.022   8.8800  0.00  0.00     0.000 C
ATOM     62   O  BDP B   4      19.607  13.757   9.3750  0.00  0.00     0.000 OA
ATOM     63   O  BDP B   4      17.458  14.317   9.5710  0.00  0.00     0.000 OA
ENDBRANCH 55 61
BRANCH 51 64
ATOM     64  O3  NAG B   5      20.733  15.023   4.8240  0.00  0.00     0.000 O
BRANCH 64 67
ATOM     65  C1  NAG B   5      20.857  18.626   4.0550  0.00  0.00     0.000 C
ATOM     66  C2  NAG B   5      20.518  17.156   3.8850  0.00  0.00     0.000 C
ATOM     67  C3  NAG B   5      20.877  16.391   5.1520  0.00  0.00     0.000 C
ATOM     68  C4  NAG B   5      22.328  16.666   5.5690  0.00  0.00     0.000 C
ATOM     69  C5  NAG B   5      22.598  18.162   5.6220  0.00  0.00     0.000 C
ATOM     70  O5  NAG B   5      22.221  18.771   4.3790  0.00  0.00     0.000 O
ATOM     71   O  NAG B   5      22.561  16.060   6.8230  0.00  0.00     0.000 O
ATOM     73  HD  NAG B   5      23.308  15.842   6.4430  0.00  0.00     0.000 HD
ATOM     73   C  NAG B   5      24.060  18.531   5.9080  0.00  0.00     0.000 C
ATOM     74   O  NAG B   5      24.895  18.069   4.8260  0.00  0.00     0.000 O
ATOM     76  HD  NAG B   5      25.643  17.851   4.4470  0.00  0.00     0.000 HD
BRANCH 66 78
ATOM     76   N  NAG B   5      19.113  17.241   3.4420  0.00  0.00     0.000 N
ATOM     78  HD  NAG B   5      19.838  16.841   3.1880  0.00  0.00     0.000 HD
ATOM     78   C  NAG B   5      18.527  16.461   2.5190  0.00  0.00     0.000 C
ATOM     79   C  NAG B   5      17.074  16.781   2.2980  0.00  0.00     0.000 C
ATOM     80   O  NAG B   5      19.149  15.538   1.8820  0.00  0.00     0.000 OA
ENDBRANCH 66 78
BRANCH 65 81
ATOM     81  O4  BDP B   6      20.564  19.343   2.8490  0.00  0.00     0.000 O
BRANCH 81 85
ATOM     82  C1  BDP B   6      19.781  23.351   1.5500  0.00  0.00     0.000 C
ATOM     83  C2  BDP B   6      21.240  22.915   1.6540  0.00  0.00     0.000 C
ATOM     84  C3  BDP B   6      21.404  21.394   1.7210  0.00  0.00     0.000 C
ATOM     85  C4  BDP B   6      20.521  20.771   2.8040  0.00  0.00     0.000 C
ATOM     86  C5  BDP B   6      19.083  21.312   2.6150  0.00  0.00     0.000 C
ATOM     87  O5  BDP B   6      19.046  22.775   2.6210  0.00  0.00     0.000 O
ATOM     88   O  BDP B   6      21.870  23.412   0.4760  0.00  0.00     0.000 O
ATOM     90  HD  BDP B   6      22.442  23.169  -0.1280  0.00  0.00     0.000 HD
ATOM     90   O  BDP B   6      22.780  21.069   1.9320  0.00  0.00     0.000 O
ATOM     92  HD  BDP B   6      23.352  20.827   1.3280  0.00  0.00     0.000 HD
BRANCH 86 92
ATOM     92   C  BDP B   6      18.214  20.926   3.7880  0.00  0.00     0.000 C
ATOM     93   O  BDP B   6      18.280  21.597   4.8610  0.00  0.00     0.000 OA
ATOM     94   O  BDP B   6      17.426  19.942   3.6340  0.00  0.00     0.000 OA
ENDBRANCH 86 92
BRANCH 82 95
ATOM     95  O3  NAG B   7      19.724  24.784   1.6940  0.00  0.00     0.000 O
BRANCH 95 98
ATOM     96  C1  NAG B   7      18.662  27.741  -0.1670  0.00  0.00     0.000 C
ATOM     97  C2  NAG B   7      19.491  26.950   0.8350  0.00  0.00     0.000 C
ATOM     98  C3  NAG B   7      18.906  25.539   0.8010  0.00  0.00     0.000 C
ATOM     99  C4  NAG B   7      17.433  25.579   1.2020  0.00  0.00     0.000 C
ATOM    100  C5  NAG B   7      16.659  26.574   0.3360  0.00  0.00     0.000 C
ATOM    101  O5  NAG B   7      17.332  27.823   0.3570  0.00  0.00     0.000 O
BRANCH 97 104
ATOM    102   N  NAG B   7      20.912  26.657   0.5990  0.00  0.00     0.000 N
ATOM    104  HD  NAG B   7      21.676  26.252   0.5620  0.00  0.00     0.000 HD
ATOM    104   O  NAG B   7      23.151  26.878   0.8520  0.00  0.00     0.000 OA
ATOM    105   C  NAG B   7      21.997  27.279   1.0970  0.00  0.00     0.000 C
ATOM    106   C  NAG B   7      21.810  28.469   1.9750  0.00  0.00     0.000 C
ENDBRANCH 97 104
ATOM    107   O  NAG B   7      14.511  27.376  -0.1620  0.00  0.00     0.000 O
ATOM    109  HD  NAG B   7      15.281  27.160  -0.4940  0.00  0.00     0.000 HD
ATOM    109   O  NAG B   7      14.511  27.376  -0.1620  0.00  0.00     0.000 O
ATOM    111  HD  NAG B   7      15.281  27.160  -0.4940  0.00  0.00     0.000 HD
ENDBRANCH 95 98
ENDBRANCH 82 95
ENDBRANCH 81 85
ENDBRANCH 65 81
ENDBRANCH 64 67
ENDBRANCH 51 64
ENDBRANCH 50 54
ENDBRANCH 34 50
ENDBRANCH 33 36
ENDBRANCH 20 33
ENDBRANCH 19 23
ENDBRANCH 1 19
TORSDOF 19
ENDMDL
MODEL 95
REMARK VINA RESULT:      -5.1     11.647     18.851
ROOT
ATOM      1  C1  NAG B   1      11.407   7.252  12.5470  0.00  0.00     0.000 C
ATOM      2  C2  NAG B   1      12.894   7.471  12.8110  0.00  0.00     0.000 C
ATOM      3  C3  NAG B   1      13.700   6.209  12.5830  0.00  0.00     0.000 C
ATOM      4  C4  NAG B   1      13.093   5.163  13.5120  0.00  0.00     0.000 C
ATOM      5  C5  NAG B   1      11.639   4.904  13.0970  0.00  0.00     0.000 C
ATOM      6  O5  NAG B   1      10.845   6.105  13.2060  0.00  0.00     0.000 O
ATOM      7   O  NAG B   1      15.105   6.399  12.8680  0.00  0.00     0.000 O
ATOM      9  HD  NAG B   1      14.874   7.168  12.5430  0.00  0.00     0.000 HD
ATOM      9   O  NAG B   1      13.835   3.957  13.4400  0.00  0.00     0.000 O
ATOM     11  HD  NAG B   1      13.605   4.726  13.1150  0.00  0.00     0.000 HD
ATOM     11   C  NAG B   1      11.053   3.758  13.9300  0.00  0.00     0.000 C
ATOM     12   O  NAG B   1       9.641   3.899  14.0830  0.00  0.00     0.000 O
ATOM     14  HD  NAG B   1       9.411   4.668  13.7580  0.00  0.00     0.000 HD
ENDROOT
BRANCH 2 16
ATOM     14   N  NAG B   1      13.263   8.648  12.0050  0.00  0.00     0.000 N
ATOM     16  HD  NAG B   1      13.000   9.444  11.7860  0.00  0.00     0.000 HD
ATOM     16   C  NAG B   1      13.829   9.750  12.5290  0.00  0.00     0.000 C
ATOM     17   C  NAG B   1      14.088   9.829  14.0100  0.00  0.00     0.000 C
ATOM     18   O  NAG B   1      14.169  10.693  11.8160  0.00  0.00     0.000 OA
ENDBRANCH 2 16
BRANCH 1 19
ATOM     19  O4  BDP B   2      10.800   8.386  13.1510  0.00  0.00     0.000 O
BRANCH 19 23
ATOM     20  C1  BDP B   2       7.963   9.022  16.0650  0.00  0.00     0.000 C
ATOM     21  C2  BDP B   2       9.239   8.335  16.5060  0.00  0.00     0.000 C
ATOM     22  C3  BDP B   2      10.345   8.530  15.4940  0.00  0.00     0.000 C
ATOM     23  C4  BDP B   2       9.833   8.082  14.1270  0.00  0.00     0.000 C
ATOM     24  C5  BDP B   2       8.566   8.843  13.7900  0.00  0.00     0.000 C
ATOM     25  O5  BDP B   2       7.580   8.580  14.7700  0.00  0.00     0.000 O
ATOM     26   O  BDP B   2       9.652   8.829  17.7620  0.00  0.00     0.000 O
ATOM     28  HD  BDP B   2       8.855   9.164  17.7150  0.00  0.00     0.000 HD
ATOM     28   O  BDP B   2      11.502   7.785  15.9070  0.00  0.00     0.000 O
ATOM     30  HD  BDP B   2      10.705   8.121  15.8600  0.00  0.00     0.000 HD
BRANCH 24 30
ATOM     30   C  BDP B   2       8.006   8.445  12.4710  0.00  0.00     0.000 C
ATOM     31   O  BDP B   2       8.585   8.876  11.4480  0.00  0.00     0.000 OA
ATOM     32   O  BDP B   2       6.980   7.707  12.4520  0.00  0.00     0.000 OA
ENDBRANCH 24 30
BRANCH 20 33
ATOM     33  O3  NAG B   3       7.005   8.594  17.0020  0.00  0.00     0.000 O
BRANCH 33 36
ATOM     34  C1  NAG B   3       4.411  10.751  18.6670  0.00  0.00     0.000 C
ATOM     35  C2  NAG B   3       5.703   9.972  18.5080  0.00  0.00     0.000 C
ATOM     36  C3  NAG B   3       5.890   9.487  17.0630  0.00  0.00     0.000 C
ATOM     37  C4  NAG B   3       4.635   8.741  16.6140  0.00  0.00     0.000 C
ATOM     38  C5  NAG B   3       3.392   9.580  16.8970  0.00  0.00     0.000 C
ATOM     39  O5  NAG B   3       3.335   9.910  18.2740  0.00  0.00     0.000 O
ATOM     40   O  NAG B   3       4.710   8.457  15.2080  0.00  0.00     0.000 O
ATOM     42  HD  NAG B   3       3.944   8.862  15.2110  0.00  0.00     0.000 HD
ATOM     42   C  NAG B   3       2.080   8.858  16.5990  0.00  0.00     0.000 C
ATOM     43   O  NAG B   3       1.928   7.751  17.4960  0.00  0.00     0.000 O
ATOM     45  HD  NAG B   3       1.162   8.156  17.4990  0.00  0.00     0.000 HD
BRANCH 35 47
ATOM     45   N  NAG B   3       6.601   9.733  19.6310  0.00  0.00     0.000 N
ATOM     47  HD  NAG B   3       6.201   9.012  19.3650  0.00  0.00     0.000 HD
ATOM     47   C  NAG B   3       7.763  10.340  19.7620  0.00  0.00     0.000 C
ATOM     48   C  NAG B   3       8.574   9.963  20.9660  0.00  0.00     0.000 C
ATOM     49   O  NAG B   3       8.173  11.148  18.9320  0.00  0.00     0.000 OA
ENDBRANCH 35 47
BRANCH 34 50
ATOM     50  O4  BDP B   4       4.348  11.015  20.0530  0.00  0.00     0.000 O
BRANCH 50 54
ATOM     51  C1  BDP B   4       3.143  13.705  22.8570  0.00  0.00     0.000 C
ATOM     52  C2  BDP B   4       2.037  13.230  21.9200  0.00  0.00     0.000 C
ATOM     53  C3  BDP B   4       2.508  12.000  21.2070  0.00  0.00     0.000 C
ATOM     54  C4  BDP B   4       3.857  12.294  20.4890  0.00  0.00     0.000 C
ATOM     55  C5  BDP B   4       4.873  12.954  21.4100  0.00  0.00     0.000 C
ATOM     56  O5  BDP B   4       4.283  14.056  22.0940  0.00  0.00     0.000 O
ATOM     57   O  BDP B   4       0.870  12.927  22.6540  0.00  0.00     0.000 O
ATOM     59  HD  BDP B   4       0.345  13.602  22.5170  0.00  0.00     0.000 HD
ATOM     59   O  BDP B   4       1.523  11.697  20.1980  0.00  0.00     0.000 O
ATOM     61  HD  BDP B   4       0.998  12.371  20.0610  0.00  0.00     0.000 HD
BRANCH 55 61
ATOM     61   C  BDP B   4       6.048  13.449  20.5870  0.00  0.00     0.000 C
ATOM     62   O  BDP B   4       7.184  13.469  21.1310  0.00  0.00     0.000 OA
ATOM     63   O  BDP B   4       5.833  13.816  19.3920  0.00  0.00     0.000 OA
ENDBRANCH 55 61
BRANCH 51 64
ATOM     64  O3  NAG B   5       2.635  14.848  23.5720  0.00  0.00     0.000 O
BRANCH 64 67
ATOM     65  C1  NAG B   5       3.463  15.469  27.1110  0.00  0.00     0.000 C
ATOM     66  C2  NAG B   5       2.745  14.877  25.9100  0.00  0.00     0.000 C
ATOM     67  C3  NAG B   5       3.483  15.248  24.6300  0.00  0.00     0.000 C
ATOM     68  C4  NAG B   5       3.720  16.762  24.5500  0.00  0.00     0.000 C
ATOM     69  C5  NAG B   5       4.357  17.276  25.8320  0.00  0.00     0.000 C
ATOM     70  O5  NAG B   5       3.575  16.866  26.9640  0.00  0.00     0.000 O
ATOM     71   O  NAG B   5       4.535  17.033  23.4300  0.00  0.00     0.000 O
ATOM     73  HD  NAG B   5       3.976  17.688  23.3330  0.00  0.00     0.000 HD
ATOM     73   C  NAG B   5       4.514  18.802  25.8930  0.00  0.00     0.000 C
ATOM     74   O  NAG B   5       3.212  19.423  25.8820  0.00  0.00     0.000 O
ATOM     76  HD  NAG B   5       2.653  20.078  25.7850  0.00  0.00     0.000 HD
BRANCH 66 78
ATOM     76   N  NAG B   5       2.644  13.454  26.2860  0.00  0.00     0.000 N
ATOM     78  HD  NAG B   5       2.111  14.081  26.0170  0.00  0.00     0.000 HD
ATOM     78   C  NAG B   5       1.580  12.659  26.0910  0.00  0.00     0.000 C
ATOM     79   C  NAG B   5       1.791  11.247  26.5660  0.00  0.00     0.000 C
ATOM     80   O  NAG B   5       0.486  13.067  25.5610  0.00  0.00     0.000 OA
ENDBRANCH 66 78
BRANCH 65 81
ATOM     81  O4  BDP B   6       2.746  15.161  28.3140  0.00  0.00     0.000 O
BRANCH 81 85
ATOM     82  C1  BDP B   6       3.438  14.880  32.5340  0.00  0.00     0.000 C
ATOM     83  C2  BDP B   6       3.098  16.255  31.9650  0.00  0.00     0.000 C
ATOM     84  C3  BDP B   6       2.479  16.183  30.5660  0.00  0.00     0.000 C
ATOM     85  C4  BDP B   6       3.324  15.339  29.6100  0.00  0.00     0.000 C
ATOM     86  C5  BDP B   6       3.631  13.993  30.3080  0.00  0.00     0.000 C
ATOM     87  O5  BDP B   6       4.268  14.188  31.6120  0.00  0.00     0.000 O
ATOM     88   O  BDP B   6       2.157  16.820  32.8740  0.00  0.00     0.000 O
ATOM     90  HD  BDP B   6       1.421  17.276  32.8750  0.00  0.00     0.000 HD
ATOM     90   O  BDP B   6       2.294  17.506  30.0550  0.00  0.00     0.000 O
ATOM     92  HD  BDP B   6       1.558  17.962  30.0560  0.00  0.00     0.000 HD
BRANCH 86 92
ATOM     92   C  BDP B   6       4.654  13.210  29.5220  0.00  0.00     0.000 C
ATOM     93   O  BDP B   6       5.884  13.500  29.6330  0.00  0.00     0.000 OA
ATOM     94   O  BDP B   6       4.231  12.263  28.7880  0.00  0.00     0.000 OA
ENDBRANCH 86 92
BRANCH 82 95
ATOM     95  O3  NAG B   7       4.188  15.066  33.7510  0.00  0.00     0.000 O
BRANCH 95 98
ATOM     96  C1  NAG B   7       3.917  13.989  37.2300  0.00  0.00     0.000 C
ATOM     97  C2  NAG B   7       4.161  14.968  36.0900  0.00  0.00     0.000 C
ATOM     98  C3  NAG B   7       4.021  14.134  34.8190  0.00  0.00     0.000 C
ATOM     99  C4  NAG B   7       5.053  13.009  34.8200  0.00  0.00     0.000 C
ATOM    100  C5  NAG B   7       4.954  12.178  36.1000  0.00  0.00     0.000 C
ATOM    101  O5  NAG B   7       4.998  13.050  37.2190  0.00  0.00     0.000 O
BRANCH 97 104
ATOM    102   N  NAG B   7       3.186  16.053  35.9100  0.00  0.00     0.000 N
ATOM    104  HD  NAG B   7       2.596  16.583  35.5640  0.00  0.00     0.000 HD
ATOM    104   O  NAG B   7       2.457  18.193  35.7680  0.00  0.00     0.000 OA
ATOM    105   C  NAG B   7       3.374  17.383  36.0090  0.00  0.00     0.000 C
ATOM    106   C  NAG B   7       4.716  17.898  36.4030  0.00  0.00     0.000 C
ENDBRANCH 97 104
ATOM    107   O  NAG B   7       5.749  10.247  37.1670  0.00  0.00     0.000 O
ATOM    109  HD  NAG B   7       5.053  10.741  37.0250  0.00  0.00     0.000 HD
ATOM    109   O  NAG B   7       5.749  10.247  37.1670  0.00  0.00     0.000 O
ATOM    111  HD  NAG B   7       5.053  10.741  37.0250  0.00  0.00     0.000 HD
ENDBRANCH 95 98
ENDBRANCH 82 95
ENDBRANCH 81 85
ENDBRANCH 65 81
ENDBRANCH 64 67
ENDBRANCH 51 64
ENDBRANCH 50 54
ENDBRANCH 34 50
ENDBRANCH 33 36
ENDBRANCH 20 33
ENDBRANCH 19 23
ENDBRANCH 1 19
TORSDOF 19
ENDMDL
MODEL 96
REMARK VINA RESULT:      -5.1      4.125      6.778
ROOT
ATOM      1  C1  NAG B   1       3.480   9.650  18.5360  0.00  0.00     0.000 C
ATOM      2  C2  NAG B   1       1.960   9.528  18.4580  0.00  0.00     0.000 C
ATOM      3  C3  NAG B   1       1.273  10.850  18.7310  0.00  0.00     0.000 C
ATOM      4  C4  NAG B   1       1.751  11.280  20.1140  0.00  0.00     0.000 C
ATOM      5  C5  NAG B   1       3.267  11.509  20.0740  0.00  0.00     0.000 C
ATOM      6  O5  NAG B   1       3.968  10.296  19.7230  0.00  0.00     0.000 O
ATOM      7   O  NAG B   1      -0.167  10.734  18.6960  0.00  0.00     0.000 O
ATOM      9  HD  NAG B   1       0.080  10.170  18.0870  0.00  0.00     0.000 HD
ATOM      9   O  NAG B   1       1.095  12.474  20.5070  0.00  0.00     0.000 O
ATOM     11  HD  NAG B   1       1.343  11.910  19.8980  0.00  0.00     0.000 HD
ATOM     11   C  NAG B   1       3.747  12.073  21.4170  0.00  0.00     0.000 C
ATOM     12   O  NAG B   1       5.099  11.700  21.6820  0.00  0.00     0.000 O
ATOM     14  HD  NAG B   1       5.346  11.136  21.0730  0.00  0.00     0.000 HD
ENDROOT
BRANCH 2 16
ATOM     14   N  NAG B   1       1.506   8.150  18.1970  0.00  0.00     0.000 N
ATOM     16  HD  NAG B   1       0.798   7.654  18.1570  0.00  0.00     0.000 HD
ATOM     16   C  NAG B   1       0.982   7.759  17.0230  0.00  0.00     0.000 C
ATOM     17   C  NAG B   1       0.810   8.756  15.9070  0.00  0.00     0.000 C
ATOM     18   O  NAG B   1       0.659   6.588  16.8260  0.00  0.00     0.000 OA
ENDBRANCH 2 16
BRANCH 1 19
ATOM     19  O4  BDP B   2       3.909   8.298  18.6230  0.00  0.00     0.000 O
BRANCH 19 23
ATOM     20  C1  BDP B   2       7.752   9.016  17.3340  0.00  0.00     0.000 C
ATOM     21  C2  BDP B   2       6.724   8.730  16.2590  0.00  0.00     0.000 C
ATOM     22  C3  BDP B   2       5.317   8.899  16.7870  0.00  0.00     0.000 C
ATOM     23  C4  BDP B   2       5.166   8.044  18.0420  0.00  0.00     0.000 C
ATOM     24  C5  BDP B   2       6.236   8.427  19.0450  0.00  0.00     0.000 C
ATOM     25  O5  BDP B   2       7.515   8.210  18.4800  0.00  0.00     0.000 O
ATOM     26   O  BDP B   2       6.922   9.583  15.1520  0.00  0.00     0.000 O
ATOM     28  HD  BDP B   2       7.652   9.727  15.5950  0.00  0.00     0.000 HD
ATOM     28   O  BDP B   2       4.380   8.527  15.7640  0.00  0.00     0.000 O
ATOM     30  HD  BDP B   2       5.110   8.672  16.2070  0.00  0.00     0.000 HD
BRANCH 24 30
ATOM     30   C  BDP B   2       6.152   7.621  20.2910  0.00  0.00     0.000 C
ATOM     31   O  BDP B   2       6.241   6.377  20.1770  0.00  0.00     0.000 OA
ATOM     32   O  BDP B   2       5.990   8.226  21.3890  0.00  0.00     0.000 OA
ENDBRANCH 24 30
BRANCH 20 33
ATOM     33  O3  NAG B   3       8.973   8.638  16.7470  0.00  0.00     0.000 O
BRANCH 33 36
ATOM     34  C1  NAG B   3      12.110  10.650  16.2420  0.00  0.00     0.000 C
ATOM     35  C2  NAG B   3      10.851   9.890  15.8720  0.00  0.00     0.000 C
ATOM     36  C3  NAG B   3      10.034   9.520  17.1190  0.00  0.00     0.000 C
ATOM     37  C4  NAG B   3      10.939   8.809  18.1230  0.00  0.00     0.000 C
ATOM     38  C5  NAG B   3      12.211   9.620  18.3560  0.00  0.00     0.000 C
ATOM     39  O5  NAG B   3      12.875   9.841  17.1230  0.00  0.00     0.000 O
ATOM     40   O  NAG B   3      10.248   8.637  19.3700  0.00  0.00     0.000 O
ATOM     42  HD  NAG B   3      10.952   9.039  19.6740  0.00  0.00     0.000 HD
ATOM     42   C  NAG B   3      13.234   8.921  19.2480  0.00  0.00     0.000 C
ATOM     43   O  NAG B   3      13.722   7.746  18.5880  0.00  0.00     0.000 O
ATOM     45  HD  NAG B   3      14.426   8.148  18.8920  0.00  0.00     0.000 HD
BRANCH 35 47
ATOM     45   N  NAG B   3      10.434   9.484  14.5360  0.00  0.00     0.000 N
ATOM     47  HD  NAG B   3      10.546   8.811  15.0690  0.00  0.00     0.000 HD
ATOM     47   C  NAG B   3       9.560  10.163  13.8200  0.00  0.00     0.000 C
ATOM     48   C  NAG B   3       9.225   9.595  12.4730  0.00  0.00     0.000 C
ATOM     49   O  NAG B   3       9.029  11.188  14.2410  0.00  0.00     0.000 OA
ENDBRANCH 35 47
BRANCH 34 50
ATOM     50  O4  BDP B   4      12.782  10.805  15.0090  0.00  0.00     0.000 O
BRANCH 50 54
ATOM     51  C1  BDP B   4      13.788  14.074  12.8060  0.00  0.00     0.000 C
ATOM     52  C2  BDP B   4      14.913  13.062  12.9840  0.00  0.00     0.000 C
ATOM     53  C3  BDP B   4      14.325  11.772  13.4690  0.00  0.00     0.000 C
ATOM     54  C4  BDP B   4      13.500  12.026  14.7630  0.00  0.00     0.000 C
ATOM     55  C5  BDP B   4      12.521  13.182  14.6090  0.00  0.00     0.000 C
ATOM     56  O5  BDP B   4      13.178  14.321  14.0600  0.00  0.00     0.000 O
ATOM     57   O  BDP B   4      15.572  12.841  11.7550  0.00  0.00     0.000 O
ATOM     59  HD  BDP B   4      16.311  13.289  11.8200  0.00  0.00     0.000 HD
ATOM     59   O  BDP B   4      15.430  10.909  13.8090  0.00  0.00     0.000 O
ATOM     61  HD  BDP B   4      16.168  11.357  13.8740  0.00  0.00     0.000 HD
BRANCH 55 61
ATOM     61   C  BDP B   4      11.952  13.542  15.9690  0.00  0.00     0.000 C
ATOM     62   O  BDP B   4      12.759  13.732  16.9160  0.00  0.00     0.000 OA
ATOM     63   O  BDP B   4      10.692  13.635  16.0880  0.00  0.00     0.000 OA
ENDBRANCH 55 61
BRANCH 51 64
ATOM     64  O3  NAG B   5      14.376  15.279  12.2780  0.00  0.00     0.000 O
BRANCH 64 67
ATOM     65  C1  NAG B   5      12.666  18.112  10.6530  0.00  0.00     0.000 C
ATOM     66  C2  NAG B   5      13.443  16.813  10.7760  0.00  0.00     0.000 C
ATOM     67  C3  NAG B   5      13.461  16.356  12.2290  0.00  0.00     0.000 C
ATOM     68  C4  NAG B   5      13.945  17.480  13.1550  0.00  0.00     0.000 C
ATOM     69  C5  NAG B   5      13.171  18.762  12.8930  0.00  0.00     0.000 C
ATOM     70  O5  NAG B   5      13.226  19.090  11.4970  0.00  0.00     0.000 O
ATOM     71   O  NAG B   5      13.798  17.058  14.4940  0.00  0.00     0.000 O
ATOM     73  HD  NAG B   5      14.575  17.430  14.5700  0.00  0.00     0.000 HD
ATOM     73   C  NAG B   5      13.674  19.977  13.6860  0.00  0.00     0.000 C
ATOM     74   O  NAG B   5      15.020  20.298  13.2770  0.00  0.00     0.000 O
ATOM     76  HD  NAG B   5      15.798  20.670  13.3540  0.00  0.00     0.000 HD
BRANCH 66 78
ATOM     76   N  NAG B   5      12.918  16.218   9.5320  0.00  0.00     0.000 N
ATOM     78  HD  NAG B   5      13.614  16.124  10.0390  0.00  0.00     0.000 HD
ATOM     78   C  NAG B   5      13.387  15.116   8.9250  0.00  0.00     0.000 C
ATOM     79   C  NAG B   5      12.627  14.748   7.6800  0.00  0.00     0.000 C
ATOM     80   O  NAG B   5      14.390  14.446   9.3600  0.00  0.00     0.000 OA
ENDBRANCH 66 78
BRANCH 65 81
ATOM     81  O4  BDP B   6      12.686  18.571   9.2950  0.00  0.00     0.000 O
BRANCH 81 85
ATOM     82  C1  BDP B   6      11.370  21.876   6.9060  0.00  0.00     0.000 C
ATOM     83  C2  BDP B   6      12.357  22.169   8.0330  0.00  0.00     0.000 C
ATOM     84  C3  BDP B   6      13.065  20.912   8.5450  0.00  0.00     0.000 C
ATOM     85  C4  BDP B   6      12.074  19.801   8.8990  0.00  0.00     0.000 C
ATOM     86  C5  BDP B   6      11.112  19.622   7.7000  0.00  0.00     0.000 C
ATOM     87  O5  BDP B   6      10.455  20.878   7.3360  0.00  0.00     0.000 O
ATOM     88   O  BDP B   6      13.316  23.063   7.4750  0.00  0.00     0.000 O
ATOM     90  HD  BDP B   6      14.170  23.206   7.4680  0.00  0.00     0.000 HD
ATOM     90   O  BDP B   6      13.883  21.246   9.6690  0.00  0.00     0.000 O
ATOM     92  HD  BDP B   6      14.737  21.389   9.6620  0.00  0.00     0.000 HD
BRANCH 86 92
ATOM     92   C  BDP B   6       9.966  18.712   8.0720  0.00  0.00     0.000 C
ATOM     93   O  BDP B   6      10.005  17.490   7.7350  0.00  0.00     0.000 OA
ATOM     94   O  BDP B   6       9.009  19.216   8.7370  0.00  0.00     0.000 OA
ENDBRANCH 86 92
BRANCH 82 95
ATOM     95  O3  NAG B   7      10.620  23.077   6.6360  0.00  0.00     0.000 O
BRANCH 95 98
ATOM     96  C1  NAG B   7       9.662  24.990   3.6760  0.00  0.00     0.000 C
ATOM     97  C2  NAG B   7      10.181  24.782   5.0920  0.00  0.00     0.000 C
ATOM     98  C3  NAG B   7      10.075  23.278   5.3330  0.00  0.00     0.000 C
ATOM     99  C4  NAG B   7       8.621  22.832   5.1990  0.00  0.00     0.000 C
ATOM    100  C5  NAG B   7       8.037  23.271   3.8560  0.00  0.00     0.000 C
ATOM    101  O5  NAG B   7       8.269  24.661   3.6850  0.00  0.00     0.000 O
BRANCH 97 104
ATOM    102   N  NAG B   7      11.531  24.965   5.6430  0.00  0.00     0.000 N
ATOM    104  HD  NAG B   7      12.210  24.971   6.1810  0.00  0.00     0.000 HD
ATOM    104   O  NAG B   7      13.367  26.109   6.3150  0.00  0.00     0.000 OA
ATOM    105   C  NAG B   7      12.247  26.099   5.7680  0.00  0.00     0.000 C
ATOM    106   C  NAG B   7      11.676  27.376   5.2520  0.00  0.00     0.000 C
ENDBRANCH 97 104
ATOM    107   O  NAG B   7       6.162  23.085   2.4580  0.00  0.00     0.000 O
ATOM    109  HD  NAG B   7       7.027  23.118   2.4820  0.00  0.00     0.000 HD
ATOM    109   O  NAG B   7       6.162  23.085   2.4580  0.00  0.00     0.000 O
ATOM    111  HD  NAG B   7       7.027  23.118   2.4820  0.00  0.00     0.000 HD
ENDBRANCH 95 98
ENDBRANCH 82 95
ENDBRANCH 81 85
ENDBRANCH 65 81
ENDBRANCH 64 67
ENDBRANCH 51 64
ENDBRANCH 50 54
ENDBRANCH 34 50
ENDBRANCH 33 36
ENDBRANCH 20 33
ENDBRANCH 19 23
ENDBRANCH 1 19
TORSDOF 19
ENDMDL
MODEL 97
REMARK VINA RESULT:      -5.1      7.906     11.670
ROOT
ATOM      1  C1  NAG B   1       9.087  13.467  21.5450  0.00  0.00     0.000 C
ATOM      2  C2  NAG B   1       8.694  14.373  22.7090  0.00  0.00     0.000 C
ATOM      3  C3  NAG B   1       9.848  14.595  23.6650  0.00  0.00     0.000 C
ATOM      4  C4  NAG B   1      10.268  13.203  24.1280  0.00  0.00     0.000 C
ATOM      5  C5  NAG B   1      10.772  12.403  22.9200  0.00  0.00     0.000 C
ATOM      6  O5  NAG B   1       9.734  12.244  21.9300  0.00  0.00     0.000 O
ATOM      7   O  NAG B   1       9.472  15.420  24.7910  0.00  0.00     0.000 O
ATOM      9  HD  NAG B   1       9.003  15.759  24.1470  0.00  0.00     0.000 HD
ATOM      9   O  NAG B   1      11.294  13.301  25.1010  0.00  0.00     0.000 O
ATOM     11  HD  NAG B   1      10.825  13.640  24.4560  0.00  0.00     0.000 HD
ATOM     11   C  NAG B   1      11.327  11.050  23.3830  0.00  0.00     0.000 C
ATOM     12   O  NAG B   1      11.192  10.059  22.3660  0.00  0.00     0.000 O
ATOM     14  HD  NAG B   1      10.723  10.398  21.7210  0.00  0.00     0.000 HD
ENDROOT
BRANCH 2 16
ATOM     14   N  NAG B   1       8.163  15.666  22.2420  0.00  0.00     0.000 N
ATOM     16  HD  NAG B   1       7.725  16.038  21.5940  0.00  0.00     0.000 HD
ATOM     16   C  NAG B   1       6.872  16.020  22.3720  0.00  0.00     0.000 C
ATOM     17   C  NAG B   1       5.890  15.064  22.9950  0.00  0.00     0.000 C
ATOM     18   O  NAG B   1       6.476  17.129  22.0160  0.00  0.00     0.000 OA
ENDBRANCH 2 16
BRANCH 1 19
ATOM     19  O4  BDP B   2       7.834  13.090  20.9910  0.00  0.00     0.000 O
BRANCH 19 23
ATOM     20  C1  BDP B   2       9.254  12.152  17.2430  0.00  0.00     0.000 C
ATOM     21  C2  BDP B   2       8.942  13.612  17.4990  0.00  0.00     0.000 C
ATOM     22  C3  BDP B   2       8.840  13.900  18.9800  0.00  0.00     0.000 C
ATOM     23  C4  BDP B   2       7.836  12.928  19.5930  0.00  0.00     0.000 C
ATOM     24  C5  BDP B   2       8.258  11.505  19.2830  0.00  0.00     0.000 C
ATOM     25  O5  BDP B   2       8.298  11.317  17.8810  0.00  0.00     0.000 O
ATOM     26   O  BDP B   2       9.934  14.433  16.9220  0.00  0.00     0.000 O
ATOM     28  HD  BDP B   2      10.134  13.670  16.5640  0.00  0.00     0.000 HD
ATOM     28   O  BDP B   2       8.451  15.269  19.1700  0.00  0.00     0.000 O
ATOM     30  HD  BDP B   2       8.652  14.506  18.8130  0.00  0.00     0.000 HD
BRANCH 24 30
ATOM     30   C  BDP B   2       7.313  10.504  19.8440  0.00  0.00     0.000 C
ATOM     31   O  BDP B   2       7.732   9.777  20.7740  0.00  0.00     0.000 OA
ATOM     32   O  BDP B   2       6.150  10.433  19.3530  0.00  0.00     0.000 OA
ENDBRANCH 24 30
BRANCH 20 33
ATOM     33  O3  NAG B   3       9.130  12.017  15.8490  0.00  0.00     0.000 O
BRANCH 33 36
ATOM     34  C1  NAG B   3      11.202   9.592  13.8540  0.00  0.00     0.000 C
ATOM     35  C2  NAG B   3      10.821  10.898  14.5250  0.00  0.00     0.000 C
ATOM     36  C3  NAG B   3       9.569  10.732  15.4010  0.00  0.00     0.000 C
ATOM     37  C4  NAG B   3       8.457  10.089  14.5760  0.00  0.00     0.000 C
ATOM     38  C5  NAG B   3       8.973   8.834  13.8780  0.00  0.00     0.000 C
ATOM     39  O5  NAG B   3      10.097   9.154  13.0760  0.00  0.00     0.000 O
ATOM     40   O  NAG B   3       7.352   9.743  15.4260  0.00  0.00     0.000 O
ATOM     42  HD  NAG B   3       7.479   8.966  15.0660  0.00  0.00     0.000 HD
ATOM     42   C  NAG B   3       7.964   8.197  12.9270  0.00  0.00     0.000 C
ATOM     43   O  NAG B   3       7.710   9.086  11.8320  0.00  0.00     0.000 O
ATOM     45  HD  NAG B   3       7.836   8.309  11.4720  0.00  0.00     0.000 HD
BRANCH 35 47
ATOM     45   N  NAG B   3      11.495  12.179  14.3550  0.00  0.00     0.000 N
ATOM     47  HD  NAG B   3      10.672  12.197  14.0880  0.00  0.00     0.000 HD
ATOM     47   C  NAG B   3      12.362  12.654  15.2270  0.00  0.00     0.000 C
ATOM     48   C  NAG B   3      12.949  13.997  14.9090  0.00  0.00     0.000 C
ATOM     49   O  NAG B   3      12.652  12.047  16.2550  0.00  0.00     0.000 OA
ENDBRANCH 35 47
BRANCH 34 50
ATOM     50  O4  BDP B   4      12.282   9.950  13.0170  0.00  0.00     0.000 O
BRANCH 50 54
ATOM     51  C1  BDP B   4      15.562   8.479  11.1110  0.00  0.00     0.000 C
ATOM     52  C2  BDP B   4      14.317   7.607  10.9900  0.00  0.00     0.000 C
ATOM     53  C3  BDP B   4      13.123   8.417  11.3950  0.00  0.00     0.000 C
ATOM     54  C4  BDP B   4      13.344   9.001  12.8200  0.00  0.00     0.000 C
ATOM     55  C5  BDP B   4      14.692   9.695  12.9590  0.00  0.00     0.000 C
ATOM     56  O5  BDP B   4      15.735   8.861  12.4630  0.00  0.00     0.000 O
ATOM     57   O  BDP B   4      14.154   7.168   9.6580  0.00  0.00     0.000 O
ATOM     59  HD  BDP B   4      14.418   6.343   9.6670  0.00  0.00     0.000 HD
ATOM     59   O  BDP B   4      12.002   7.512  11.4540  0.00  0.00     0.000 O
ATOM     61  HD  BDP B   4      12.266   6.687  11.4630  0.00  0.00     0.000 HD
BRANCH 55 61
ATOM     61   C  BDP B   4      14.950  10.000  14.4240  0.00  0.00     0.000 C
ATOM     62   O  BDP B   4      14.582   9.151  15.2770  0.00  0.00     0.000 OA
ATOM     63   O  BDP B   4      15.525  11.092  14.7180  0.00  0.00     0.000 OA
ENDBRANCH 55 61
BRANCH 51 64
ATOM     64  O3  NAG B   5      16.679   7.693  10.6540  0.00  0.00     0.000 O
BRANCH 64 67
ATOM     65  C1  NAG B   5      18.908   9.379   8.2480  0.00  0.00     0.000 C
ATOM     66  C2  NAG B   5      17.647   8.727   8.7900  0.00  0.00     0.000 C
ATOM     67  C3  NAG B   5      17.790   8.488  10.2880  0.00  0.00     0.000 C
ATOM     68  C4  NAG B   5      19.087   7.731  10.6050  0.00  0.00     0.000 C
ATOM     69  C5  NAG B   5      20.278   8.406   9.9440  0.00  0.00     0.000 C
ATOM     70  O5  NAG B   5      20.028   8.576   8.5410  0.00  0.00     0.000 O
ATOM     71   O  NAG B   5      19.245   7.672  12.0060  0.00  0.00     0.000 O
ATOM     73  HD  NAG B   5      19.483   6.859  11.8240  0.00  0.00     0.000 HD
ATOM     73   C  NAG B   5      21.603   7.646  10.1010  0.00  0.00     0.000 C
ATOM     74   O  NAG B   5      21.512   6.372   9.4290  0.00  0.00     0.000 O
ATOM     76  HD  NAG B   5      21.750   5.560   9.2460  0.00  0.00     0.000 HD
BRANCH 66 78
ATOM     76   N  NAG B   5      16.507   9.619   8.5070  0.00  0.00     0.000 N
ATOM     78  HD  NAG B   5      16.788   8.843   8.2460  0.00  0.00     0.000 HD
ATOM     78   C  NAG B   5      15.403   9.294   7.8160  0.00  0.00     0.000 C
ATOM     79   C  NAG B   5      14.408  10.418   7.7130  0.00  0.00     0.000 C
ATOM     80   O  NAG B   5      15.219   8.141   7.2860  0.00  0.00     0.000 OA
ENDBRANCH 66 78
BRANCH 65 81
ATOM     81  O4  BDP B   6      18.797   9.562   6.8310  0.00  0.00     0.000 O
BRANCH 81 85
ATOM     82  C1  BDP B   6      19.630  12.578   3.9020  0.00  0.00     0.000 C
ATOM     83  C2  BDP B   6      20.714  11.539   4.1730  0.00  0.00     0.000 C
ATOM     84  C3  BDP B   6      20.184  10.302   4.9030  0.00  0.00     0.000 C
ATOM     85  C4  BDP B   6      19.394  10.674   6.1590  0.00  0.00     0.000 C
ATOM     86  C5  BDP B   6      18.357  11.753   5.7670  0.00  0.00     0.000 C
ATOM     87  O5  BDP B   6      18.986  12.908   5.1250  0.00  0.00     0.000 O
ATOM     88   O  BDP B   6      21.206  11.160   2.8900  0.00  0.00     0.000 O
ATOM     90  HD  BDP B   6      21.449  10.455   2.4500  0.00  0.00     0.000 HD
ATOM     90   O  BDP B   6      21.272   9.430   5.2210  0.00  0.00     0.000 O
ATOM     92  HD  BDP B   6      21.514   8.725   4.7810  0.00  0.00     0.000 HD
BRANCH 86 92
ATOM     92   C  BDP B   6      17.706  12.336   6.9980  0.00  0.00     0.000 C
ATOM     93   O  BDP B   6      16.499  12.719   6.9440  0.00  0.00     0.000 OA
ATOM     94   O  BDP B   6      18.405  12.396   8.0570  0.00  0.00     0.000 OA
ENDBRANCH 86 92
BRANCH 82 95
ATOM     95  O3  NAG B   7      20.261  13.771   3.3980  0.00  0.00     0.000 O
BRANCH 95 98
ATOM     96  C1  NAG B   7      20.069  16.279   0.7490  0.00  0.00     0.000 C
ATOM     97  C2  NAG B   7      20.598  15.639   2.0260  0.00  0.00     0.000 C
ATOM     98  C3  NAG B   7      19.724  14.404   2.2370  0.00  0.00     0.000 C
ATOM     99  C4  NAG B   7      18.263  14.822   2.3860  0.00  0.00     0.000 C
ATOM    100  C5  NAG B   7      17.817  15.680   1.2010  0.00  0.00     0.000 C
ATOM    101  O5  NAG B   7      18.743  16.742   1.0280  0.00  0.00     0.000 O
BRANCH 97 104
ATOM    102   N  NAG B   7      21.956  15.079   2.0200  0.00  0.00     0.000 N
ATOM    104  HD  NAG B   7      22.628  14.539   2.1080  0.00  0.00     0.000 HD
ATOM    104   O  NAG B   7      24.132  14.892   2.6230  0.00  0.00     0.000 OA
ATOM    105   C  NAG B   7      23.050  15.509   2.6780  0.00  0.00     0.000 C
ATOM    106   C  NAG B   7      22.958  16.746   3.5050  0.00  0.00     0.000 C
ENDBRANCH 97 104
ATOM    107   O  NAG B   7      15.960  16.709   0.2030  0.00  0.00     0.000 O
ATOM    109  HD  NAG B   7      16.693  16.273   0.0530  0.00  0.00     0.000 HD
ATOM    109   O  NAG B   7      15.960  16.709   0.2030  0.00  0.00     0.000 O
ATOM    111  HD  NAG B   7      16.693  16.273   0.0530  0.00  0.00     0.000 HD
ENDBRANCH 95 98
ENDBRANCH 82 95
ENDBRANCH 81 85
ENDBRANCH 65 81
ENDBRANCH 64 67
ENDBRANCH 51 64
ENDBRANCH 50 54
ENDBRANCH 34 50
ENDBRANCH 33 36
ENDBRANCH 20 33
ENDBRANCH 19 23
ENDBRANCH 1 19
TORSDOF 19
ENDMDL
MODEL 98
REMARK VINA RESULT:      -5.1      8.397     14.823
ROOT
ATOM      1  C1  NAG B   1      23.763   5.524  13.3920  0.00  0.00     0.000 C
ATOM      2  C2  NAG B   1      24.925   4.699  13.9370  0.00  0.00     0.000 C
ATOM      3  C3  NAG B   1      25.016   4.781  15.4470  0.00  0.00     0.000 C
ATOM      4  C4  NAG B   1      25.158   6.266  15.7670  0.00  0.00     0.000 C
ATOM      5  C5  NAG B   1      23.894   7.002  15.3060  0.00  0.00     0.000 C
ATOM      6  O5  NAG B   1      23.707   6.874  13.8800  0.00  0.00     0.000 O
ATOM      7   O  NAG B   1      26.139   4.033  15.9670  0.00  0.00     0.000 O
ATOM      9  HD  NAG B   1      25.890   3.551  15.2920  0.00  0.00     0.000 HD
ATOM      9   O  NAG B   1      25.340   6.450  17.1610  0.00  0.00     0.000 O
ATOM     11  HD  NAG B   1      25.091   5.968  16.4850  0.00  0.00     0.000 HD
ATOM     11   C  NAG B   1      23.956   8.472  15.7400  0.00  0.00     0.000 C
ATOM     12   O  NAG B   1      23.225   9.308  14.8450  0.00  0.00     0.000 O
ATOM     14  HD  NAG B   1      22.975   8.826  14.1700  0.00  0.00     0.000 HD
ENDROOT
BRANCH 2 16
ATOM     14   N  NAG B   1      25.722   4.063  12.8730  0.00  0.00     0.000 N
ATOM     16  HD  NAG B   1      26.451   3.618  12.7300  0.00  0.00     0.000 HD
ATOM     16   C  NAG B   1      25.707   2.740  12.6340  0.00  0.00     0.000 C
ATOM     17   C  NAG B   1      24.869   1.831  13.4930  0.00  0.00     0.000 C
ATOM     18   O  NAG B   1      26.348   2.253  11.7040  0.00  0.00     0.000 OA
ENDBRANCH 2 16
BRANCH 1 19
ATOM     19  O4  BDP B   2      24.057   5.622  12.0050  0.00  0.00     0.000 O
BRANCH 19 23
ATOM     20  C1  BDP B   2      20.170   6.278  10.8220  0.00  0.00     0.000 C
ATOM     21  C2  BDP B   2      20.611   4.832  10.9110  0.00  0.00     0.000 C
ATOM     22  C3  BDP B   2      21.871   4.693  11.7360  0.00  0.00     0.000 C
ATOM     23  C4  BDP B   2      22.927   5.636  11.1660  0.00  0.00     0.000 C
ATOM     24  C5  BDP B   2      22.378   7.049  11.1370  0.00  0.00     0.000 C
ATOM     25  O5  BDP B   2      21.222   7.092  10.3230  0.00  0.00     0.000 O
ATOM     26   O  BDP B   2      19.586   4.041  11.4720  0.00  0.00     0.000 O
ATOM     28  HD  BDP B   2      19.153   4.777  11.3240  0.00  0.00     0.000 HD
ATOM     28   O  BDP B   2      22.302   3.323  11.7140  0.00  0.00     0.000 O
ATOM     30  HD  BDP B   2      21.870   4.059  11.5660  0.00  0.00     0.000 HD
BRANCH 24 30
ATOM     30   C  BDP B   2      23.356   8.021  10.5810  0.00  0.00     0.000 C
ATOM     31   O  BDP B   2      23.604   9.041  11.2640  0.00  0.00     0.000 OA
ATOM     32   O  BDP B   2      23.876   7.773   9.4560  0.00  0.00     0.000 OA
ENDBRANCH 24 30
BRANCH 20 33
ATOM     33  O3  NAG B   3      19.119   6.256   9.8870  0.00  0.00     0.000 O
BRANCH 33 36
ATOM     34  C1  NAG B   3      16.248   8.667  10.2050  0.00  0.00     0.000 C
ATOM     35  C2  NAG B   3      17.071   7.416  10.4540  0.00  0.00     0.000 C
ATOM     36  C3  NAG B   3      18.459   7.522   9.8040  0.00  0.00     0.000 C
ATOM     37  C4  NAG B   3      18.300   7.901   8.3330  0.00  0.00     0.000 C
ATOM     38  C5  NAG B   3      17.388   9.117   8.1950  0.00  0.00     0.000 C
ATOM     39  O5  NAG B   3      16.135   8.852   8.8020  0.00  0.00     0.000 O
ATOM     40   O  NAG B   3      19.584   8.199   7.7620  0.00  0.00     0.000 O
ATOM     42  HD  NAG B   3      19.180   8.935   7.5490  0.00  0.00     0.000 HD
ATOM     42   C  NAG B   3      17.068   9.487   6.7490  0.00  0.00     0.000 C
ATOM     43   O  NAG B   3      16.297   8.442   6.1460  0.00  0.00     0.000 O
ATOM     45  HD  NAG B   3      15.893   9.177   5.9320  0.00  0.00     0.000 HD
BRANCH 35 47
ATOM     45   N  NAG B   3      17.086   7.182  11.8920  0.00  0.00     0.000 N
ATOM     47  HD  NAG B   3      16.682   7.917  11.6790  0.00  0.00     0.000 HD
ATOM     47   C  NAG B   3      16.946   5.985  12.4250  0.00  0.00     0.000 C
ATOM     48   C  NAG B   3      16.965   5.922  13.9240  0.00  0.00     0.000 C
ATOM     49   O  NAG B   3      16.782   4.980  11.7370  0.00  0.00     0.000 OA
ENDBRANCH 35 47
BRANCH 34 50
ATOM     50  O4  BDP B   4      14.989   8.355  10.7640  0.00  0.00     0.000 O
BRANCH 50 54
ATOM     51  C1  BDP B   4      11.843   9.917  12.8170  0.00  0.00     0.000 C
ATOM     52  C2  BDP B   4      11.737  10.049  11.3020  0.00  0.00     0.000 C
ATOM     53  C3  BDP B   4      12.735   9.128  10.6700  0.00  0.00     0.000 C
ATOM     54  C4  BDP B   4      14.156   9.431  11.2270  0.00  0.00     0.000 C
ATOM     55  C5  BDP B   4      14.180   9.489  12.7490  0.00  0.00     0.000 C
ATOM     56  O5  BDP B   4      13.134  10.326  13.2320  0.00  0.00     0.000 O
ATOM     57   O  BDP B   4      10.439   9.699  10.8690  0.00  0.00     0.000 O
ATOM     59  HD  BDP B   4      10.052  10.457  10.7050  0.00  0.00     0.000 HD
ATOM     59   O  BDP B   4      12.740   9.420   9.2570  0.00  0.00     0.000 O
ATOM     61  HD  BDP B   4      12.354  10.177   9.0930  0.00  0.00     0.000 HD
BRANCH 55 61
ATOM     61   C  BDP B   4      15.516  10.045  13.2070  0.00  0.00     0.000 C
ATOM     62   O  BDP B   4      15.828  11.209  12.8430  0.00  0.00     0.000 OA
ATOM     63   O  BDP B   4      16.254   9.313  13.9350  0.00  0.00     0.000 OA
ENDBRANCH 55 61
BRANCH 51 64
ATOM     64  O3  NAG B   5      10.829  10.765  13.3910  0.00  0.00     0.000 O
BRANCH 64 67
ATOM     65  C1  NAG B   5       9.139   9.447  16.3910  0.00  0.00     0.000 C
ATOM     66  C2  NAG B   5       9.540   9.562  14.9300  0.00  0.00     0.000 C
ATOM     67  C3  NAG B   5      10.677  10.565  14.7830  0.00  0.00     0.000 C
ATOM     68  C4  NAG B   5      10.326  11.899  15.4550  0.00  0.00     0.000 C
ATOM     69  C5  NAG B   5       9.849  11.673  16.8810  0.00  0.00     0.000 C
ATOM     70  O5  NAG B   5       8.781  10.714  16.8930  0.00  0.00     0.000 O
ATOM     71   O  NAG B   5      11.464  12.734  15.4230  0.00  0.00     0.000 O
ATOM     73  HD  NAG B   5      10.871  13.331  15.2180  0.00  0.00     0.000 HD
ATOM     73   C  NAG B   5       9.355  12.942  17.5910  0.00  0.00     0.000 C
ATOM     74   O  NAG B   5       8.187  13.451  16.9130  0.00  0.00     0.000 O
ATOM     76  HD  NAG B   5       7.594  14.048  16.7080  0.00  0.00     0.000 HD
BRANCH 66 78
ATOM     76   N  NAG B   5       9.856   8.177  14.5310  0.00  0.00     0.000 N
ATOM     78  HD  NAG B   5       9.310   8.802  14.2840  0.00  0.00     0.000 HD
ATOM     78   C  NAG B   5       9.426   7.559  13.4190  0.00  0.00     0.000 C
ATOM     79   C  NAG B   5       9.936   6.150  13.2810  0.00  0.00     0.000 C
ATOM     80   O  NAG B   5       8.648   8.113  12.5630  0.00  0.00     0.000 OA
ENDBRANCH 66 78
BRANCH 65 81
ATOM     81  O4  BDP B   6       8.038   8.539  16.5300  0.00  0.00     0.000 O
BRANCH 81 85
ATOM     82  C1  BDP B   6       6.660   5.631  19.3600  0.00  0.00     0.000 C
ATOM     83  C2  BDP B   6       6.009   7.011  19.3920  0.00  0.00     0.000 C
ATOM     84  C3  BDP B   6       6.263   7.820  18.1170  0.00  0.00     0.000 C
ATOM     85  C4  BDP B   6       7.751   7.875  17.7620  0.00  0.00     0.000 C
ATOM     86  C5  BDP B   6       8.302   6.430  17.7960  0.00  0.00     0.000 C
ATOM     87  O5  BDP B   6       8.045   5.778  19.0810  0.00  0.00     0.000 O
ATOM     88   O  BDP B   6       4.612   6.769  19.5320  0.00  0.00     0.000 O
ATOM     90  HD  BDP B   6       3.851   7.053  19.2290  0.00  0.00     0.000 HD
ATOM     90   O  BDP B   6       5.723   9.135  18.2670  0.00  0.00     0.000 O
ATOM     92  HD  BDP B   6       4.963   9.419  17.9640  0.00  0.00     0.000 HD
BRANCH 86 92
ATOM     92   C  BDP B   6       9.808   6.434  17.6900  0.00  0.00     0.000 C
ATOM     93   O  BDP B   6      10.360   6.016  16.6270  0.00  0.00     0.000 OA
ATOM     94   O  BDP B   6      10.464   6.886  18.6790  0.00  0.00     0.000 OA
ENDBRANCH 86 92
BRANCH 82 95
ATOM     95  O3  NAG B   7       6.532   5.038  20.6670  0.00  0.00     0.000 O
BRANCH 95 98
ATOM     96  C1  NAG B   7       5.736   1.652  21.7800  0.00  0.00     0.000 C
ATOM     97  C2  NAG B   7       5.562   3.161  21.6760  0.00  0.00     0.000 C
ATOM     98  C3  NAG B   7       6.732   3.633  20.8150  0.00  0.00     0.000 C
ATOM     99  C4  NAG B   7       8.052   3.268  21.4880  0.00  0.00     0.000 C
ATOM    100  C5  NAG B   7       8.106   1.774  21.8110  0.00  0.00     0.000 C
ATOM    101  O5  NAG B   7       6.934   1.416  22.5280  0.00  0.00     0.000 O
BRANCH 97 104
ATOM    102   N  NAG B   7       4.384   3.670  20.9600  0.00  0.00     0.000 N
ATOM    104  HD  NAG B   7       3.877   4.096  20.4020  0.00  0.00     0.000 HD
ATOM    104   O  NAG B   7       2.435   4.793  20.6940  0.00  0.00     0.000 OA
ATOM    105   C  NAG B   7       3.342   4.374  21.4410  0.00  0.00     0.000 C
ATOM    106   C  NAG B   7       3.280   4.672  22.9000  0.00  0.00     0.000 C
ENDBRANCH 97 104
ATOM    107   O  NAG B   7       9.499   0.057  22.5970  0.00  0.00     0.000 O
ATOM    109  HD  NAG B   7       8.881   0.263  22.0260  0.00  0.00     0.000 HD
ATOM    109   O  NAG B   7       9.499   0.057  22.5970  0.00  0.00     0.000 O
ATOM    111  HD  NAG B   7       8.881   0.263  22.0260  0.00  0.00     0.000 HD
ENDBRANCH 95 98
ENDBRANCH 82 95
ENDBRANCH 81 85
ENDBRANCH 65 81
ENDBRANCH 64 67
ENDBRANCH 51 64
ENDBRANCH 50 54
ENDBRANCH 34 50
ENDBRANCH 33 36
ENDBRANCH 20 33
ENDBRANCH 19 23
ENDBRANCH 1 19
TORSDOF 19
ENDMDL
MODEL 99
REMARK VINA RESULT:      -5.0      7.858     16.145
ROOT
ATOM      1  C1  NAG B   1      15.563   8.259   8.6090  0.00  0.00     0.000 C
ATOM      2  C2  NAG B   1      15.929   9.411   7.6770  0.00  0.00     0.000 C
ATOM      3  C3  NAG B   1      16.871   8.969   6.5750  0.00  0.00     0.000 C
ATOM      4  C4  NAG B   1      18.088   8.389   7.2880  0.00  0.00     0.000 C
ATOM      5  C5  NAG B   1      17.659   7.158   8.0970  0.00  0.00     0.000 C
ATOM      6  O5  NAG B   1      16.685   7.510   9.1030  0.00  0.00     0.000 O
ATOM      7   O  NAG B   1      17.253  10.063   5.7110  0.00  0.00     0.000 O
ATOM      9  HD  NAG B   1      16.434  10.262   5.9140  0.00  0.00     0.000 HD
ATOM      9   O  NAG B   1      19.078   8.020   6.3420  0.00  0.00     0.000 O
ATOM     11  HD  NAG B   1      18.260   8.219   6.5450  0.00  0.00     0.000 HD
ATOM     11   C  NAG B   1      18.889   6.479   8.7110  0.00  0.00     0.000 C
ATOM     12   O  NAG B   1      18.558   5.805   9.9240  0.00  0.00     0.000 O
ATOM     14  HD  NAG B   1      17.739   6.004  10.1270  0.00  0.00     0.000 HD
ENDROOT
BRANCH 2 16
ATOM     14   N  NAG B   1      14.613   9.979   7.3360  0.00  0.00     0.000 N
ATOM     16  HD  NAG B   1      13.873  10.264   7.6850  0.00  0.00     0.000 HD
ATOM     16   C  NAG B   1      14.333  11.291   7.4250  0.00  0.00     0.000 C
ATOM     17   C  NAG B   1      15.382  12.251   7.9180  0.00  0.00     0.000 C
ATOM     18   O  NAG B   1      13.237  11.734   7.0840  0.00  0.00     0.000 OA
ENDBRANCH 2 16
BRANCH 1 19
ATOM     19  O4  BDP B   2      15.006   8.920   9.7370  0.00  0.00     0.000 O
BRANCH 19 23
ATOM     20  C1  BDP B   2      13.501   7.736  13.3800  0.00  0.00     0.000 C
ATOM     21  C2  BDP B   2      15.010   7.813  13.2680  0.00  0.00     0.000 C
ATOM     22  C3  BDP B   2      15.429   8.638  12.0730  0.00  0.00     0.000 C
ATOM     23  C4  BDP B   2      14.736   8.079  10.8330  0.00  0.00     0.000 C
ATOM     24  C5  BDP B   2      13.237   8.062  11.0580  0.00  0.00     0.000 C
ATOM     25  O5  BDP B   2      12.935   7.246  12.1730  0.00  0.00     0.000 O
ATOM     26   O  BDP B   2      15.561   8.365  14.4440  0.00  0.00     0.000 O
ATOM     28  HD  BDP B   2      14.747   8.222  14.7030  0.00  0.00     0.000 HD
ATOM     28   O  BDP B   2      16.860   8.604  11.9530  0.00  0.00     0.000 O
ATOM     30  HD  BDP B   2      16.046   8.462  12.2120  0.00  0.00     0.000 HD
BRANCH 24 30
ATOM     30   C  BDP B   2      12.500   7.516   9.8880  0.00  0.00     0.000 C
ATOM     31   O  BDP B   2      12.569   6.281   9.6900  0.00  0.00     0.000 OA
ATOM     32   O  BDP B   2      11.854   8.320   9.1560  0.00  0.00     0.000 OA
ENDBRANCH 24 30
BRANCH 20 33
ATOM     33  O3  NAG B   3      13.284   6.799  14.4070  0.00  0.00     0.000 O
BRANCH 33 36
ATOM     34  C1  NAG B   3       9.883   6.306  15.9380  0.00  0.00     0.000 C
ATOM     35  C2  NAG B   3      11.263   6.904  15.7360  0.00  0.00     0.000 C
ATOM     36  C3  NAG B   3      11.920   6.372  14.4530  0.00  0.00     0.000 C
ATOM     37  C4  NAG B   3      11.879   4.846  14.4590  0.00  0.00     0.000 C
ATOM     38  C5  NAG B   3      10.464   4.355  14.7550  0.00  0.00     0.000 C
ATOM     39  O5  NAG B   3      10.015   4.893  15.9870  0.00  0.00     0.000 O
ATOM     40   O  NAG B   3      12.304   4.339  13.1850  0.00  0.00     0.000 O
ATOM     42  HD  NAG B   3      11.542   3.929  13.2330  0.00  0.00     0.000 HD
ATOM     42   C  NAG B   3      10.356   2.841  14.9090  0.00  0.00     0.000 C
ATOM     43   O  NAG B   3      11.086   2.424  16.0700  0.00  0.00     0.000 O
ATOM     45  HD  NAG B   3      10.325   2.014  16.1180  0.00  0.00     0.000 HD
BRANCH 35 47
ATOM     45   N  NAG B   3      11.922   7.830  16.6480  0.00  0.00     0.000 N
ATOM     47  HD  NAG B   3      12.344   7.078  16.5740  0.00  0.00     0.000 HD
ATOM     47   C  NAG B   3      11.979   9.129  16.4330  0.00  0.00     0.000 C
ATOM     48   C  NAG B   3      12.713   9.938  17.4610  0.00  0.00     0.000 C
ATOM     49   O  NAG B   3      11.483   9.647  15.4340  0.00  0.00     0.000 OA
ENDBRANCH 35 47
BRANCH 34 50
ATOM     50  O4  BDP B   4       9.483   6.807  17.1970  0.00  0.00     0.000 O
BRANCH 50 54
ATOM     51  C1  BDP B   4       6.294   7.889  19.4790  0.00  0.00     0.000 C
ATOM     52  C2  BDP B   4       6.369   6.400  19.1640  0.00  0.00     0.000 C
ATOM     53  C3  BDP B   4       7.743   6.085  18.6600  0.00  0.00     0.000 C
ATOM     54  C4  BDP B   4       8.081   7.000  17.4480  0.00  0.00     0.000 C
ATOM     55  C5  BDP B   4       7.803   8.469  17.7360  0.00  0.00     0.000 C
ATOM     56  O5  BDP B   4       6.500   8.630  18.2890  0.00  0.00     0.000 O
ATOM     57   O  BDP B   4       6.111   5.640  20.3250  0.00  0.00     0.000 O
ATOM     59  HD  BDP B   4       5.298   5.359  20.2260  0.00  0.00     0.000 HD
ATOM     59   O  BDP B   4       7.717   4.720  18.1930  0.00  0.00     0.000 O
ATOM     61  HD  BDP B   4       6.904   4.439  18.0940  0.00  0.00     0.000 HD
BRANCH 55 61
ATOM     61   C  BDP B   4       7.897   9.260  16.4430  0.00  0.00     0.000 C
ATOM     62   O  BDP B   4       7.326   8.794  15.4230  0.00  0.00     0.000 OA
ATOM     63   O  BDP B   4       8.544  10.351  16.4520  0.00  0.00     0.000 OA
ENDBRANCH 55 61
BRANCH 51 64
ATOM     64  O3  NAG B   5       4.983   8.146  20.0200  0.00  0.00     0.000 O
BRANCH 64 67
ATOM     65  C1  NAG B   5       4.422  10.880  22.4290  0.00  0.00     0.000 C
ATOM     66  C2  NAG B   5       4.834   9.511  21.9150  0.00  0.00     0.000 C
ATOM     67  C3  NAG B   5       4.804   9.498  20.3930  0.00  0.00     0.000 C
ATOM     68  C4  NAG B   5       3.453   9.999  19.8630  0.00  0.00     0.000 C
ATOM     69  C5  NAG B   5       3.084  11.328  20.5030  0.00  0.00     0.000 C
ATOM     70  O5  NAG B   5       3.147  11.217  21.9320  0.00  0.00     0.000 O
ATOM     71   O  NAG B   5       3.532  10.112  18.4580  0.00  0.00     0.000 O
ATOM     73  HD  NAG B   5       2.742   9.761  18.5070  0.00  0.00     0.000 HD
ATOM     73   C  NAG B   5       1.688  11.845  20.1290  0.00  0.00     0.000 C
ATOM     74   O  NAG B   5       0.686  10.933  20.6260  0.00  0.00     0.000 O
ATOM     76  HD  NAG B   5      -0.104  10.583  20.6750  0.00  0.00     0.000 HD
BRANCH 66 78
ATOM     76   N  NAG B   5       6.110   9.309  22.6270  0.00  0.00     0.000 N
ATOM     78  HD  NAG B   5       5.377   8.867  22.4950  0.00  0.00     0.000 HD
ATOM     78   C  NAG B   5       6.547   8.152  23.1510  0.00  0.00     0.000 C
ATOM     79   C  NAG B   5       7.901   8.261  23.7980  0.00  0.00     0.000 C
ATOM     80   O  NAG B   5       5.872   7.063  23.1110  0.00  0.00     0.000 OA
ENDBRANCH 66 78
BRANCH 65 81
ATOM     81  O4  BDP B   6       4.404  10.884  23.8620  0.00  0.00     0.000 O
BRANCH 81 85
ATOM     82  C1  BDP B   6       4.721  13.598  27.1630  0.00  0.00     0.000 C
ATOM     83  C2  BDP B   6       3.554  13.793  26.1990  0.00  0.00     0.000 C
ATOM     84  C3  BDP B   6       3.295  12.565  25.3220  0.00  0.00     0.000 C
ATOM     85  C4  BDP B   6       4.568  12.084  24.6220  0.00  0.00     0.000 C
ATOM     86  C5  BDP B   6       5.680  11.958  25.6900  0.00  0.00     0.000 C
ATOM     87  O5  BDP B   6       5.872  13.208  26.4270  0.00  0.00     0.000 O
ATOM     88   O  BDP B   6       2.418  14.039  27.0230  0.00  0.00     0.000 O
ATOM     90  HD  BDP B   6       1.580  13.828  27.0850  0.00  0.00     0.000 HD
ATOM     90   O  BDP B   6       2.269  12.862  24.3720  0.00  0.00     0.000 O
ATOM     92  HD  BDP B   6       1.431  12.651  24.4340  0.00  0.00     0.000 HD
BRANCH 86 92
ATOM     92   C  BDP B   6       7.019  11.718  25.0360  0.00  0.00     0.000 C
ATOM     93   O  BDP B   6       7.924  11.100  25.6740  0.00  0.00     0.000 OA
ATOM     94   O  BDP B   6       7.172  12.133  23.8450  0.00  0.00     0.000 OA
ENDBRANCH 86 92
BRANCH 82 95
ATOM     95  O3  NAG B   7       5.006  14.863  27.7930  0.00  0.00     0.000 O
BRANCH 95 98
ATOM     96  C1  NAG B   7       5.007  16.352  31.1280  0.00  0.00     0.000 C
ATOM     97  C2  NAG B   7       4.841  16.325  29.6140  0.00  0.00     0.000 C
ATOM     98  C3  NAG B   7       5.222  14.905  29.2020  0.00  0.00     0.000 C
ATOM     99  C4  NAG B   7       6.664  14.614  29.6120  0.00  0.00     0.000 C
ATOM    100  C5  NAG B   7       6.873  14.887  31.1020  0.00  0.00     0.000 C
ATOM    101  O5  NAG B   7       6.403  16.192  31.4020  0.00  0.00     0.000 O
BRANCH 97 104
ATOM    102   N  NAG B   7       3.483  16.496  29.0790  0.00  0.00     0.000 N
ATOM    104  HD  NAG B   7       2.740  16.363  28.6550  0.00  0.00     0.000 HD
ATOM    104   O  NAG B   7       1.830  17.461  27.8690  0.00  0.00     0.000 OA
ATOM    105   C  NAG B   7       3.000  17.480  28.2980  0.00  0.00     0.000 C
ATOM    106   C  NAG B   7       3.894  18.614  27.9260  0.00  0.00     0.000 C
ENDBRANCH 97 104
ATOM    107   O  NAG B   7       8.410  14.688  32.8640  0.00  0.00     0.000 O
ATOM    109  HD  NAG B   7       7.576  14.623  32.6410  0.00  0.00     0.000 HD
ATOM    109   O  NAG B   7       8.410  14.688  32.8640  0.00  0.00     0.000 O
ATOM    111  HD  NAG B   7       7.576  14.623  32.6410  0.00  0.00     0.000 HD
ENDBRANCH 95 98
ENDBRANCH 82 95
ENDBRANCH 81 85
ENDBRANCH 65 81
ENDBRANCH 64 67
ENDBRANCH 51 64
ENDBRANCH 50 54
ENDBRANCH 34 50
ENDBRANCH 33 36
ENDBRANCH 20 33
ENDBRANCH 19 23
ENDBRANCH 1 19
TORSDOF 19
ENDMDL
MODEL 100
REMARK VINA RESULT:      -5.0     11.194     16.020
ROOT
ATOM      1  C1  NAG B   1      13.025   9.665   9.7350  0.00  0.00     0.000 C
ATOM      2  C2  NAG B   1      13.797  10.425   8.6600  0.00  0.00     0.000 C
ATOM      3  C3  NAG B   1      14.743   9.519   7.8980  0.00  0.00     0.000 C
ATOM      4  C4  NAG B   1      15.661   8.908   8.9510  0.00  0.00     0.000 C
ATOM      5  C5  NAG B   1      14.825   8.054   9.9140  0.00  0.00     0.000 C
ATOM      6  O5  NAG B   1      13.839   8.857  10.5990  0.00  0.00     0.000 O
ATOM      7   O  NAG B   1      15.506  10.239   6.9040  0.00  0.00     0.000 O
ATOM      9  HD  NAG B   1      14.745  10.651   6.8890  0.00  0.00     0.000 HD
ATOM      9   O  NAG B   1      16.649   8.103   8.3300  0.00  0.00     0.000 O
ATOM     11  HD  NAG B   1      15.887   8.515   8.3160  0.00  0.00     0.000 HD
ATOM     11   C  NAG B   1      15.745   7.322  10.8980  0.00  0.00     0.000 C
ATOM     12   O  NAG B   1      15.086   7.079  12.1400  0.00  0.00     0.000 O
ATOM     14  HD  NAG B   1      14.324   7.491  12.1250  0.00  0.00     0.000 HD
ENDROOT
BRANCH 2 16
ATOM     14   N  NAG B   1      12.774  11.130   7.8680  0.00  0.00     0.000 N
ATOM     16  HD  NAG B   1      12.053  11.603   7.9380  0.00  0.00     0.000 HD
ATOM     16   C  NAG B   1      12.780  12.461   7.6780  0.00  0.00     0.000 C
ATOM     17   C  NAG B   1      13.852  13.306   8.3130  0.00  0.00     0.000 C
ATOM     18   O  NAG B   1      11.936  13.008   6.9680  0.00  0.00     0.000 OA
ENDBRANCH 2 16
BRANCH 1 19
ATOM     19  O4  BDP B   2      12.500  10.703  10.5510  0.00  0.00     0.000 O
BRANCH 19 23
ATOM     20  C1  BDP B   2      11.143  10.993  14.4260  0.00  0.00     0.000 C
ATOM     21  C2  BDP B   2      12.646  10.979  14.2380  0.00  0.00     0.000 C
ATOM     22  C3  BDP B   2      13.023  11.292  12.8080  0.00  0.00     0.000 C
ATOM     23  C4  BDP B   2      12.268  10.335  11.8890  0.00  0.00     0.000 C
ATOM     24  C5  BDP B   2      10.780  10.446  12.1590  0.00  0.00     0.000 C
ATOM     25  O5  BDP B   2      10.517  10.108  13.5080  0.00  0.00     0.000 O
ATOM     26   O  BDP B   2      13.256  11.910  15.1060  0.00  0.00     0.000 O
ATOM     28  HD  BDP B   2      12.453  11.897  15.4290  0.00  0.00     0.000 HD
ATOM     28   O  BDP B   2      14.446  11.175  12.6570  0.00  0.00     0.000 O
ATOM     30  HD  BDP B   2      13.643  11.163  12.9800  0.00  0.00     0.000 HD
BRANCH 24 30
ATOM     30   C  BDP B   2       9.984   9.528  11.3020  0.00  0.00     0.000 C
ATOM     31   O  BDP B   2       9.285  10.046  10.4010  0.00  0.00     0.000 OA
ATOM     32   O  BDP B   2      10.046   8.286  11.5310  0.00  0.00     0.000 OA
ENDBRANCH 24 30
BRANCH 20 33
ATOM     33  O3  NAG B   3      10.959  10.508  15.7340  0.00  0.00     0.000 O
BRANCH 33 36
ATOM     34  C1  NAG B   3       8.339  11.894  18.0490  0.00  0.00     0.000 C
ATOM     35  C2  NAG B   3       9.690  11.758  17.3740  0.00  0.00     0.000 C
ATOM     36  C3  NAG B   3       9.634  10.757  16.2090  0.00  0.00     0.000 C
ATOM     37  C4  NAG B   3       9.029   9.444  16.7000  0.00  0.00     0.000 C
ATOM     38  C5  NAG B   3       7.719   9.707  17.4360  0.00  0.00     0.000 C
ATOM     39  O5  NAG B   3       7.939  10.610  18.5070  0.00  0.00     0.000 O
ATOM     40   O  NAG B   3       8.784   8.570  15.5860  0.00  0.00     0.000 O
ATOM     42  HD  NAG B   3       7.988   8.564  15.9260  0.00  0.00     0.000 HD
ATOM     42   C  NAG B   3       7.109   8.462  18.0750  0.00  0.00     0.000 C
ATOM     43   O  NAG B   3       7.970   7.988  19.1180  0.00  0.00     0.000 O
ATOM     45  HD  NAG B   3       7.173   7.982  19.4580  0.00  0.00     0.000 HD
BRANCH 35 47
ATOM     45   N  NAG B   3      10.854  12.502  17.8370  0.00  0.00     0.000 N
ATOM     47  HD  NAG B   3      10.911  11.654  18.0050  0.00  0.00     0.000 HD
ATOM     47   C  NAG B   3      11.374  13.510  17.1660  0.00  0.00     0.000 C
ATOM     48   C  NAG B   3      12.585  14.154  17.7740  0.00  0.00     0.000 C
ATOM     49   O  NAG B   3      10.912  13.885  16.0910  0.00  0.00     0.000 OA
ENDBRANCH 35 47
BRANCH 34 50
ATOM     50  O4  BDP B   4       8.597  12.748  19.1440  0.00  0.00     0.000 O
BRANCH 50 54
ATOM     51  C1  BDP B   4       7.080  15.735  21.4530  0.00  0.00     0.000 C
ATOM     52  C2  BDP B   4       6.279  14.438  21.4900  0.00  0.00     0.000 C
ATOM     53  C3  BDP B   4       7.121  13.338  20.9220  0.00  0.00     0.000 C
ATOM     54  C4  BDP B   4       7.611  13.732  19.4990  0.00  0.00     0.000 C
ATOM     55  C5  BDP B   4       8.229  15.123  19.4640  0.00  0.00     0.000 C
ATOM     56  O5  BDP B   4       7.374  16.064  20.1070  0.00  0.00     0.000 O
ATOM     57   O  BDP B   4       5.925  14.119  22.8190  0.00  0.00     0.000 O
ATOM     59  HD  BDP B   4       5.090  14.337  22.8810  0.00  0.00     0.000 HD
ATOM     59   O  BDP B   4       6.270  12.180  20.7950  0.00  0.00     0.000 O
ATOM     61  HD  BDP B   4       5.434  12.398  20.8570  0.00  0.00     0.000 HD
BRANCH 55 61
ATOM     61   C  BDP B   4       8.436  15.542  18.0190  0.00  0.00     0.000 C
ATOM     62   O  BDP B   4       9.396  16.314  17.7600  0.00  0.00     0.000 OA
ATOM     63   O  BDP B   4       7.634  15.095  17.1430  0.00  0.00     0.000 OA
ENDBRANCH 55 61
BRANCH 51 64
ATOM     64  O3  NAG B   5       6.268  16.756  22.0630  0.00  0.00     0.000 O
BRANCH 64 67
ATOM     65  C1  NAG B   5       7.725  19.409  24.1690  0.00  0.00     0.000 C
ATOM     66  C2  NAG B   5       7.170  18.045  23.7960  0.00  0.00     0.000 C
ATOM     67  C3  NAG B   5       6.981  17.957  22.2870  0.00  0.00     0.000 C
ATOM     68  C4  NAG B   5       6.160  19.144  21.7640  0.00  0.00     0.000 C
ATOM     69  C5  NAG B   5       6.738  20.458  22.2650  0.00  0.00     0.000 C
ATOM     70  O5  NAG B   5       6.869  20.422  23.6930  0.00  0.00     0.000 O
ATOM     71   O  NAG B   5       6.145  19.096  20.3540  0.00  0.00     0.000 O
ATOM     73  HD  NAG B   5       5.313  19.305  20.4760  0.00  0.00     0.000 HD
ATOM     73   C  NAG B   5       5.907  21.695  21.8960  0.00  0.00     0.000 C
ATOM     74   O  NAG B   5       4.617  21.620  22.5370  0.00  0.00     0.000 O
ATOM     76  HD  NAG B   5       3.785  21.829  22.6600  0.00  0.00     0.000 HD
BRANCH 66 78
ATOM     76   N  NAG B   5       8.134  17.138  24.4490  0.00  0.00     0.000 N
ATOM     78  HD  NAG B   5       7.275  17.244  24.4250  0.00  0.00     0.000 HD
ATOM     78   C  NAG B   5       7.833  16.003  25.1010  0.00  0.00     0.000 C
ATOM     79   C  NAG B   5       9.039  15.286  25.6430  0.00  0.00     0.000 C
ATOM     80   O  NAG B   5       6.633  15.577  25.2540  0.00  0.00     0.000 OA
ENDBRANCH 66 78
BRANCH 65 81
ATOM     81  O4  BDP B   6       7.862  19.513  25.5920  0.00  0.00     0.000 O
BRANCH 81 85
ATOM     82  C1  BDP B   6      10.037  21.792  28.4960  0.00  0.00     0.000 C
ATOM     83  C2  BDP B   6       8.734  22.385  27.9670  0.00  0.00     0.000 C
ATOM     84  C3  BDP B   6       7.848  21.347  27.2720  0.00  0.00     0.000 C
ATOM     85  C4  BDP B   6       8.616  20.559  26.2090  0.00  0.00     0.000 C
ATOM     86  C5  BDP B   6       9.925  20.043  26.8520  0.00  0.00     0.000 C
ATOM     87  O5  BDP B   6      10.712  21.130  27.4360  0.00  0.00     0.000 O
ATOM     88   O  BDP B   6       8.058  22.900  29.1110  0.00  0.00     0.000 O
ATOM     90  HD  BDP B   6       7.264  22.941  29.4540  0.00  0.00     0.000 HD
ATOM     90   O  BDP B   6       6.706  21.994  26.7050  0.00  0.00     0.000 O
ATOM     92  HD  BDP B   6       5.912  22.036  27.0490  0.00  0.00     0.000 HD
BRANCH 86 92
ATOM     92   C  BDP B   6      10.839  19.462  25.8000  0.00  0.00     0.000 C
ATOM     93   O  BDP B   6      10.889  18.205  25.6420  0.00  0.00     0.000 OA
ATOM     94   O  BDP B   6      11.511  20.277  25.0940  0.00  0.00     0.000 OA
ENDBRANCH 86 92
BRANCH 82 95
ATOM     95  O3  NAG B   7      10.876  22.873  28.9480  0.00  0.00     0.000 O
BRANCH 95 98
ATOM     96  C1  NAG B   7      12.617  23.780  32.0280  0.00  0.00     0.000 C
ATOM     97  C2  NAG B   7      11.762  24.016  30.7910  0.00  0.00     0.000 C
ATOM     98  C3  NAG B   7      11.730  22.668  30.0730  0.00  0.00     0.000 C
ATOM     99  C4  NAG B   7      13.148  22.245  29.6990  0.00  0.00     0.000 C
ATOM    100  C5  NAG B   7      14.062  22.254  30.9260  0.00  0.00     0.000 C
ATOM    101  O5  NAG B   7      13.949  23.511  31.5750  0.00  0.00     0.000 O
BRANCH 97 104
ATOM    102   N  NAG B   7      10.344  24.337  31.0020  0.00  0.00     0.000 N
ATOM    104  HD  NAG B   7       9.478  24.313  30.9750  0.00  0.00     0.000 HD
ATOM    104   O  NAG B   7       8.447  25.568  30.8660  0.00  0.00     0.000 OA
ATOM    105   C  NAG B   7       9.674  25.460  30.6770  0.00  0.00     0.000 C
ATOM    106   C  NAG B   7      10.420  26.595  30.0630  0.00  0.00     0.000 C
ENDBRANCH 97 104
ATOM    107   O  NAG B   7      16.207  21.690  31.6900  0.00  0.00     0.000 O
ATOM    109  HD  NAG B   7      15.364  21.703  31.8910  0.00  0.00     0.000 HD
ATOM    109   O  NAG B   7      16.207  21.690  31.6900  0.00  0.00     0.000 O
ATOM    111  HD  NAG B   7      15.364  21.703  31.8910  0.00  0.00     0.000 HD
ENDBRANCH 95 98
ENDBRANCH 82 95
ENDBRANCH 81 85
ENDBRANCH 65 81
ENDBRANCH 64 67
ENDBRANCH 51 64
ENDBRANCH 50 54
ENDBRANCH 34 50
ENDBRANCH 33 36
ENDBRANCH 20 33
ENDBRANCH 19 23
ENDBRANCH 1 19
TORSDOF 19
ENDMDL
